CHEMBL209_lig710
                    3D
 Schrodinger Suite 2021-1.
 61 64  0  0  1  0            999 V2000
   31.9311   23.4302   26.4018 N   0  0  0  0  0  0
   33.1277   23.0394   25.8073 C   0  0  0  0  0  0
   29.4748   15.2750   28.1910 C   0  0  0  0  0  0
   33.9525   22.1674   26.1977 N   0  0  0  0  0  0
   29.1591   14.1331   27.7920 N   0  0  0  0  0  0
   25.7782   22.2210   32.7708 C   0  0  0  0  0  0
   27.0986   21.5543   33.2224 C   0  0  2  0  0  0
   28.4378   16.2178   28.6479 C   0  0  0  0  0  0
   27.5930   17.7952   30.3241 C   0  0  0  0  0  0
   28.6596   17.0794   29.7297 C   0  0  0  0  0  0
   31.3955   22.7452   27.5896 C   0  0  0  0  0  0
   31.4914   24.8310   26.4322 C   0  0  0  0  0  0
   28.2857   21.9999   32.3445 C   0  0  0  0  0  0
   26.9553   20.0085   33.3892 C   0  0  0  0  0  0
   27.7714   18.5340   31.5138 C   0  0  0  0  0  0
   26.7039   19.1958   32.1183 C   0  0  0  0  0  0
   26.2961   17.7334   29.7392 C   0  0  0  0  0  0
   30.8438   23.8787   28.4723 C   0  0  2  0  0  0
   25.5150   22.5306   31.6092 O   0  0  0  0  0  0
   27.1663   16.2046   28.0606 C   0  0  0  0  0  0
   31.4864   25.1319   27.9258 C   0  0  0  0  0  0
   31.1790   23.7211   29.8577 O   0  0  0  0  0  0
   26.1202   16.9628   28.5701 C   0  0  0  0  0  0
   28.3565   21.6303   30.9986 C   0  0  0  0  0  0
   29.2708   22.8492   32.8633 C   0  0  0  0  0  0
   30.7551   15.7409   28.2271 N   0  0  0  0  0  0
   25.2226   18.4142   30.3648 C   0  0  0  0  0  0
   30.2753   23.0593   30.6693 C   0  0  0  0  0  0
   24.9214   22.3953   33.8137 O   0  0  0  0  0  0
   25.4331   19.1224   31.5460 C   0  0  0  0  0  0
   30.2609   23.3718   32.0291 C   0  0  0  0  0  0
   29.3506   22.1328   30.1775 C   0  0  0  0  0  0
   33.4818   23.7491   24.5118 C   0  0  0  0  0  0
   34.7474   22.1259   25.5679 H   0  0  0  0  0  0
   29.9851   13.6206   27.5068 H   0  0  0  0  0  0
   27.2894   21.9387   34.2263 H   0  0  0  0  0  0
   29.6301   17.1201   30.2041 H   0  0  0  0  0  0
   30.5760   22.0858   27.3047 H   0  0  0  0  0  0
   32.1570   22.2043   28.1542 H   0  0  0  0  0  0
   32.1557   25.5136   25.8997 H   0  0  0  0  0  0
   30.4964   24.8710   25.9843 H   0  0  0  0  0  0
   27.8536   19.6247   33.8771 H   0  0  0  0  0  0
   26.1621   19.7786   34.1035 H   0  0  0  0  0  0
   28.7528   18.5853   31.9557 H   0  0  0  0  0  0
   29.7597   23.9932   28.3780 H   0  0  0  0  0  0
   26.9664   15.5710   27.2068 H   0  0  0  0  0  0
   32.4947   25.2726   28.3218 H   0  0  0  0  0  0
   30.9092   26.0338   28.1334 H   0  0  0  0  0  0
   25.1553   16.9114   28.0983 H   0  0  0  0  0  0
   27.6023   21.0032   30.5516 H   0  0  0  0  0  0
   29.2438   23.1503   33.9008 H   0  0  0  0  0  0
   31.4963   15.1737   27.8165 H   0  0  0  0  0  0
   30.9703   16.6988   28.4803 H   0  0  0  0  0  0
   24.2324   18.3579   29.9356 H   0  0  0  0  0  0
   24.1061   22.7961   33.5061 H   0  0  0  0  0  0
   24.5981   19.6237   32.0134 H   0  0  0  0  0  0
   30.9828   24.0709   32.4249 H   0  0  0  0  0  0
   29.3373   21.8426   29.1399 H   0  0  0  0  0  0
   34.1558   24.5850   24.6948 H   0  0  0  0  0  0
   32.5933   24.1338   24.0121 H   0  0  0  0  0  0
   33.9522   23.0776   23.7950 H   0  0  0  0  0  0
  1  2  1  0  0  0
  1 11  1  0  0  0
  1 12  1  0  0  0
  2  4  2  0  0  0
  2 33  1  0  0  0
  3  8  1  0  0  0
  3  5  2  0  0  0
  3 26  1  0  0  0
  4 34  1  0  0  0
  5 35  1  0  0  0
  6  7  1  0  0  0
  6 19  2  0  0  0
  6 29  1  0  0  0
  7 13  1  0  0  0
  7 14  1  0  0  0
  7 36  1  0  0  0
  8 10  1  0  0  0
  8 20  2  0  0  0
  9 15  1  0  0  0
  9 10  2  0  0  0
  9 17  1  0  0  0
 10 37  1  0  0  0
 11 18  1  0  0  0
 11 38  1  0  0  0
 11 39  1  0  0  0
 12 21  1  0  0  0
 12 40  1  0  0  0
 12 41  1  0  0  0
 13 24  1  0  0  0
 13 25  2  0  0  0
 14 16  1  0  0  0
 14 42  1  0  0  0
 14 43  1  0  0  0
 15 16  2  0  0  0
 15 44  1  0  0  0
 16 30  1  0  0  0
 17 27  1  0  0  0
 17 23  2  0  0  0
 18 22  1  0  0  0
 18 21  1  0  0  0
 18 45  1  0  0  0
 20 23  1  0  0  0
 20 46  1  0  0  0
 21 47  1  0  0  0
 21 48  1  0  0  0
 22 28  1  0  0  0
 23 49  1  0  0  0
 24 32  2  0  0  0
 24 50  1  0  0  0
 25 31  1  0  0  0
 25 51  1  0  0  0
 26 52  1  0  0  0
 26 53  1  0  0  0
 27 30  2  0  0  0
 27 54  1  0  0  0
 28 31  2  0  0  0
 28 32  1  0  0  0
 29 55  1  0  0  0
 30 56  1  0  0  0
 31 57  1  0  0  0
 32 58  1  0  0  0
 33 59  1  0  0  0
 33 60  1  0  0  0
 33 61  1  0  0  0
M  END
> <s_m_entry_id>
39246

> <s_m_entry_name>
dock_pv.2

> <s_m_Source_Path>
/home/csk/Desktop/cluster/DUD-E-result/try1

> <s_m_Source_File>
dock_pv.maegz

> <i_m_Source_File_Index>
2

> <chembl_id>
CHEMBL314535

> <chembl_pref_name>
None

> <i_lp_mmshare_version>
53161

> <r_lp_tautomer_probability>
0.499900269896156

> <s_lp_Force_Field>
OPLS_2005

> <r_lp_Energy>
36.260691

> <b_lp_Chiralities_Consistent>
1

> <s_lp_Variant>
CHEMBL209_lig710-1

> <s_i_glide_gridfile>
glide-grid_2ayw

> <i_i_glide_lignum>
1110

> <i_i_glide_rotatable_bonds>
9

> <r_i_docking_score>
-8.37775149323924

> <r_i_glide_ligand_efficiency>
-0.253871257370886

> <r_i_glide_ligand_efficiency_sa>
-0.814300772467253

> <r_i_glide_ligand_efficiency_ln>
-1.8631685544207

> <r_i_glide_gscore>
-8.37775149323924

> <r_i_glide_lipo>
-2.47534141318422

> <r_i_glide_hbond>
-1.12219300517975

> <r_i_glide_metal>
0

> <r_i_glide_rewards>
-1.05365704436907

> <r_i_glide_evdw>
-34.9272651672363

> <r_i_glide_ecoul>
-16.7767562866211

> <r_i_glide_erotb>
0.607298764600379

> <r_i_glide_esite>
-0.070982093751592

> <r_i_glide_emodel>
-72.0710023694451

> <r_i_glide_energy>
-51.7040214538574

> <r_i_glide_einternal>
7.99320650100708

> <i_i_glide_confnum>
14

> <i_i_glide_posenum>
177

> <r_i_glide_eff_state_penalty>
0

> <s_user_duplicate_titles>
CHEMBL209_lig710,CHEMBL209_lig753,552341,188491

> <i_f3d_flags>
0

> <s_m_subgroup_title>
dock_pv

> <s_m_subgroupid>
dock_pv

> <b_m_subgroup_collapsed>
1

$$$$
CHEMBL209_lig55
                    3D
 Schrodinger Suite 2021-1.
 78 80  0  0  1  0            999 V2000
   33.3839   18.3918   38.2152 N   0  0  0  0  0  0
   24.0075   21.3144   31.1057 S   0  0  0  0  0  0
   32.0649   17.8319   37.8585 C   0  0  2  0  0  0
   34.5995   17.6526   38.0370 C   0  0  0  0  0  0
   25.6856   19.5002   32.4760 C   0  0  1  0  0  0
   29.2899   15.5983   28.3241 C   0  0  0  0  0  0
   24.4435   20.3225   32.4880 N   0  0  1  0  0  0
   28.4743   16.6955   28.7588 N   0  0  0  0  0  0
   26.0352   19.1076   33.9352 C   0  0  0  0  0  0
   31.2192   18.8545   37.0388 C   0  0  1  0  0  0
   29.8994   18.3559   36.6360 N   0  0  0  0  0  0
   29.1600   18.8343   35.6228 C   0  0  0  0  0  0
   27.2367   18.5329   34.1078 N   0  0  0  0  0  0
   25.1530   21.3329   30.1910 O   0  0  0  0  0  0
   23.4658   22.5672   31.6362 O   0  0  0  0  0  0
   34.6709   16.5333   37.4733 N   0  0  0  0  0  0
   28.8393   14.5554   27.7910 N   0  0  0  0  0  0
   22.5769   20.3754   30.2944 C   0  0  0  0  0  0
   25.5428   18.2675   31.5288 C   0  0  0  0  0  0
   28.9549   17.8591   29.5145 C   0  0  0  0  0  0
   27.1634   16.9672   28.1551 C   0  0  0  0  0  0
   25.2663   19.3290   34.8733 O   0  0  0  0  0  0
   29.5361   19.7735   34.9161 O   0  0  0  0  0  0
   35.7747   18.2559   38.5274 N   0  0  0  0  0  0
   30.6815   15.7330   28.5175 N   0  0  0  0  0  0
   33.2735   19.6362   38.9987 C   0  0  0  0  0  0
   27.8093   18.1321   35.3960 C   0  0  0  0  0  0
   31.3202   17.3331   38.9594 O   0  0  0  0  0  0
   26.5115   18.2420   30.3210 C   0  0  0  0  0  0
   28.0099   18.1502   30.6991 C   0  0  0  0  0  0
   26.1048   17.2062   29.2463 C   0  0  0  0  0  0
   22.2574   20.7471   28.8474 C   0  0  0  0  0  0
   31.2008   20.2731   37.6607 C   0  0  0  0  0  0
   32.5925   20.7157   38.1422 C   0  0  0  0  0  0
   22.6782   21.9529   28.2734 C   0  0  0  0  0  0
   21.4926   19.8548   28.0925 C   0  0  0  0  0  0
   22.3612   22.2442   26.9483 C   0  0  0  0  0  0
   21.1711   20.1473   26.7717 C   0  0  0  0  0  0
   21.6102   21.3392   26.2028 C   0  0  0  0  0  0
   32.2001   16.9640   37.2089 H   0  0  0  0  0  0
   26.4850   20.1673   32.1488 H   0  0  0  0  0  0
   24.1309   20.6439   33.4080 H   0  0  0  0  0  0
   31.7855   18.9510   36.1084 H   0  0  0  0  0  0
   29.5568   17.5628   37.1611 H   0  0  0  0  0  0
   27.8567   18.4505   33.3145 H   0  0  0  0  0  0
   35.6148   16.1774   37.4416 H   0  0  0  0  0  0
   29.6101   13.9335   27.5874 H   0  0  0  0  0  0
   21.7017   20.5336   30.9234 H   0  0  0  0  0  0
   22.8246   19.3180   30.3408 H   0  0  0  0  0  0
   25.6673   17.3332   32.0806 H   0  0  0  0  0  0
   24.5208   18.1911   31.1640 H   0  0  0  0  0  0
   29.0152   18.7213   28.8484 H   0  0  0  0  0  0
   29.9529   17.6928   29.9152 H   0  0  0  0  0  0
   27.2451   17.8481   27.5169 H   0  0  0  0  0  0
   26.8399   16.1481   27.5090 H   0  0  0  0  0  0
   36.6759   17.8106   38.4660 H   0  0  0  0  0  0
   35.7663   19.1531   38.9878 H   0  0  0  0  0  0
   31.3327   15.0779   28.0959 H   0  0  0  0  0  0
   31.0900   16.6309   28.7510 H   0  0  0  0  0  0
   34.2304   20.0082   39.3627 H   0  0  0  0  0  0
   32.6711   19.4274   39.8850 H   0  0  0  0  0  0
   27.1437   18.3719   36.2271 H   0  0  0  0  0  0
   27.9524   17.0514   35.3885 H   0  0  0  0  0  0
   31.5530   16.4055   39.1076 H   0  0  0  0  0  0
   26.4399   19.1905   29.7874 H   0  0  0  0  0  0
   28.3360   19.0341   31.2491 H   0  0  0  0  0  0
   28.1486   17.3329   31.4048 H   0  0  0  0  0  0
   25.9145   16.2390   29.7096 H   0  0  0  0  0  0
   25.1511   17.4770   28.8016 H   0  0  0  0  0  0
   30.8096   21.0065   36.9539 H   0  0  0  0  0  0
   30.5329   20.2670   38.5232 H   0  0  0  0  0  0
   33.2280   20.9637   37.2908 H   0  0  0  0  0  0
   32.5033   21.6383   38.7177 H   0  0  0  0  0  0
   23.2521   22.6717   28.8384 H   0  0  0  0  0  0
   21.1380   18.9330   28.5302 H   0  0  0  0  0  0
   22.6920   23.1715   26.5038 H   0  0  0  0  0  0
   20.5770   19.4570   26.1910 H   0  0  0  0  0  0
   21.3537   21.5656   25.1781 H   0  0  0  0  0  0
  1  3  1  0  0  0
  1  4  1  0  0  0
  1 26  1  0  0  0
  2  7  1  0  0  0
  2 14  2  0  0  0
  2 15  2  0  0  0
  2 18  1  0  0  0
  3 10  1  0  0  0
  3 28  1  0  0  0
  3 40  1  0  0  0
  4 16  2  0  0  0
  4 24  1  0  0  0
  5  9  1  0  0  0
  5  7  1  0  0  0
  5 19  1  0  0  0
  5 41  1  0  0  0
  6  8  1  0  0  0
  6 17  2  0  0  0
  6 25  1  0  0  0
  7 42  1  0  0  0
  8 20  1  0  0  0
  8 21  1  0  0  0
  9 13  1  0  0  0
  9 22  2  0  0  0
 10 11  1  0  0  0
 10 33  1  0  0  0
 10 43  1  0  0  0
 11 12  1  0  0  0
 11 44  1  0  0  0
 12 23  2  0  0  0
 12 27  1  0  0  0
 13 27  1  0  0  0
 13 45  1  0  0  0
 16 46  1  0  0  0
 17 47  1  0  0  0
 18 32  1  0  0  0
 18 48  1  0  0  0
 18 49  1  0  0  0
 19 29  1  0  0  0
 19 50  1  0  0  0
 19 51  1  0  0  0
 20 30  1  0  0  0
 20 52  1  0  0  0
 20 53  1  0  0  0
 21 31  1  0  0  0
 21 54  1  0  0  0
 21 55  1  0  0  0
 24 56  1  0  0  0
 24 57  1  0  0  0
 25 58  1  0  0  0
 25 59  1  0  0  0
 26 34  1  0  0  0
 26 60  1  0  0  0
 26 61  1  0  0  0
 27 62  1  0  0  0
 27 63  1  0  0  0
 28 64  1  0  0  0
 29 30  1  0  0  0
 29 31  1  0  0  0
 29 65  1  0  0  0
 30 66  1  0  0  0
 30 67  1  0  0  0
 31 68  1  0  0  0
 31 69  1  0  0  0
 32 35  1  0  0  0
 32 36  2  0  0  0
 33 34  1  0  0  0
 33 70  1  0  0  0
 33 71  1  0  0  0
 34 72  1  0  0  0
 34 73  1  0  0  0
 35 37  2  0  0  0
 35 74  1  0  0  0
 36 38  1  0  0  0
 36 75  1  0  0  0
 37 39  1  0  0  0
 37 76  1  0  0  0
 38 39  2  0  0  0
 38 77  1  0  0  0
 39 78  1  0  0  0
M  END
> <s_m_entry_id>
39247

> <s_m_entry_name>
dock_pv.3

> <s_m_Source_Path>
/home/csk/Desktop/cluster/DUD-E-result/try1

> <s_m_Source_File>
dock_pv.maegz

> <i_m_Source_File_Index>
3

> <chembl_id>
CHEMBL162399

> <chembl_pref_name>
None

> <i_lp_mmshare_version>
53161

> <r_lp_tautomer_probability>
1

> <s_lp_Force_Field>
OPLS_2005

> <r_lp_Energy>
19.309606

> <b_lp_Chiralities_Consistent>
1

> <s_lp_Variant>
CHEMBL209_lig55-1

> <s_i_glide_gridfile>
glide-grid_2ayw

> <i_i_glide_lignum>
107

> <i_i_glide_rotatable_bonds>
15

> <r_i_docking_score>
-8.34368768084629

> <r_i_glide_ligand_efficiency>
-0.213940709765289

> <r_i_glide_ligand_efficiency_sa>
-0.725518182196629

> <r_i_glide_ligand_efficiency_ln>
-1.7891234884331

> <r_i_glide_gscore>
-8.34368768084629

> <r_i_glide_lipo>
-2.33242153405169

> <r_i_glide_hbond>
-1.08097505016319

> <r_i_glide_metal>
0

> <r_i_glide_rewards>
-0.585538747759818

> <r_i_glide_evdw>
-43.6764259338379

> <r_i_glide_ecoul>
-17.8357982635498

> <r_i_glide_erotb>
0.630187142139316

> <r_i_glide_esite>
-0.115748454786537

> <r_i_glide_emodel>
-82.5298641483675

> <r_i_glide_energy>
-61.5122241973877

> <r_i_glide_einternal>
18.7797298431396

> <i_i_glide_confnum>
54

> <i_i_glide_posenum>
342

> <r_i_glide_eff_state_penalty>
0

> <s_user_duplicate_titles>
CHEMBL209_lig55,273060

> <i_f3d_flags>
0

> <s_m_subgroup_title>
dock_pv

> <s_m_subgroupid>
dock_pv

> <b_m_subgroup_collapsed>
1

$$$$
CHEMBL209_lig1249
                    3D
 Schrodinger Suite 2021-1.
 52 53  0  0  1  0            999 V2000
   19.2684   22.6451   26.3121 C   0  0  0  0  0  0
   20.5797   22.2042   27.0006 C   0  0  1  0  0  0
   20.4272   20.8258   27.7098 C   0  0  0  0  0  0
   21.4899   20.5707   28.7697 C   0  0  0  0  0  0
   22.6393   19.7836   28.7024 C   0  0  0  0  0  0
   23.4359   19.7337   29.8672 C   0  0  0  0  0  0
   22.8576   20.5332   30.8464 C   0  0  0  0  0  0
   21.4171   21.3342   30.3279 S   0  0  0  0  0  0
   24.6702   18.9701   30.0449 C   0  0  0  0  0  0
   25.1907   18.7666   31.1457 O   0  0  0  0  0  0
   25.1535   18.5557   28.8412 O   0  0  0  0  0  0
   26.2766   17.7666   28.7746 C   0  0  0  0  0  0
   26.1319   16.4442   28.3649 C   0  0  0  0  0  0
   27.2481   15.6322   28.2116 C   0  0  0  0  0  0
   28.5492   16.1093   28.4643 C   0  0  0  0  0  0
   28.6699   17.4442   28.8903 C   0  0  0  0  0  0
   27.5576   18.2704   29.0266 C   0  0  0  0  0  0
   27.7343   19.5598   29.3961 F   0  0  0  0  0  0
   29.7204   15.2183   28.2592 C   0  0  0  0  0  0
   29.5552   14.0678   27.7940 N   0  0  0  0  0  0
   30.9482   15.7315   28.5880 N   0  0  0  0  0  0
   21.8086   22.2873   26.0578 C   0  0  0  0  0  0
   22.7531   21.5108   26.1911 O   0  0  0  0  0  0
   21.8152   23.2498   25.1197 N   0  0  0  0  0  0
   23.0102   23.6593   24.3672 C   0  0  1  0  0  0
   22.6421   24.1954   22.9530 C   0  0  0  0  0  0
   21.6056   23.3606   22.1853 C   0  0  0  0  0  0
   21.5547   22.1335   22.2016 O   0  0  0  0  0  0
   20.7535   24.1328   21.4566 O   0  0  0  0  0  0
   23.8159   24.6948   25.1951 C   0  0  0  0  0  0
   23.4480   25.1654   26.2531 O   0  0  0  0  0  0
   25.0050   24.9816   24.5952 O   0  0  0  0  0  0
   19.2619   23.7157   26.1040 H   0  0  0  0  0  0
   19.1530   22.1306   25.3621 H   0  0  0  0  0  0
   18.3891   22.4319   26.9213 H   0  0  0  0  0  0
   20.7615   22.9344   27.7906 H   0  0  0  0  0  0
   19.4504   20.7667   28.1920 H   0  0  0  0  0  0
   20.4188   20.0271   26.9644 H   0  0  0  0  0  0
   22.8912   19.2451   27.8006 H   0  0  0  0  0  0
   23.2243   20.6951   31.8496 H   0  0  0  0  0  0
   25.1530   16.0424   28.1522 H   0  0  0  0  0  0
   27.0823   14.6139   27.8880 H   0  0  0  0  0  0
   29.6309   17.8773   29.1076 H   0  0  0  0  0  0
   30.4422   13.5994   27.6489 H   0  0  0  0  0  0
   31.7554   15.1921   28.2816 H   0  0  0  0  0  0
   31.0923   16.7233   28.7321 H   0  0  0  0  0  0
   21.0178   23.8628   25.0498 H   0  0  0  0  0  0
   23.6817   22.8089   24.2329 H   0  0  0  0  0  0
   23.5308   24.2017   22.3223 H   0  0  0  0  0  0
   22.2913   25.2269   23.0201 H   0  0  0  0  0  0
   20.0950   23.5972   20.9909 H   0  0  0  0  0  0
   25.1559   24.5665   23.7413 H   0  0  0  0  0  0
  1  2  1  0  0  0
  1 33  1  0  0  0
  1 34  1  0  0  0
  1 35  1  0  0  0
  2  3  1  0  0  0
  2 22  1  0  0  0
  2 36  1  0  0  0
  3  4  1  0  0  0
  3 37  1  0  0  0
  3 38  1  0  0  0
  4  5  2  0  0  0
  4  8  1  0  0  0
  5  6  1  0  0  0
  5 39  1  0  0  0
  6  7  2  0  0  0
  6  9  1  0  0  0
  7  8  1  0  0  0
  7 40  1  0  0  0
  9 10  2  0  0  0
  9 11  1  0  0  0
 11 12  1  0  0  0
 12 13  2  0  0  0
 12 17  1  0  0  0
 13 14  1  0  0  0
 13 41  1  0  0  0
 14 15  2  0  0  0
 14 42  1  0  0  0
 15 16  1  0  0  0
 15 19  1  0  0  0
 16 17  2  0  0  0
 16 43  1  0  0  0
 17 18  1  0  0  0
 19 20  2  0  0  0
 19 21  1  0  0  0
 20 44  1  0  0  0
 21 45  1  0  0  0
 21 46  1  0  0  0
 22 23  2  0  0  0
 22 24  1  0  0  0
 24 25  1  0  0  0
 24 47  1  0  0  0
 25 26  1  0  0  0
 25 30  1  0  0  0
 25 48  1  0  0  0
 26 27  1  0  0  0
 26 49  1  0  0  0
 26 50  1  0  0  0
 27 28  2  0  0  0
 27 29  1  0  0  0
 29 51  1  0  0  0
 30 31  2  0  0  0
 30 32  1  0  0  0
 32 52  1  0  0  0
M  END
> <s_m_entry_id>
39249

> <s_m_entry_name>
dock_pv.5

> <s_m_Source_Path>
/home/csk/Desktop/cluster/DUD-E-result/try1

> <s_m_Source_File>
dock_pv.maegz

> <i_m_Source_File_Index>
5

> <chembl_id>
CHEMBL3642968

> <chembl_pref_name>
None

> <i_lp_mmshare_version>
53161

> <r_lp_tautomer_probability>
1

> <s_lp_Force_Field>
OPLS_2005

> <r_lp_Energy>
-1.484622

> <b_lp_Chiralities_Consistent>
1

> <s_lp_Variant>
CHEMBL209_lig1249-2

> <s_i_glide_gridfile>
glide-grid_2ayw

> <i_i_glide_lignum>
1887

> <i_i_glide_rotatable_bonds>
14

> <r_i_docking_score>
-8.28419219945878

> <r_i_glide_ligand_efficiency>
-0.258881006233087

> <r_i_glide_ligand_efficiency_sa>
-0.821895962308485

> <r_i_glide_ligand_efficiency_ln>
-1.85505645200943

> <r_i_glide_gscore>
-8.28419219945878

> <r_i_glide_lipo>
-2.43962669692371

> <r_i_glide_hbond>
-0.666256137324942

> <r_i_glide_metal>
0

> <r_i_glide_rewards>
-1.05076447315262

> <r_i_glide_evdw>
-43.4736709594727

> <r_i_glide_ecoul>
-19.3208103179932

> <r_i_glide_erotb>
1.02396767747906

> <r_i_glide_esite>
-0.0797074738639601

> <r_i_glide_emodel>
-91.2393961854001

> <r_i_glide_energy>
-62.7944812774658

> <r_i_glide_einternal>
2.98258924484253

> <i_i_glide_confnum>
6

> <i_i_glide_posenum>
148

> <r_i_glide_eff_state_penalty>
0

> <s_user_duplicate_titles>
CHEMBL209_lig1249

> <i_f3d_flags>
0

> <s_m_subgroup_title>
dock_pv

> <s_m_subgroupid>
dock_pv

> <b_m_subgroup_collapsed>
1

$$$$
CHEMBL209_lig813
                    3D
 Schrodinger Suite 2021-1.
 51 54  0  0  1  0            999 V2000
   25.5111   19.1367   30.7954 N   0  0  0  0  0  0
   24.3586   19.7106   30.2553 C   0  0  0  0  0  0
   25.5960   19.5175   32.1203 C   0  0  0  0  0  0
   21.9276   23.5921   22.4517 C   0  0  0  0  0  0
   24.5479   20.3406   32.4606 C   0  0  0  0  0  0
   29.2753   15.6740   28.2390 C   0  0  0  0  0  0
   23.7446   20.4846   31.2901 C   0  0  0  0  0  0
   23.8052   19.6491   28.9663 C   0  0  0  0  0  0
   26.4394   18.2815   30.1551 C   0  0  0  0  0  0
   22.2215   23.4093   23.9053 C   0  0  0  0  0  0
   28.3113   16.6077   28.8736 C   0  0  0  0  0  0
   22.3524   24.5958   21.8220 N   0  0  0  0  0  0
   28.9051   14.5552   27.7949 N   0  0  0  0  0  0
   21.6028   22.4100   24.6843 C   0  0  0  0  0  0
   22.0916   20.2292   27.4313 N   0  0  0  0  0  0
   27.8045   18.4242   30.4167 C   0  0  0  0  0  0
   26.0119   17.3215   29.2352 C   0  0  0  0  0  0
   22.6285   20.3550   28.7205 C   0  0  0  0  0  0
   28.7245   17.5919   29.7895 C   0  0  0  0  0  0
   26.9375   16.5006   28.5994 C   0  0  0  0  0  0
   22.5679   21.1899   31.0070 C   0  0  0  0  0  0
   21.1538   22.6059   21.8926 N   0  0  0  0  0  0
   30.5670   16.1315   28.1901 N   0  0  0  0  0  0
   21.8640   22.2605   26.0493 C   0  0  0  0  0  0
   21.1443   21.1727   26.8414 C   0  0  0  0  0  0
   22.0258   21.1168   29.7259 C   0  0  0  0  0  0
   23.1259   24.2617   24.5678 C   0  0  0  0  0  0
   23.3862   24.1337   25.9317 C   0  0  0  0  0  0
   22.7527   23.1392   26.6718 C   0  0  0  0  0  0
   26.4120   19.1536   32.7293 H   0  0  0  0  0  0
   24.3818   20.7763   33.4350 H   0  0  0  0  0  0
   24.2747   19.0829   28.1780 H   0  0  0  0  0  0
   22.0690   24.5782   20.8542 H   0  0  0  0  0  0
   29.7082   14.0631   27.4238 H   0  0  0  0  0  0
   20.8902   21.7332   24.2403 H   0  0  0  0  0  0
   22.4959   19.5360   26.8254 H   0  0  0  0  0  0
   28.1636   19.1689   31.1121 H   0  0  0  0  0  0
   24.9629   17.1670   29.0345 H   0  0  0  0  0  0
   29.7669   17.7104   30.0493 H   0  0  0  0  0  0
   26.5699   15.7542   27.9087 H   0  0  0  0  0  0
   22.0819   21.7765   31.7728 H   0  0  0  0  0  0
   20.6816   22.7651   21.0109 H   0  0  0  0  0  0
   20.8782   21.8079   22.4403 H   0  0  0  0  0  0
   31.2779   15.5529   27.7531 H   0  0  0  0  0  0
   30.8481   17.0479   28.5345 H   0  0  0  0  0  0
   20.4993   21.6429   27.5809 H   0  0  0  0  0  0
   20.4747   20.6083   26.1917 H   0  0  0  0  0  0
   21.1084   21.6519   29.5418 H   0  0  0  0  0  0
   23.6392   25.0436   24.0243 H   0  0  0  0  0  0
   24.0823   24.8041   26.4138 H   0  0  0  0  0  0
   22.9595   23.0482   27.7282 H   0  0  0  0  0  0
  1  2  1  0  0  0
  1  3  1  0  0  0
  1  9  1  0  0  0
  2  7  1  0  0  0
  2  8  2  0  0  0
  3  5  2  0  0  0
  3 30  1  0  0  0
  4 10  1  0  0  0
  4 12  2  0  0  0
  4 22  1  0  0  0
  5  7  1  0  0  0
  5 31  1  0  0  0
  6 11  1  0  0  0
  6 13  2  0  0  0
  6 23  1  0  0  0
  7 21  2  0  0  0
  8 18  1  0  0  0
  8 32  1  0  0  0
  9 16  1  0  0  0
  9 17  2  0  0  0
 10 14  2  0  0  0
 10 27  1  0  0  0
 11 20  2  0  0  0
 11 19  1  0  0  0
 12 33  1  0  0  0
 13 34  1  0  0  0
 14 24  1  0  0  0
 14 35  1  0  0  0
 15 18  1  0  0  0
 15 25  1  0  0  0
 15 36  1  0  0  0
 16 19  2  0  0  0
 16 37  1  0  0  0
 17 20  1  0  0  0
 17 38  1  0  0  0
 18 26  2  0  0  0
 19 39  1  0  0  0
 20 40  1  0  0  0
 21 26  1  0  0  0
 21 41  1  0  0  0
 22 42  1  0  0  0
 22 43  1  0  0  0
 23 44  1  0  0  0
 23 45  1  0  0  0
 24 25  1  0  0  0
 24 29  2  0  0  0
 25 46  1  0  0  0
 25 47  1  0  0  0
 26 48  1  0  0  0
 27 28  2  0  0  0
 27 49  1  0  0  0
 28 29  1  0  0  0
 28 50  1  0  0  0
 29 51  1  0  0  0
M  END
> <s_m_entry_id>
39250

> <s_m_entry_name>
dock_pv.6

> <s_m_Source_Path>
/home/csk/Desktop/cluster/DUD-E-result/try1

> <s_m_Source_File>
dock_pv.maegz

> <i_m_Source_File_Index>
6

> <chembl_id>
CHEMBL173419

> <chembl_pref_name>
None

> <i_lp_mmshare_version>
53161

> <r_lp_tautomer_probability>
1

> <s_lp_Force_Field>
OPLS_2005

> <r_lp_Energy>
11.053473

> <b_lp_Chiralities_Consistent>
1

> <s_lp_Variant>
CHEMBL209_lig813-1

> <s_i_glide_gridfile>
glide-grid_2ayw

> <i_i_glide_lignum>
1234

> <i_i_glide_rotatable_bonds>
6

> <r_i_docking_score>
-8.12174669300045

> <r_i_glide_ligand_efficiency>
-0.280060230793119

> <r_i_glide_ligand_efficiency_sa>
-0.860433758305383

> <r_i_glide_ligand_efficiency_ln>
-1.8596740429708

> <r_i_glide_gscore>
-8.12174669300045

> <r_i_glide_lipo>
-2.74363946647769

> <r_i_glide_hbond>
-0.828907221792483

> <r_i_glide_metal>
0

> <r_i_glide_rewards>
-1.42217207026799

> <r_i_glide_evdw>
-41.7029304504395

> <r_i_glide_ecoul>
-10.1979284286499

> <r_i_glide_erotb>
0.531100545531838

> <r_i_glide_esite>
-0.0432926931746741

> <r_i_glide_emodel>
-75.6537937421484

> <r_i_glide_energy>
-51.9008588790894

> <r_i_glide_einternal>
5.08587694168091

> <i_i_glide_confnum>
16

> <i_i_glide_posenum>
31

> <r_i_glide_eff_state_penalty>
0

> <s_user_duplicate_titles>
CHEMBL209_lig813

> <i_f3d_flags>
0

> <s_m_subgroup_title>
dock_pv

> <s_m_subgroupid>
dock_pv

> <b_m_subgroup_collapsed>
1

$$$$
CHEMBL209_lig906
                    3D
 Schrodinger Suite 2021-1.
 55 57  0  0  1  0            999 V2000
   34.9038   23.0265   28.1733 C   0  0  0  0  0  0
   29.4827   15.3253   28.1911 C   0  0  0  0  0  0
   29.1302   23.5513   32.0246 C   0  0  0  0  0  0
   33.5114   23.5604   28.1746 C   0  0  0  0  0  0
   28.4150   16.2955   28.6447 C   0  0  0  0  0  0
   33.1566   24.7327   28.8701 C   0  0  0  0  0  0
   28.7304   17.5417   29.2096 C   0  0  0  0  0  0
   27.7376   18.4236   29.6576 C   0  0  0  0  0  0
   31.8467   25.2215   28.8848 C   0  0  0  0  0  0
   28.7852   22.2226   31.3971 C   0  0  0  0  0  0
   35.1553   21.8546   27.7906 N   0  0  0  0  0  0
   28.1004   19.7396   30.2583 C   0  0  0  0  0  0
   30.8514   24.5314   28.1817 C   0  0  0  0  0  0
   29.1903   14.1897   27.8288 O   0  0  0  0  0  0
   28.9513   23.7400   33.2286 O   0  0  0  0  0  0
   32.4842   22.9006   27.4743 C   0  0  0  0  0  0
   29.5046   21.7208   30.3055 C   0  0  0  0  0  0
   27.7323   21.4654   31.9230 C   0  0  0  0  0  0
   31.1739   23.3765   27.4750 C   0  0  0  0  0  0
   27.3912   20.2420   31.3547 C   0  0  0  0  0  0
   29.1619   20.4934   29.7444 C   0  0  0  0  0  0
   29.5917   24.5020   31.1916 N   0  0  0  0  0  0
   35.8602   23.9059   28.6173 N   0  0  0  0  0  0
   30.7529   15.7330   28.1941 N   0  0  0  0  0  0
   29.5530   24.9661   28.1909 O   0  0  0  0  0  0
   27.0638   15.9382   28.5381 C   0  0  0  0  0  0
   26.3990   18.0284   29.5418 C   0  0  0  0  0  0
   26.0656   16.7944   28.9913 C   0  0  0  0  0  0
   31.5542   26.5136   29.6479 C   0  0  0  0  0  0
   29.9030   25.8780   31.5739 C   0  0  0  0  0  0
   31.3182   26.3292   31.1643 C   0  0  0  0  0  0
   33.8974   25.2804   29.4342 H   0  0  0  0  0  0
   29.7604   17.8278   29.3400 H   0  0  0  0  0  0
   36.1497   21.6907   27.8409 H   0  0  0  0  0  0
   32.6935   22.0016   26.9117 H   0  0  0  0  0  0
   30.3377   22.2686   29.8906 H   0  0  0  0  0  0
   27.1688   21.8212   32.7749 H   0  0  0  0  0  0
   30.4114   22.8382   26.9303 H   0  0  0  0  0  0
   26.5787   19.6760   31.7869 H   0  0  0  0  0  0
   29.7294   20.1306   28.8991 H   0  0  0  0  0  0
   29.5955   24.3143   30.1977 H   0  0  0  0  0  0
   36.8326   23.6387   28.6223 H   0  0  0  0  0  0
   35.6236   24.8670   28.8043 H   0  0  0  0  0  0
   31.4609   15.1000   27.8237 H   0  0  0  0  0  0
   31.0191   16.6668   28.4806 H   0  0  0  0  0  0
   28.9677   24.4881   27.5835 H   0  0  0  0  0  0
   26.7743   14.9817   28.1244 H   0  0  0  0  0  0
   25.6039   18.6753   29.8823 H   0  0  0  0  0  0
   25.0331   16.4877   28.9363 H   0  0  0  0  0  0
   32.4127   27.1734   29.5097 H   0  0  0  0  0  0
   30.7277   27.0561   29.1862 H   0  0  0  0  0  0
   29.7591   26.0637   32.6413 H   0  0  0  0  0  0
   29.1669   26.5096   31.0734 H   0  0  0  0  0  0
   32.0658   25.6593   31.5922 H   0  0  0  0  0  0
   31.4976   27.2925   31.6441 H   0  0  0  0  0  0
  1  4  1  0  0  0
  1 11  2  0  0  0
  1 23  1  0  0  0
  2  5  1  0  0  0
  2 14  2  0  0  0
  2 24  1  0  0  0
  3 22  1  0  0  0
  3 10  1  0  0  0
  3 15  2  0  0  0
  4  6  1  0  0  0
  4 16  2  0  0  0
  5  7  2  0  0  0
  5 26  1  0  0  0
  6  9  2  0  0  0
  6 32  1  0  0  0
  7  8  1  0  0  0
  7 33  1  0  0  0
  8 12  1  0  0  0
  8 27  2  0  0  0
  9 29  1  0  0  0
  9 13  1  0  0  0
 10 17  2  0  0  0
 10 18  1  0  0  0
 11 34  1  0  0  0
 12 20  1  0  0  0
 12 21  2  0  0  0
 13 19  2  0  0  0
 13 25  1  0  0  0
 16 19  1  0  0  0
 16 35  1  0  0  0
 17 21  1  0  0  0
 17 36  1  0  0  0
 18 20  2  0  0  0
 18 37  1  0  0  0
 19 38  1  0  0  0
 20 39  1  0  0  0
 21 40  1  0  0  0
 22 30  1  0  0  0
 22 41  1  0  0  0
 23 42  1  0  0  0
 23 43  1  0  0  0
 24 44  1  0  0  0
 24 45  1  0  0  0
 25 46  1  0  0  0
 26 28  2  0  0  0
 26 47  1  0  0  0
 27 28  1  0  0  0
 27 48  1  0  0  0
 28 49  1  0  0  0
 29 31  1  0  0  0
 29 50  1  0  0  0
 29 51  1  0  0  0
 30 31  1  0  0  0
 30 52  1  0  0  0
 30 53  1  0  0  0
 31 54  1  0  0  0
 31 55  1  0  0  0
M  END
> <s_m_entry_id>
39251

> <s_m_entry_name>
dock_pv.7

> <s_m_Source_Path>
/home/csk/Desktop/cluster/DUD-E-result/try1

> <s_m_Source_File>
dock_pv.maegz

> <i_m_Source_File_Index>
7

> <chembl_id>
CHEMBL70328

> <chembl_pref_name>
None

> <i_lp_mmshare_version>
53161

> <r_lp_tautomer_probability>
1

> <s_lp_Force_Field>
OPLS_2005

> <r_lp_Energy>
12.630822

> <b_lp_Chiralities_Consistent>
1

> <s_lp_Variant>
CHEMBL209_lig906-1

> <s_i_glide_gridfile>
glide-grid_2ayw

> <i_i_glide_lignum>
1351

> <i_i_glide_rotatable_bonds>
10

> <r_i_docking_score>
-8.09876330010519

> <r_i_glide_ligand_efficiency>
-0.261250429035651

> <r_i_glide_ligand_efficiency_sa>
-0.820687042262136

> <r_i_glide_ligand_efficiency_ln>
-1.8265193214615

> <r_i_glide_gscore>
-8.09876330010519

> <r_i_glide_lipo>
-2.23185181682107

> <r_i_glide_hbond>
-1.34829012255116

> <r_i_glide_metal>
0

> <r_i_glide_rewards>
-0.762775275169577

> <r_i_glide_evdw>
-34.2178153991699

> <r_i_glide_ecoul>
-18.4644336700439

> <r_i_glide_erotb>
0.797316691738761

> <r_i_glide_esite>
-0.0726069568370633

> <r_i_glide_emodel>
-74.5283575307635

> <r_i_glide_energy>
-52.6822490692139

> <r_i_glide_einternal>
6.18870878219604

> <i_i_glide_confnum>
2

> <i_i_glide_posenum>
268

> <r_i_glide_eff_state_penalty>
0

> <s_user_duplicate_titles>
CHEMBL209_lig906

> <i_f3d_flags>
0

> <s_m_subgroup_title>
dock_pv

> <s_m_subgroupid>
dock_pv

> <b_m_subgroup_collapsed>
1

$$$$
CHEMBL209_lig1242
                    3D
 Schrodinger Suite 2021-1.
 50 51  0  0  1  0            999 V2000
   29.9197   16.0333   28.1911 N   0  0  0  0  0  0
   28.5506   15.9080   28.1260 C   0  0  0  0  0  0
   27.9528   15.0609   27.4011 N   0  0  0  0  0  0
   27.7787   16.8489   28.9880 C   0  0  0  0  0  0
   26.3689   16.8613   28.9463 C   0  0  0  0  0  0
   25.6185   17.6565   29.8061 C   0  0  0  0  0  0
   26.2529   18.4763   30.7349 C   0  0  0  0  0  0
   25.4781   19.1434   31.6531 O   0  0  0  0  0  0
   25.0207   20.3865   31.3676 C   0  0  0  0  0  0
   25.5528   21.1868   30.5920 O   0  0  0  0  0  0
   23.7772   20.6336   32.0933 C   0  0  0  0  0  0
   23.0947   19.8189   32.9930 C   0  0  0  0  0  0
   21.8719   20.3562   33.3986 C   0  0  0  0  0  0
   21.5652   21.5839   32.8196 C   0  0  0  0  0  0
   20.3009   22.4101   32.9476 C   0  0  0  0  0  0
   19.1575   21.9232   32.0212 C   0  0  0  0  0  0
   19.4817   21.9442   30.5176 C   0  0  0  0  0  0
   20.1284   22.8731   30.0348 O   0  0  0  0  0  0
   18.9870   20.9327   29.7802 N   0  0  0  0  0  0
   19.1611   20.7319   28.3303 C   0  0  1  0  0  0
   18.6270   21.9238   27.4780 C   0  0  0  0  0  0
   16.9384   22.6306   27.9863 S   0  0  0  0  0  0
   16.3532   23.3318   26.8396 O   0  0  0  0  0  0
   17.0134   23.2836   29.2941 O   0  0  0  0  0  0
   16.1310   21.2034   28.1910 O   0  0  0  0  0  0
   20.6159   20.3176   27.9455 C   0  0  0  0  0  0
   21.5073   20.1391   28.7480 O   0  0  0  0  0  0
   20.7526   20.1384   26.5937 O   0  0  0  0  0  0
   22.8939   22.1018   31.8165 S   0  0  0  0  0  0
   27.6490   18.5295   30.7675 C   0  0  0  0  0  0
   28.2829   19.3287   31.6568 F   0  0  0  0  0  0
   28.3960   17.7332   29.8991 C   0  0  0  0  0  0
   30.4754   15.4357   27.5900 H   0  0  0  0  0  0
   30.3699   16.8365   28.6075 H   0  0  0  0  0  0
   26.9510   15.1188   27.4920 H   0  0  0  0  0  0
   25.8166   16.2235   28.2696 H   0  0  0  0  0  0
   24.5379   17.5986   29.7854 H   0  0  0  0  0  0
   23.4532   18.8535   33.3208 H   0  0  0  0  0  0
   21.2044   19.8418   34.0740 H   0  0  0  0  0  0
   20.4964   23.4694   32.7726 H   0  0  0  0  0  0
   19.9489   22.3651   33.9800 H   0  0  0  0  0  0
   18.2698   22.5367   32.1816 H   0  0  0  0  0  0
   18.8887   20.9035   32.3048 H   0  0  0  0  0  0
   18.4758   20.2038   30.2637 H   0  0  0  0  0  0
   18.5467   19.8584   28.1113 H   0  0  0  0  0  0
   18.5174   21.6322   26.4344 H   0  0  0  0  0  0
   19.3176   22.7680   27.5003 H   0  0  0  0  0  0
   16.2652   20.8870   29.1061 H   0  0  0  0  0  0
   19.9544   20.2288   26.0607 H   0  0  0  0  0  0
   29.4720   17.7859   29.9853 H   0  0  0  0  0  0
  1  2  1  0  0  0
  1 33  1  0  0  0
  1 34  1  0  0  0
  2  3  2  0  0  0
  2  4  1  0  0  0
  3 35  1  0  0  0
  4  5  2  0  0  0
  4 32  1  0  0  0
  5  6  1  0  0  0
  5 36  1  0  0  0
  6  7  2  0  0  0
  6 37  1  0  0  0
  7  8  1  0  0  0
  7 30  1  0  0  0
  8  9  1  0  0  0
  9 10  2  0  0  0
  9 11  1  0  0  0
 11 12  2  0  0  0
 11 29  1  0  0  0
 12 13  1  0  0  0
 12 38  1  0  0  0
 13 14  2  0  0  0
 13 39  1  0  0  0
 14 15  1  0  0  0
 14 29  1  0  0  0
 15 16  1  0  0  0
 15 40  1  0  0  0
 15 41  1  0  0  0
 16 17  1  0  0  0
 16 42  1  0  0  0
 16 43  1  0  0  0
 17 18  2  0  0  0
 17 19  1  0  0  0
 19 20  1  0  0  0
 19 44  1  0  0  0
 20 21  1  0  0  0
 20 26  1  0  0  0
 20 45  1  0  0  0
 21 22  1  0  0  0
 21 46  1  0  0  0
 21 47  1  0  0  0
 22 23  2  0  0  0
 22 24  2  0  0  0
 22 25  1  0  0  0
 25 48  1  0  0  0
 26 27  2  0  0  0
 26 28  1  0  0  0
 28 49  1  0  0  0
 30 31  1  0  0  0
 30 32  2  0  0  0
 32 50  1  0  0  0
M  END
> <s_m_entry_id>
39252

> <s_m_entry_name>
dock_pv.8

> <s_m_Source_Path>
/home/csk/Desktop/cluster/DUD-E-result/try1

> <s_m_Source_File>
dock_pv.maegz

> <i_m_Source_File_Index>
8

> <chembl_id>
CHEMBL3642961

> <chembl_pref_name>
None

> <i_lp_mmshare_version>
53161

> <r_lp_tautomer_probability>
1

> <s_lp_Force_Field>
OPLS_2005

> <r_lp_Energy>
-2.188704

> <b_lp_Chiralities_Consistent>
1

> <s_lp_Variant>
CHEMBL209_lig1242-1

> <s_i_glide_gridfile>
glide-grid_2ayw

> <i_i_glide_lignum>
1874

> <i_i_glide_rotatable_bonds>
14

> <r_i_docking_score>
-8.07230417558673

> <r_i_glide_ligand_efficiency>
-0.252259505487085

> <r_i_glide_ligand_efficiency_sa>
-0.800874007833148

> <r_i_glide_ligand_efficiency_ln>
-1.80760894761509

> <r_i_glide_gscore>
-8.07230417558673

> <r_i_glide_lipo>
-1.62693994626125

> <r_i_glide_hbond>
-1.23087341629285

> <r_i_glide_metal>
0

> <r_i_glide_rewards>
-0.728678646512835

> <r_i_glide_evdw>
-43.1257019042969

> <r_i_glide_ecoul>
-21.0280590057373

> <r_i_glide_erotb>
0.941037406715296

> <r_i_glide_esite>
-0.116355627159646

> <r_i_glide_emodel>
-92.2273715103422

> <r_i_glide_energy>
-64.1537609100342

> <r_i_glide_einternal>
8.10189342498779

> <i_i_glide_confnum>
35

> <i_i_glide_posenum>
221

> <r_i_glide_eff_state_penalty>
0

> <s_user_duplicate_titles>
CHEMBL209_lig1242

> <i_f3d_flags>
0

> <s_m_subgroup_title>
dock_pv

> <s_m_subgroupid>
dock_pv

> <b_m_subgroup_collapsed>
1

$$$$
CHEMBL209_lig1241
                    3D
 Schrodinger Suite 2021-1.
 53 54  0  0  1  0            999 V2000
   19.9450   20.8976   27.3224 C   0  0  0  0  0  0
   20.1801   22.4191   27.5200 C   0  0  1  0  0  0
   20.9581   22.8144   28.8247 C   0  0  0  0  0  0
   21.8407   21.7631   29.4910 C   0  0  0  0  0  0
   21.7887   21.3359   30.8170 C   0  0  0  0  0  0
   22.7527   20.3909   31.1725 C   0  0  0  0  0  0
   23.5855   20.0314   30.1255 C   0  0  0  0  0  0
   23.1532   20.9305   28.6854 S   0  0  0  0  0  0
   24.6775   19.0544   30.1761 C   0  0  0  0  0  0
   24.9598   18.4337   31.2047 O   0  0  0  0  0  0
   25.3253   18.9328   28.9827 O   0  0  0  0  0  0
   26.3910   18.0669   28.8737 C   0  0  0  0  0  0
   26.1669   16.7792   28.3923 C   0  0  0  0  0  0
   27.2232   15.8853   28.2563 C   0  0  0  0  0  0
   28.5440   16.2428   28.5913 C   0  0  0  0  0  0
   28.7501   17.5502   29.0698 C   0  0  0  0  0  0
   27.6963   18.4570   29.2039 C   0  0  0  0  0  0
   28.0321   20.0497   29.7912 Cl  0  0  0  0  0  0
   29.6472   15.2537   28.4451 C   0  0  0  0  0  0
   29.3925   14.0532   28.1909 N   0  0  0  0  0  0
   30.9232   15.7330   28.5898 N   0  0  0  0  0  0
   20.6645   23.2064   26.2725 C   0  0  0  0  0  0
   20.7202   24.4340   26.3397 O   0  0  0  0  0  0
   20.9849   22.5330   25.1510 N   0  0  0  0  0  0
   21.5920   23.0621   23.9152 C   0  0  1  0  0  0
   20.7862   24.2045   23.2376 C   0  0  0  0  0  0
   21.3295   24.6035   21.4608 S   0  0  0  0  0  0
   22.7514   24.9546   21.4351 O   0  0  0  0  0  0
   20.3330   25.4771   20.8398 O   0  0  0  0  0  0
   21.1531   23.0889   20.8125 O   0  0  0  0  0  0
   23.0871   23.4238   24.0761 C   0  0  0  0  0  0
   23.9535   22.9329   23.3912 O   0  0  0  0  0  0
   23.2981   24.3806   25.0218 O   0  0  0  0  0  0
   19.1597   20.7061   26.5910 H   0  0  0  0  0  0
   20.8386   20.3755   26.9809 H   0  0  0  0  0  0
   19.6249   20.4234   28.2508 H   0  0  0  0  0  0
   19.1744   22.8187   27.6630 H   0  0  0  0  0  0
   21.5556   23.7152   28.6732 H   0  0  0  0  0  0
   20.2160   23.1291   29.5597 H   0  0  0  0  0  0
   21.0619   21.7126   31.5212 H   0  0  0  0  0  0
   22.8307   19.9678   32.1645 H   0  0  0  0  0  0
   25.1677   16.4636   28.1322 H   0  0  0  0  0  0
   26.9965   14.8955   27.8866 H   0  0  0  0  0  0
   29.7318   17.8787   29.3687 H   0  0  0  0  0  0
   30.2447   13.5219   28.0734 H   0  0  0  0  0  0
   31.6859   15.1349   28.2764 H   0  0  0  0  0  0
   31.1134   16.7290   28.6437 H   0  0  0  0  0  0
   20.8423   21.5313   25.1514 H   0  0  0  0  0  0
   21.5680   22.2085   23.2355 H   0  0  0  0  0  0
   20.8609   25.1350   23.8004 H   0  0  0  0  0  0
   19.7299   23.9535   23.1810 H   0  0  0  0  0  0
   20.2000   22.9331   20.5913 H   0  0  0  0  0  0
   24.2294   24.6072   25.0583 H   0  0  0  0  0  0
  1  2  1  0  0  0
  1 34  1  0  0  0
  1 35  1  0  0  0
  1 36  1  0  0  0
  2  3  1  0  0  0
  2 22  1  0  0  0
  2 37  1  0  0  0
  3  4  1  0  0  0
  3 38  1  0  0  0
  3 39  1  0  0  0
  4  5  2  0  0  0
  4  8  1  0  0  0
  5  6  1  0  0  0
  5 40  1  0  0  0
  6  7  2  0  0  0
  6 41  1  0  0  0
  7  8  1  0  0  0
  7  9  1  0  0  0
  9 10  2  0  0  0
  9 11  1  0  0  0
 11 12  1  0  0  0
 12 13  2  0  0  0
 12 17  1  0  0  0
 13 14  1  0  0  0
 13 42  1  0  0  0
 14 15  2  0  0  0
 14 43  1  0  0  0
 15 16  1  0  0  0
 15 19  1  0  0  0
 16 17  2  0  0  0
 16 44  1  0  0  0
 17 18  1  0  0  0
 19 20  2  0  0  0
 19 21  1  0  0  0
 20 45  1  0  0  0
 21 46  1  0  0  0
 21 47  1  0  0  0
 22 23  2  0  0  0
 22 24  1  0  0  0
 24 25  1  0  0  0
 24 48  1  0  0  0
 25 26  1  0  0  0
 25 31  1  0  0  0
 25 49  1  0  0  0
 26 27  1  0  0  0
 26 50  1  0  0  0
 26 51  1  0  0  0
 27 28  2  0  0  0
 27 29  2  0  0  0
 27 30  1  0  0  0
 30 52  1  0  0  0
 31 32  2  0  0  0
 31 33  1  0  0  0
 33 53  1  0  0  0
M  END
> <s_m_entry_id>
39253

> <s_m_entry_name>
dock_pv.9

> <s_m_Source_Path>
/home/csk/Desktop/cluster/DUD-E-result/try1

> <s_m_Source_File>
dock_pv.maegz

> <i_m_Source_File_Index>
9

> <chembl_id>
CHEMBL3642960

> <chembl_pref_name>
None

> <i_lp_mmshare_version>
53161

> <r_lp_tautomer_probability>
1

> <s_lp_Force_Field>
OPLS_2005

> <r_lp_Energy>
-5.410765

> <b_lp_Chiralities_Consistent>
1

> <s_lp_Variant>
CHEMBL209_lig1241-2

> <s_i_glide_gridfile>
glide-grid_2ayw

> <i_i_glide_lignum>
1873

> <i_i_glide_rotatable_bonds>
14

> <r_i_docking_score>
-7.82225312460324

> <r_i_glide_ligand_efficiency>
-0.237037973472825

> <r_i_glide_ligand_efficiency_sa>
-0.760307436540587

> <r_i_glide_ligand_efficiency_ln>
-1.73962859345267

> <r_i_glide_gscore>
-7.82225312460324

> <r_i_glide_lipo>
-2.32078101380055

> <r_i_glide_hbond>
-0.598149432932901

> <r_i_glide_metal>
0

> <r_i_glide_rewards>
-0.770699787828562

> <r_i_glide_evdw>
-46.0171165466309

> <r_i_glide_ecoul>
-17.3184585571289

> <r_i_glide_erotb>
0.841974514557232

> <r_i_glide_esite>
-0.0759727936975802

> <r_i_glide_emodel>
-87.8640688332879

> <r_i_glide_energy>
-63.3355751037598

> <r_i_glide_einternal>
8.65237522125244

> <i_i_glide_confnum>
12

> <i_i_glide_posenum>
77

> <r_i_glide_eff_state_penalty>
0

> <s_user_duplicate_titles>
CHEMBL209_lig1241

> <i_f3d_flags>
0

> <s_m_subgroup_title>
dock_pv

> <s_m_subgroupid>
dock_pv

> <b_m_subgroup_collapsed>
1

$$$$
CHEMBL209_lig983
                    3D
 Schrodinger Suite 2021-1.
 53 55  0  0  1  0            999 V2000
   29.3304   21.1702   31.5809 C   0  0  1  0  0  0
   27.2941   20.4741   30.6759 N   0  0  0  0  0  0
   29.5853   20.7265   33.0522 C   0  0  0  0  0  0
   27.9547   21.5022   31.3909 O   0  0  0  0  0  0
   28.1138   19.5861   30.2909 C   0  0  0  0  0  0
   30.1786   22.4410   31.2676 C   0  0  0  0  0  0
   29.5266   19.9378   30.6798 C   0  0  0  0  0  0
   29.6319   15.2765   28.2252 C   0  0  0  0  0  0
   30.2643   17.5321   37.4215 C   0  0  0  0  0  0
   28.4981   20.5331   33.8294 N   0  0  0  0  0  0
   27.7848   18.3461   29.5665 C   0  0  0  0  0  0
   30.0625   23.0510   29.8632 C   0  0  0  0  0  0
   28.5422   16.2289   28.5718 C   0  0  0  0  0  0
   28.7992   17.4434   29.2267 C   0  0  0  0  0  0
   29.2145   18.4531   36.8883 C   0  0  0  0  0  0
   31.3428   17.3330   36.8002 N   0  0  0  0  0  0
   29.3686   14.1330   27.7910 N   0  0  0  0  0  0
   30.7487   20.5330   33.4155 O   0  0  0  0  0  0
   28.4085   19.9387   35.0996 C   0  0  0  0  0  0
   29.3787   19.0754   35.6348 C   0  0  0  0  0  0
   29.9530   22.3610   28.8491 O   0  0  0  0  0  0
   30.9125   15.7330   28.4052 N   0  0  0  0  0  0
   29.9530   16.9330   38.6172 N   0  0  0  0  0  0
   30.1133   24.3964   29.8937 O   0  0  0  0  0  0
   26.4631   18.0243   29.2362 C   0  0  0  0  0  0
   27.1999   15.9416   28.2629 C   0  0  0  0  0  0
   28.0242   18.7369   37.5890 C   0  0  0  0  0  0
   26.1749   16.8254   28.5908 C   0  0  0  0  0  0
   27.0512   19.5849   37.0643 C   0  0  0  0  0  0
   27.2405   20.1795   35.8215 C   0  0  0  0  0  0
   30.0641   25.1450   28.6875 C   0  0  0  0  0  0
   29.9264   23.2192   31.9891 H   0  0  0  0  0  0
   31.2340   22.2243   31.4276 H   0  0  0  0  0  0
   30.1288   20.1330   29.7959 H   0  0  0  0  0  0
   29.9921   19.0951   31.1968 H   0  0  0  0  0  0
   27.6209   20.8271   33.4259 H   0  0  0  0  0  0
   29.8157   17.6758   29.4992 H   0  0  0  0  0  0
   31.9366   16.6876   37.2978 H   0  0  0  0  0  0
   30.2193   13.6264   27.5770 H   0  0  0  0  0  0
   30.2637   18.8524   35.0574 H   0  0  0  0  0  0
   31.6704   15.1656   28.0224 H   0  0  0  0  0  0
   31.1177   16.7089   28.5910 H   0  0  0  0  0  0
   30.5726   16.2228   38.9910 H   0  0  0  0  0  0
   29.0307   17.0133   39.0121 H   0  0  0  0  0  0
   25.6482   18.6880   29.4892 H   0  0  0  0  0  0
   26.9341   15.0195   27.7649 H   0  0  0  0  0  0
   27.8243   18.3036   38.5572 H   0  0  0  0  0  0
   25.1530   16.5727   28.3503 H   0  0  0  0  0  0
   26.1458   19.7769   37.6215 H   0  0  0  0  0  0
   26.4704   20.8264   35.4259 H   0  0  0  0  0  0
   30.0840   26.2115   28.9113 H   0  0  0  0  0  0
   30.9191   24.9154   28.0498 H   0  0  0  0  0  0
   29.1530   24.9330   28.1282 H   0  0  0  0  0  0
  1  3  1  0  0  0
  1  4  1  0  0  0
  1  6  1  0  0  0
  1  7  1  0  0  0
  2  4  1  0  0  0
  2  5  2  0  0  0
  3 10  1  0  0  0
  3 18  2  0  0  0
  5  7  1  0  0  0
  5 11  1  0  0  0
  6 12  1  0  0  0
  6 32  1  0  0  0
  6 33  1  0  0  0
  7 34  1  0  0  0
  7 35  1  0  0  0
  8 13  1  0  0  0
  8 17  2  0  0  0
  8 22  1  0  0  0
  9 15  1  0  0  0
  9 16  2  0  0  0
  9 23  1  0  0  0
 10 19  1  0  0  0
 10 36  1  0  0  0
 11 14  2  0  0  0
 11 25  1  0  0  0
 12 21  2  0  0  0
 12 24  1  0  0  0
 13 14  1  0  0  0
 13 26  2  0  0  0
 14 37  1  0  0  0
 15 20  2  0  0  0
 15 27  1  0  0  0
 16 38  1  0  0  0
 17 39  1  0  0  0
 19 20  1  0  0  0
 19 30  2  0  0  0
 20 40  1  0  0  0
 22 41  1  0  0  0
 22 42  1  0  0  0
 23 43  1  0  0  0
 23 44  1  0  0  0
 24 31  1  0  0  0
 25 28  2  0  0  0
 25 45  1  0  0  0
 26 28  1  0  0  0
 26 46  1  0  0  0
 27 29  2  0  0  0
 27 47  1  0  0  0
 28 48  1  0  0  0
 29 30  1  0  0  0
 29 49  1  0  0  0
 30 50  1  0  0  0
 31 51  1  0  0  0
 31 52  1  0  0  0
 31 53  1  0  0  0
M  END
> <s_m_entry_id>
39254

> <s_m_entry_name>
dock_pv.10

> <s_m_Source_Path>
/home/csk/Desktop/cluster/DUD-E-result/try1

> <s_m_Source_File>
dock_pv.maegz

> <i_m_Source_File_Index>
10

> <chembl_id>
CHEMBL93445

> <chembl_pref_name>
None

> <i_lp_mmshare_version>
53161

> <r_lp_tautomer_probability>
1

> <s_lp_Force_Field>
OPLS_2005

> <r_lp_Energy>
21.41301

> <b_lp_Chiralities_Consistent>
1

> <s_lp_Variant>
CHEMBL209_lig983-2

> <s_i_glide_gridfile>
glide-grid_2ayw

> <i_i_glide_lignum>
1494

> <i_i_glide_rotatable_bonds>
9

> <r_i_docking_score>
-7.77762470739602

> <r_i_glide_ligand_efficiency>
-0.25089111959342

> <r_i_glide_ligand_efficiency_sa>
-0.788144508045425

> <r_i_glide_ligand_efficiency_ln>
-1.75409272708966

> <r_i_glide_gscore>
-7.77762470739602

> <r_i_glide_lipo>
-1.78951179361707

> <r_i_glide_hbond>
-1.29573555029918

> <r_i_glide_metal>
0

> <r_i_glide_rewards>
-0.929314163143622

> <r_i_glide_evdw>
-36.958080291748

> <r_i_glide_ecoul>
-16.5110378265381

> <r_i_glide_erotb>
0.666071917167468

> <r_i_glide_esite>
-0.104575428935499

> <r_i_glide_emodel>
-75.3235348065422

> <r_i_glide_energy>
-53.4691181182861

> <r_i_glide_einternal>
5.7626485824585

> <i_i_glide_confnum>
4

> <i_i_glide_posenum>
393

> <r_i_glide_eff_state_penalty>
0

> <s_user_duplicate_titles>
CHEMBL209_lig983

> <i_f3d_flags>
0

> <s_m_subgroup_title>
dock_pv

> <s_m_subgroupid>
dock_pv

> <b_m_subgroup_collapsed>
1

$$$$
CHEMBL209_lig856
                    3D
 Schrodinger Suite 2021-1.
 52 55  0  0  1  0            999 V2000
   16.9414   22.5689   28.3978 N   0  0  0  0  0  0
   17.3890   21.8534   29.5796 C   0  0  0  0  0  0
   18.8660   21.5015   29.4996 C   0  0  0  0  0  0
   19.7787   22.1142   30.3612 C   0  0  0  0  0  0
   21.1197   21.7360   30.3456 C   0  0  0  0  0  0
   21.5528   20.7341   29.4651 C   0  0  0  0  0  0
   22.8505   20.1959   29.4580 N   0  0  0  0  0  0
   23.9961   20.6549   30.0111 C   0  0  0  0  0  0
   24.1117   21.7482   30.5673 O   0  0  0  0  0  0
   25.1989   19.7358   29.8868 C   0  0  0  0  0  0
   26.3582   19.9798   30.6334 C   0  0  0  0  0  0
   27.5201   19.2040   30.5052 C   0  0  0  0  0  0
   28.6619   19.4904   31.2815 N   0  0  0  0  0  0
   29.1508   20.6793   31.8396 C   0  0  0  0  0  0
   28.6099   21.8730   31.4701 N   0  0  0  0  0  0
   29.1553   22.9894   32.0180 C   0  0  0  0  0  0
   30.2239   22.9356   32.9146 C   0  0  0  0  0  0
   30.7173   21.6683   33.2286 C   0  0  0  0  0  0
   30.1979   20.5331   32.6927 N   0  0  0  0  0  0
   27.5141   18.0946   29.6002 C   0  0  0  0  0  0
   28.6422   17.2415   29.3909 C   0  0  0  0  0  0
   28.5997   16.1606   28.4936 C   0  0  0  0  0  0
   27.4081   15.9387   27.7913 C   0  0  0  0  0  0
   26.3005   16.7503   27.9476 C   0  0  0  0  0  0
   26.3319   17.8333   28.8453 C   0  0  0  0  0  0
   25.2046   18.6642   28.9912 C   0  0  0  0  0  0
   29.7467   15.2475   28.2676 C   0  0  0  0  0  0
   29.5531   14.1062   27.7910 N   0  0  0  0  0  0
   30.9849   15.7330   28.5909 N   0  0  0  0  0  0
   20.6399   20.1405   28.5887 C   0  0  0  0  0  0
   19.3029   20.5274   28.6011 C   0  0  0  0  0  0
   15.9449   22.7088   28.4723 H   0  0  0  0  0  0
   17.3565   23.4899   28.4036 H   0  0  0  0  0  0
   16.8118   20.9330   29.6842 H   0  0  0  0  0  0
   17.1840   22.4510   30.4692 H   0  0  0  0  0  0
   19.4476   22.8640   31.0648 H   0  0  0  0  0  0
   21.7901   22.1995   31.0520 H   0  0  0  0  0  0
   22.9168   19.3060   28.9965 H   0  0  0  0  0  0
   26.3494   20.7906   31.3466 H   0  0  0  0  0  0
   29.2302   18.6869   31.5120 H   0  0  0  0  0  0
   28.7199   23.9340   31.7264 H   0  0  0  0  0  0
   30.6462   23.8311   33.3464 H   0  0  0  0  0  0
   31.5404   21.5473   33.9182 H   0  0  0  0  0  0
   29.5466   17.4343   29.9501 H   0  0  0  0  0  0
   27.3258   15.1231   27.0870 H   0  0  0  0  0  0
   25.4081   16.5512   27.3715 H   0  0  0  0  0  0
   24.3532   18.4579   28.3633 H   0  0  0  0  0  0
   30.4322   13.6236   27.6429 H   0  0  0  0  0  0
   31.7853   15.1951   28.2654 H   0  0  0  0  0  0
   31.1303   16.7261   28.7484 H   0  0  0  0  0  0
   20.9477   19.3564   27.9120 H   0  0  0  0  0  0
   18.5993   20.0514   27.9339 H   0  0  0  0  0  0
  1  2  1  0  0  0
  1 32  1  0  0  0
  1 33  1  0  0  0
  2  3  1  0  0  0
  2 34  1  0  0  0
  2 35  1  0  0  0
  3  4  1  0  0  0
  3 31  2  0  0  0
  4  5  2  0  0  0
  4 36  1  0  0  0
  5  6  1  0  0  0
  5 37  1  0  0  0
  6  7  1  0  0  0
  6 30  2  0  0  0
  7  8  1  0  0  0
  7 38  1  0  0  0
  8  9  2  0  0  0
  8 10  1  0  0  0
 10 11  1  0  0  0
 10 26  2  0  0  0
 11 12  2  0  0  0
 11 39  1  0  0  0
 12 13  1  0  0  0
 12 20  1  0  0  0
 13 14  1  0  0  0
 13 40  1  0  0  0
 14 15  1  0  0  0
 14 19  2  0  0  0
 15 16  2  0  0  0
 16 17  1  0  0  0
 16 41  1  0  0  0
 17 18  2  0  0  0
 17 42  1  0  0  0
 18 19  1  0  0  0
 18 43  1  0  0  0
 20 21  1  0  0  0
 20 25  2  0  0  0
 21 22  2  0  0  0
 21 44  1  0  0  0
 22 23  1  0  0  0
 22 27  1  0  0  0
 23 24  2  0  0  0
 23 45  1  0  0  0
 24 25  1  0  0  0
 24 46  1  0  0  0
 25 26  1  0  0  0
 26 47  1  0  0  0
 27 28  2  0  0  0
 27 29  1  0  0  0
 28 48  1  0  0  0
 29 49  1  0  0  0
 29 50  1  0  0  0
 30 31  1  0  0  0
 30 51  1  0  0  0
 31 52  1  0  0  0
M  END
> <s_m_entry_id>
39255

> <s_m_entry_name>
dock_pv.11

> <s_m_Source_Path>
/home/csk/Desktop/cluster/DUD-E-result/try1

> <s_m_Source_File>
dock_pv.maegz

> <i_m_Source_File_Index>
11

> <chembl_id>
CHEMBL104166

> <chembl_pref_name>
None

> <i_lp_mmshare_version>
53161

> <r_lp_tautomer_probability>
0.999999987636

> <s_lp_Force_Field>
OPLS_2005

> <r_lp_Energy>
9.295533

> <b_lp_Chiralities_Consistent>
1

> <s_lp_Variant>
CHEMBL209_lig856-1

> <s_i_glide_gridfile>
glide-grid_2ayw

> <i_i_glide_lignum>
1297

> <i_i_glide_rotatable_bonds>
7

> <r_i_docking_score>
-7.76626541132199

> <r_i_glide_ligand_efficiency>
-0.250524690687806

> <r_i_glide_ligand_efficiency_sa>
-0.78699341537217

> <r_i_glide_ligand_efficiency_ln>
-1.75153085770435

> <r_i_glide_gscore>
-7.76626541132199

> <r_i_glide_lipo>
-2.45838546283371

> <r_i_glide_hbond>
-1.13441214452853

> <r_i_glide_metal>
0

> <r_i_glide_rewards>
-0.703985541045117

> <r_i_glide_evdw>
-39.2695693969727

> <r_i_glide_ecoul>
-13.2916822433472

> <r_i_glide_erotb>
0.582101114281707

> <r_i_glide_esite>
-0.0943525708456297

> <r_i_glide_emodel>
-73.196844067352

> <r_i_glide_energy>
-52.5612516403198

> <r_i_glide_einternal>
1.87437677383423

> <i_i_glide_confnum>
17

> <i_i_glide_posenum>
186

> <r_i_glide_eff_state_penalty>
0

> <s_user_duplicate_titles>
CHEMBL209_lig856

> <i_f3d_flags>
0

> <s_m_subgroup_title>
dock_pv

> <s_m_subgroupid>
dock_pv

> <b_m_subgroup_collapsed>
1

$$$$
CHEMBL209_lig1004
                    3D
 Schrodinger Suite 2021-1.
 51 54  0  0  1  0            999 V2000
   25.5688   19.0095   29.7910 C   0  0  0  0  0  0
   26.8999   18.7989   30.1796 C   0  0  0  0  0  0
   24.4718   19.9452   30.1816 C   0  0  0  0  0  0
   25.2612   18.0857   28.8333 N   0  0  0  0  0  0
   27.3717   17.6657   29.4064 C   0  0  0  0  0  0
   26.2920   17.2326   28.5996 C   0  0  0  0  0  0
   24.0003   20.0920   31.4935 C   0  0  0  0  0  0
   28.5878   16.9601   29.3068 C   0  0  0  0  0  0
   22.8613   20.8708   31.7400 C   0  0  0  0  0  0
   29.9530   15.0805   28.2594 C   0  0  0  0  0  0
   28.6965   15.8528   28.4384 C   0  0  0  0  0  0
   23.7962   20.5934   29.1396 C   0  0  0  0  0  0
   22.6321   21.3293   29.3664 C   0  0  0  0  0  0
   27.7240   19.5512   31.2143 C   0  0  0  0  0  0
   21.4232   21.0031   27.0912 C   0  0  0  0  0  0
   22.1815   21.4775   30.6812 C   0  0  0  0  0  0
   29.9344   13.9165   27.7910 N   0  0  0  0  0  0
   26.3530   16.1330   27.7593 C   0  0  0  0  0  0
   27.5623   15.4635   27.7081 C   0  0  0  0  0  0
   22.1165   20.0856   26.6555 O   0  0  0  0  0  0
   21.8702   21.9770   28.2023 C   0  0  0  0  0  0
   31.1078   15.7330   28.5910 N   0  0  0  0  0  0
   22.1769   21.0801   33.5080 Br  0  0  0  0  0  0
   24.6049   19.4184   32.5238 O   0  0  0  0  0  0
   28.5222   20.7344   30.6702 C   0  0  0  0  0  0
   20.2006   21.3330   26.5910 O   0  0  0  0  0  0
   29.2186   20.6447   29.4589 C   0  0  0  0  0  0
   28.5918   21.9119   31.4215 C   0  0  0  0  0  0
   29.3320   22.9968   30.9596 C   0  0  0  0  0  0
   29.9530   21.7330   28.9910 C   0  0  0  0  0  0
   30.0034   22.9050   29.7427 C   0  0  0  0  0  0
   24.3530   18.0351   28.3975 H   0  0  0  0  0  0
   29.4323   17.2732   29.9043 H   0  0  0  0  0  0
   24.1465   20.4757   28.1249 H   0  0  0  0  0  0
   27.0885   19.9018   32.0264 H   0  0  0  0  0  0
   28.4340   18.8710   31.6873 H   0  0  0  0  0  0
   21.2908   22.0531   30.8884 H   0  0  0  0  0  0
   30.8758   13.5653   27.6397 H   0  0  0  0  0  0
   25.5076   15.8177   27.1641 H   0  0  0  0  0  0
   27.6037   14.6106   27.0499 H   0  0  0  0  0  0
   21.0054   22.5278   28.5760 H   0  0  0  0  0  0
   22.5219   22.7164   27.7368 H   0  0  0  0  0  0
   31.9662   15.2812   28.2863 H   0  0  0  0  0  0
   31.1307   16.7383   28.7276 H   0  0  0  0  0  0
   25.2372   18.7705   32.2039 H   0  0  0  0  0  0
   19.9530   20.7422   25.8688 H   0  0  0  0  0  0
   29.1967   19.7380   28.8729 H   0  0  0  0  0  0
   28.0733   21.9900   32.3663 H   0  0  0  0  0  0
   29.3812   23.9066   31.5398 H   0  0  0  0  0  0
   30.4793   21.6656   28.0499 H   0  0  0  0  0  0
   30.5709   23.7491   29.3790 H   0  0  0  0  0  0
  1  2  2  0  0  0
  1  3  1  0  0  0
  1  4  1  0  0  0
  2  5  1  0  0  0
  2 14  1  0  0  0
  3  7  2  0  0  0
  3 12  1  0  0  0
  4  6  1  0  0  0
  4 32  1  0  0  0
  5  8  2  0  0  0
  5  6  1  0  0  0
  6 18  2  0  0  0
  7  9  1  0  0  0
  7 24  1  0  0  0
  8 11  1  0  0  0
  8 33  1  0  0  0
  9 23  1  0  0  0
  9 16  2  0  0  0
 10 11  1  0  0  0
 10 17  2  0  0  0
 10 22  1  0  0  0
 11 19  2  0  0  0
 12 13  2  0  0  0
 12 34  1  0  0  0
 13 16  1  0  0  0
 13 21  1  0  0  0
 14 25  1  0  0  0
 14 35  1  0  0  0
 14 36  1  0  0  0
 15 21  1  0  0  0
 15 20  2  0  0  0
 15 26  1  0  0  0
 16 37  1  0  0  0
 17 38  1  0  0  0
 18 19  1  0  0  0
 18 39  1  0  0  0
 19 40  1  0  0  0
 21 41  1  0  0  0
 21 42  1  0  0  0
 22 43  1  0  0  0
 22 44  1  0  0  0
 24 45  1  0  0  0
 25 27  1  0  0  0
 25 28  2  0  0  0
 26 46  1  0  0  0
 27 30  2  0  0  0
 27 47  1  0  0  0
 28 29  1  0  0  0
 28 48  1  0  0  0
 29 31  2  0  0  0
 29 49  1  0  0  0
 30 31  1  0  0  0
 30 50  1  0  0  0
 31 51  1  0  0  0
M  END
> <s_m_entry_id>
39256

> <s_m_entry_name>
dock_pv.12

> <s_m_Source_Path>
/home/csk/Desktop/cluster/DUD-E-result/try1

> <s_m_Source_File>
dock_pv.maegz

> <i_m_Source_File_Index>
12

> <chembl_id>
CHEMBL50924

> <chembl_pref_name>
None

> <i_lp_mmshare_version>
53161

> <r_lp_tautomer_probability>
0.999999999997365

> <s_lp_Force_Field>
OPLS_2005

> <r_lp_Energy>
12.81757

> <b_lp_Chiralities_Consistent>
1

> <s_lp_Variant>
CHEMBL209_lig1004-1

> <s_i_glide_gridfile>
glide-grid_2ayw

> <i_i_glide_lignum>
1526

> <i_i_glide_rotatable_bonds>
8

> <r_i_docking_score>
-7.7404130898652

> <r_i_glide_ligand_efficiency>
-0.249690744834361

> <r_i_glide_ligand_efficiency_sa>
-0.784373674006016

> <r_i_glide_ligand_efficiency_ln>
-1.74570036693734

> <r_i_glide_gscore>
-7.7404130898652

> <r_i_glide_lipo>
-2.92109182166667

> <r_i_glide_hbond>
-1.09611145342098

> <r_i_glide_metal>
0

> <r_i_glide_rewards>
-0.333444466462666

> <r_i_glide_evdw>
-37.3117141723633

> <r_i_glide_ecoul>
-12.4980134963989

> <r_i_glide_erotb>
0.442812266022548

> <r_i_glide_esite>
-0.0922898812594302

> <r_i_glide_emodel>
-68.0738160124508

> <r_i_glide_energy>
-49.8097276687622

> <r_i_glide_einternal>
3.35999226570129

> <i_i_glide_confnum>
34

> <i_i_glide_posenum>
16

> <r_i_glide_eff_state_penalty>
0

> <s_user_duplicate_titles>
CHEMBL209_lig1004

> <i_f3d_flags>
0

> <s_m_subgroup_title>
dock_pv

> <s_m_subgroupid>
dock_pv

> <b_m_subgroup_collapsed>
1

$$$$
CHEMBL209_lig581
                    3D
 Schrodinger Suite 2021-1.
 51 55  0  0  1  0            999 V2000
   24.1340   20.3021   30.3413 N   0  0  0  0  0  0
   24.2695   21.6573   30.4226 C   0  0  0  0  0  0
   21.3860   22.9006   27.1235 C   0  0  0  0  0  0
   27.9088   17.1077   28.7966 C   0  0  0  0  0  0
   22.2533   23.8838   26.7032 N   0  0  0  0  0  0
   20.9562   22.2188   26.0012 C   0  0  0  0  0  0
   21.5899   22.7954   24.8573 C   0  0  0  0  0  0
   22.0041   21.8630   29.3332 N   0  0  1  0  0  0
   28.7937   16.2006   28.1496 C   0  0  0  0  0  0
   26.5808   16.6213   28.9965 C   0  0  0  0  0  0
   22.4208   23.8479   25.3347 C   0  0  0  0  0  0
   28.4331   14.9502   27.7907 N   0  0  0  0  0  0
   23.2882   22.5274   29.5915 C   0  0  0  0  0  0
   26.1966   15.3788   28.5917 N   0  0  0  0  0  0
   28.2484   18.4052   29.2638 C   0  0  0  0  0  0
   25.0567   19.4337   31.0871 C   0  0  0  0  0  0
   27.1559   14.6021   28.0451 C   0  0  0  0  0  0
   21.0504   22.7034   28.5950 C   0  0  0  0  0  0
   22.9757   19.6360   29.7209 C   0  0  0  0  0  0
   25.6526   17.4142   29.7047 C   0  0  0  0  0  0
   25.1751   22.1954   31.0586 O   0  0  0  0  0  0
   21.5531   22.5325   23.4830 C   0  0  0  0  0  0
   26.0227   18.6656   30.1980 C   0  0  0  0  0  0
   23.2094   24.6224   24.4765 C   0  0  0  0  0  0
   22.1577   20.5253   28.7730 C   0  0  0  0  0  0
   30.0974   16.5322   27.8047 N   0  0  0  0  0  0
   22.3497   23.2849   22.6259 C   0  0  0  0  0  0
   27.3091   19.1565   29.9693 C   0  0  0  0  0  0
   23.1535   24.3114   23.1161 C   0  0  0  0  0  0
   22.3473   22.9202   20.9402 Cl  0  0  0  0  0  0
   22.6957   24.5175   27.3518 H   0  0  0  0  0  0
   20.2666   21.3871   26.0104 H   0  0  0  0  0  0
   23.7933   22.8163   28.6696 H   0  0  0  0  0  0
   23.1179   23.4467   30.1541 H   0  0  0  0  0  0
   29.2477   18.7867   29.1134 H   0  0  0  0  0  0
   25.6245   19.9782   31.8445 H   0  0  0  0  0  0
   24.4664   18.7105   31.6534 H   0  0  0  0  0  0
   26.8817   13.5916   27.7922 H   0  0  0  0  0  0
   20.9448   23.6635   29.1024 H   0  0  0  0  0  0
   20.0729   22.2258   28.6806 H   0  0  0  0  0  0
   22.3519   19.3264   30.5549 H   0  0  0  0  0  0
   23.2811   18.7404   29.1850 H   0  0  0  0  0  0
   24.6702   17.0079   29.9032 H   0  0  0  0  0  0
   20.9368   21.7351   23.0958 H   0  0  0  0  0  0
   23.8448   25.4169   24.8409 H   0  0  0  0  0  0
   21.1869   20.0722   28.5644 H   0  0  0  0  0  0
   22.7021   20.6306   27.8324 H   0  0  0  0  0  0
   30.5708   17.3216   28.2333 H   0  0  0  0  0  0
   30.6268   15.8312   27.2966 H   0  0  0  0  0  0
   27.5933   20.1218   30.3636 H   0  0  0  0  0  0
   23.7612   24.8766   22.4237 H   0  0  0  0  0  0
  1  2  1  0  0  0
  1 16  1  0  0  0
  1 19  1  0  0  0
  2 13  1  0  0  0
  2 21  2  0  0  0
  3 18  1  0  0  0
  3  5  1  0  0  0
  3  6  2  0  0  0
  4 15  1  0  0  0
  4  9  2  0  0  0
  4 10  1  0  0  0
  5 11  1  0  0  0
  5 31  1  0  0  0
  6  7  1  0  0  0
  6 32  1  0  0  0
  7 22  1  0  0  0
  7 11  2  0  0  0
  8 25  1  0  0  0
  8 18  1  0  0  0
  8 13  1  0  0  0
  9 12  1  0  0  0
  9 26  1  0  0  0
 10 20  1  0  0  0
 10 14  2  0  0  0
 11 24  1  0  0  0
 12 17  2  0  0  0
 13 33  1  0  0  0
 13 34  1  0  0  0
 14 17  1  0  0  0
 15 28  2  0  0  0
 15 35  1  0  0  0
 16 23  1  0  0  0
 16 36  1  0  0  0
 16 37  1  0  0  0
 17 38  1  0  0  0
 18 39  1  0  0  0
 18 40  1  0  0  0
 19 25  1  0  0  0
 19 41  1  0  0  0
 19 42  1  0  0  0
 20 23  2  0  0  0
 20 43  1  0  0  0
 22 27  2  0  0  0
 22 44  1  0  0  0
 23 28  1  0  0  0
 24 29  2  0  0  0
 24 45  1  0  0  0
 25 46  1  0  0  0
 25 47  1  0  0  0
 26 48  1  0  0  0
 26 49  1  0  0  0
 27 30  1  0  0  0
 27 29  1  0  0  0
 28 50  1  0  0  0
 29 51  1  0  0  0
M  END
> <s_m_entry_id>
39257

> <s_m_entry_name>
dock_pv.13

> <s_m_Source_Path>
/home/csk/Desktop/cluster/DUD-E-result/try1

> <s_m_Source_File>
dock_pv.maegz

> <i_m_Source_File_Index>
13

> <chembl_id>
CHEMBL172928

> <chembl_pref_name>
None

> <i_lp_mmshare_version>
53161

> <r_lp_tautomer_probability>
0.999978000241998

> <s_lp_Force_Field>
OPLS_2005

> <r_lp_Energy>
24.539926

> <b_lp_Chiralities_Consistent>
1

> <s_lp_Variant>
CHEMBL209_lig581-1

> <s_i_glide_gridfile>
glide-grid_2ayw

> <i_i_glide_lignum>
932

> <i_i_glide_rotatable_bonds>
4

> <r_i_docking_score>
-7.69808311169677

> <r_i_glide_ligand_efficiency>
-0.256602770389892

> <r_i_glide_ligand_efficiency_sa>
-0.797324468369335

> <r_i_glide_ligand_efficiency_ln>
-1.74908836031106

> <r_i_glide_gscore>
-7.69808311169677

> <r_i_glide_lipo>
-2.82340454594558

> <r_i_glide_hbond>
-0.889735638108823

> <r_i_glide_metal>
0

> <r_i_glide_rewards>
-0.948217786676257

> <r_i_glide_evdw>
-40.7525749206543

> <r_i_glide_ecoul>
-8.95859527587891

> <r_i_glide_erotb>
0.446995514493779

> <r_i_glide_esite>
-0.102302618045341

> <r_i_glide_emodel>
-67.0343223192736

> <r_i_glide_energy>
-49.7111701965332

> <r_i_glide_einternal>
9.46181964874268

> <i_i_glide_confnum>
9

> <i_i_glide_posenum>
21

> <r_i_glide_eff_state_penalty>
0

> <s_user_duplicate_titles>
CHEMBL209_lig581

> <i_f3d_flags>
0

> <s_m_subgroup_title>
dock_pv

> <s_m_subgroupid>
dock_pv

> <b_m_subgroup_collapsed>
1

$$$$
CHEMBL209_lig912
                    3D
 Schrodinger Suite 2021-1.
 46 48  0  0  1  0            999 V2000
   22.3497   25.7609   20.1181 N   0  0  0  0  0  0
   22.0551   24.4921   21.9883 C   0  0  0  0  0  0
   28.6489   16.1343   28.5892 C   0  0  0  0  0  0
   22.5937   22.2882   27.3530 C   0  0  0  0  0  0
   28.0168   17.3394   29.2067 C   0  0  0  0  0  0
   21.1537   24.1175   21.0244 N   0  0  0  0  0  0
   26.0056   18.6996   29.6335 C   0  0  0  0  0  0
   26.6322   17.5742   29.0770 C   0  0  0  0  0  0
   21.3806   24.9039   19.9293 C   0  0  0  0  0  0
   22.7519   25.5245   21.3552 C   0  0  0  0  0  0
   22.1725   23.8938   23.3545 C   0  0  0  0  0  0
   22.4211   22.8344   25.9512 C   0  0  0  0  0  0
   27.9532   15.1989   28.1119 N   0  0  0  0  0  0
   26.7859   19.6123   30.3595 C   0  0  0  0  0  0
   24.5603   18.8852   29.3673 C   0  0  0  0  0  0
   23.0624   22.9942   28.2481 O   0  0  0  0  0  0
   28.7562   18.2820   29.9440 C   0  0  0  0  0  0
   23.1533   23.9652   25.5646 C   0  0  0  0  0  0
   21.5538   22.2431   25.0218 C   0  0  0  0  0  0
   23.0334   24.4849   24.2790 C   0  0  0  0  0  0
   21.4389   22.7644   23.7338 C   0  0  0  0  0  0
   28.1516   19.4016   30.5069 C   0  0  0  0  0  0
   22.2585   20.9952   27.5562 N   0  0  0  0  0  0
   23.9507   20.0623   29.1229 C   0  0  0  0  0  0
   30.0201   16.1329   28.5906 N   0  0  0  0  0  0
   26.2361   20.7109   30.9687 O   0  0  0  0  0  0
   22.4751   20.2659   28.8103 C   0  0  0  0  0  0
   20.4479   23.3973   21.0976 H   0  0  0  0  0  0
   26.0267   16.8774   28.5122 H   0  0  0  0  0  0
   20.7852   24.7840   19.0369 H   0  0  0  0  0  0
   23.5587   26.0948   21.7912 H   0  0  0  0  0  0
   28.5536   14.4577   27.7902 H   0  0  0  0  0  0
   23.9680   17.9846   29.3933 H   0  0  0  0  0  0
   29.8168   18.1581   30.1091 H   0  0  0  0  0  0
   23.8299   24.4470   26.2566 H   0  0  0  0  0  0
   20.9628   21.3788   25.2842 H   0  0  0  0  0  0
   23.6141   25.3550   24.0116 H   0  0  0  0  0  0
   20.7690   22.2829   23.0370 H   0  0  0  0  0  0
   28.7448   20.1033   31.0750 H   0  0  0  0  0  0
   21.8939   20.4680   26.7784 H   0  0  0  0  0  0
   24.5356   20.9697   29.1134 H   0  0  0  0  0  0
   30.5167   15.3886   28.1183 H   0  0  0  0  0  0
   30.5387   16.9847   28.7741 H   0  0  0  0  0  0
   25.2796   20.6550   30.9991 H   0  0  0  0  0  0
   21.9761   19.2993   28.7385 H   0  0  0  0  0  0
   21.9895   20.8021   29.6289 H   0  0  0  0  0  0
  1  9  2  0  0  0
  1 10  1  0  0  0
  2 10  2  0  0  0
  2 11  1  0  0  0
  2  6  1  0  0  0
  3  5  1  0  0  0
  3 13  2  0  0  0
  3 25  1  0  0  0
  4 12  1  0  0  0
  4 16  2  0  0  0
  4 23  1  0  0  0
  5  8  2  0  0  0
  5 17  1  0  0  0
  6 28  1  0  0  0
  6  9  1  0  0  0
  7 15  1  0  0  0
  7  8  1  0  0  0
  7 14  2  0  0  0
  8 29  1  0  0  0
  9 30  1  0  0  0
 10 31  1  0  0  0
 11 20  2  0  0  0
 11 21  1  0  0  0
 12 19  1  0  0  0
 12 18  2  0  0  0
 13 32  1  0  0  0
 14 22  1  0  0  0
 14 26  1  0  0  0
 15 24  2  0  0  0
 15 33  1  0  0  0
 17 22  2  0  0  0
 17 34  1  0  0  0
 18 20  1  0  0  0
 18 35  1  0  0  0
 19 21  2  0  0  0
 19 36  1  0  0  0
 20 37  1  0  0  0
 21 38  1  0  0  0
 22 39  1  0  0  0
 23 27  1  0  0  0
 23 40  1  0  0  0
 24 27  1  0  0  0
 24 41  1  0  0  0
 25 42  1  0  0  0
 25 43  1  0  0  0
 26 44  1  0  0  0
 27 45  1  0  0  0
 27 46  1  0  0  0
M  END
> <s_m_entry_id>
39258

> <s_m_entry_name>
dock_pv.14

> <s_m_Source_Path>
/home/csk/Desktop/cluster/DUD-E-result/try1

> <s_m_Source_File>
dock_pv.maegz

> <i_m_Source_File_Index>
14

> <chembl_id>
CHEMBL421676

> <chembl_pref_name>
None

> <i_lp_mmshare_version>
53161

> <r_lp_tautomer_probability>
0.499999999999999

> <s_lp_Force_Field>
OPLS_2005

> <r_lp_Energy>
13.931563

> <b_lp_Chiralities_Consistent>
1

> <s_lp_Variant>
CHEMBL209_lig912-2

> <s_i_glide_gridfile>
glide-grid_2ayw

> <i_i_glide_lignum>
1359

> <i_i_glide_rotatable_bonds>
8

> <r_i_docking_score>
-7.69788782066739

> <r_i_glide_ligand_efficiency>
-0.285106956321014

> <r_i_glide_ligand_efficiency_sa>
-0.855320868023377

> <r_i_glide_ligand_efficiency_ln>
-1.79194137505212

> <r_i_glide_gscore>
-7.69788782066739

> <r_i_glide_lipo>
-2.2529033687387

> <r_i_glide_hbond>
-0.630464096451337

> <r_i_glide_metal>
0

> <r_i_glide_rewards>
-2.43997694902066

> <r_i_glide_evdw>
-40.9395332336426

> <r_i_glide_ecoul>
-7.99150657653809

> <r_i_glide_erotb>
0.881571785729501

> <r_i_glide_esite>
-0.0104125440233549

> <r_i_glide_emodel>
-68.5072130997029

> <r_i_glide_energy>
-48.9310398101807

> <r_i_glide_einternal>
5.61623334884644

> <i_i_glide_confnum>
33

> <i_i_glide_posenum>
90

> <r_i_glide_eff_state_penalty>
0

> <s_user_duplicate_titles>
CHEMBL209_lig912

> <i_f3d_flags>
0

> <s_m_subgroup_title>
dock_pv

> <s_m_subgroupid>
dock_pv

> <b_m_subgroup_collapsed>
1

$$$$
CHEMBL209_lig627
                    3D
 Schrodinger Suite 2021-1.
 58 59  0  0  1  0            999 V2000
   21.8896   21.6979   28.7038 C   0  0  0  0  0  0
   22.1271   21.0963   30.1047 C   0  0  0  0  0  0
   21.9092   20.6738   27.5480 C   0  0  0  0  0  0
   23.6052   20.9409   30.5269 C   0  0  0  0  0  0
   21.4548   23.1817   22.3182 C   0  0  0  0  0  0
   27.0523   16.8537   28.1931 C   0  0  0  0  0  0
   21.5531   22.5399   23.5464 C   0  0  0  0  0  0
   26.1876   17.8178   28.7044 C   0  0  0  0  0  0
   21.5965   21.2839   26.1726 C   0  0  0  0  0  0
   24.3837   19.8684   29.7538 C   0  0  0  0  0  0
   23.1546   24.7233   22.9918 C   0  0  0  0  0  0
   28.7411   17.5341   29.7580 C   0  0  0  0  0  0
   22.2295   24.3131   22.0142 C   0  0  0  0  0  0
   28.3468   16.6894   28.7093 C   0  0  0  0  0  0
   23.2905   24.0606   24.2169 C   0  0  0  0  0  0
   27.8793   18.4934   30.2926 C   0  0  0  0  0  0
   22.4645   22.9583   24.5171 C   0  0  0  0  0  0
   26.5818   18.6505   29.7630 C   0  0  0  0  0  0
   22.0750   25.0600   20.7294 C   0  0  0  0  0  0
   29.2308   15.6225   28.1929 C   0  0  0  0  0  0
   24.2627   24.5335   25.1053 N   0  0  0  0  0  0
   28.3443   19.2488   31.3785 N   0  0  0  0  0  0
   22.7529   26.0954   20.4966 N   0  0  0  0  0  0
   21.1534   24.5325   19.8561 N   0  0  0  0  0  0
   28.7567   14.5339   27.7913 N   0  0  0  0  0  0
   30.5650   15.9345   28.1926 N   0  0  0  0  0  0
   22.5602   22.3060   25.7669 N   0  0  0  0  0  0
   25.7099   19.6216   30.2997 N   0  0  0  0  0  0
   22.6117   22.4977   28.5242 H   0  0  0  0  0  0
   20.9142   22.1846   28.7053 H   0  0  0  0  0  0
   21.6450   21.7449   30.8372 H   0  0  0  0  0  0
   21.6177   20.1368   30.1862 H   0  0  0  0  0  0
   21.1821   19.8888   27.7524 H   0  0  0  0  0  0
   22.8702   20.1707   27.4916 H   0  0  0  0  0  0
   24.1168   21.9012   30.4457 H   0  0  0  0  0  0
   23.6311   20.6913   31.5889 H   0  0  0  0  0  0
   20.7407   22.7847   21.6133 H   0  0  0  0  0  0
   26.7000   16.2212   27.3881 H   0  0  0  0  0  0
   20.8724   21.7318   23.7332 H   0  0  0  0  0  0
   25.2033   17.8912   28.2690 H   0  0  0  0  0  0
   20.6114   21.7571   26.1938 H   0  0  0  0  0  0
   21.5345   20.5025   25.4151 H   0  0  0  0  0  0
   23.8196   18.9347   29.7357 H   0  0  0  0  0  0
   24.4743   20.1574   28.7091 H   0  0  0  0  0  0
   23.7882   25.5781   22.7961 H   0  0  0  0  0  0
   29.7277   17.4279   30.1903 H   0  0  0  0  0  0
   24.5144   23.9602   25.8974 H   0  0  0  0  0  0
   24.9233   25.2154   24.7623 H   0  0  0  0  0  0
   29.1548   18.8946   31.8711 H   0  0  0  0  0  0
   27.6629   19.7822   31.8954 H   0  0  0  0  0  0
   22.5391   26.4827   19.5898 H   0  0  0  0  0  0
   20.9851   24.9782   18.9695 H   0  0  0  0  0  0
   20.5286   23.7923   20.1450 H   0  0  0  0  0  0
   29.5251   13.9377   27.5090 H   0  0  0  0  0  0
   31.2441   15.2911   27.7967 H   0  0  0  0  0  0
   30.8978   16.8435   28.4930 H   0  0  0  0  0  0
   22.9520   22.8584   26.5141 H   0  0  0  0  0  0
   26.1131   20.3268   30.8954 H   0  0  0  0  0  0
  1  2  1  0  0  0
  1  3  1  0  0  0
  1 29  1  0  0  0
  1 30  1  0  0  0
  2  4  1  0  0  0
  2 31  1  0  0  0
  2 32  1  0  0  0
  3  9  1  0  0  0
  3 33  1  0  0  0
  3 34  1  0  0  0
  4 10  1  0  0  0
  4 35  1  0  0  0
  4 36  1  0  0  0
  5  7  2  0  0  0
  5 13  1  0  0  0
  5 37  1  0  0  0
  6  8  2  0  0  0
  6 14  1  0  0  0
  6 38  1  0  0  0
  7 17  1  0  0  0
  7 39  1  0  0  0
  8 18  1  0  0  0
  8 40  1  0  0  0
  9 27  1  0  0  0
  9 41  1  0  0  0
  9 42  1  0  0  0
 10 28  1  0  0  0
 10 43  1  0  0  0
 10 44  1  0  0  0
 11 13  2  0  0  0
 11 15  1  0  0  0
 11 45  1  0  0  0
 12 14  2  0  0  0
 12 16  1  0  0  0
 12 46  1  0  0  0
 13 19  1  0  0  0
 14 20  1  0  0  0
 15 17  2  0  0  0
 15 21  1  0  0  0
 16 18  2  0  0  0
 16 22  1  0  0  0
 17 27  1  0  0  0
 18 28  1  0  0  0
 19 23  2  0  0  0
 19 24  1  0  0  0
 20 25  2  0  0  0
 20 26  1  0  0  0
 21 47  1  0  0  0
 21 48  1  0  0  0
 22 49  1  0  0  0
 22 50  1  0  0  0
 23 51  1  0  0  0
 24 52  1  0  0  0
 24 53  1  0  0  0
 25 54  1  0  0  0
 26 55  1  0  0  0
 26 56  1  0  0  0
 27 57  1  0  0  0
 28 58  1  0  0  0
M  END
> <s_m_entry_id>
39259

> <s_m_entry_name>
dock_pv.15

> <s_m_Source_Path>
/home/csk/Desktop/cluster/DUD-E-result/try1

> <s_m_Source_File>
dock_pv.maegz

> <i_m_Source_File_Index>
15

> <chembl_id>
CHEMBL1204161

> <chembl_pref_name>
None

> <i_lp_mmshare_version>
53161

> <r_lp_tautomer_probability>
1

> <s_lp_Force_Field>
OPLS_2005

> <r_lp_Energy>
4.655638

> <b_lp_Chiralities_Consistent>
1

> <s_lp_Variant>
CHEMBL209_lig627-1

> <s_i_glide_gridfile>
glide-grid_2ayw

> <i_i_glide_lignum>
995

> <i_i_glide_rotatable_bonds>
11

> <r_i_docking_score>
-7.69121292167171

> <r_i_glide_ligand_efficiency>
-0.27468617577399

> <r_i_glide_ligand_efficiency_sa>
-0.834109011155523

> <r_i_glide_ligand_efficiency_ln>
-1.77535776614587

> <r_i_glide_gscore>
-7.69121292167171

> <r_i_glide_lipo>
-2.79003876434379

> <r_i_glide_hbond>
-0.950268119475071

> <r_i_glide_metal>
0

> <r_i_glide_rewards>
-1.33751245566137

> <r_i_glide_evdw>
-41.5814666748047

> <r_i_glide_ecoul>
-11.1811227798462

> <r_i_glide_erotb>
1.1947252180481

> <r_i_glide_esite>
-0.0518770495224212

> <r_i_glide_emodel>
-74.8337582790677

> <r_i_glide_energy>
-52.7625894546509

> <r_i_glide_einternal>
4.31484222412109

> <i_i_glide_confnum>
6

> <i_i_glide_posenum>
38

> <r_i_glide_eff_state_penalty>
0

> <s_user_duplicate_titles>
CHEMBL209_lig627

> <i_f3d_flags>
0

> <s_m_subgroup_title>
dock_pv

> <s_m_subgroupid>
dock_pv

> <b_m_subgroup_collapsed>
1

$$$$
CHEMBL209_lig1005
                    3D
 Schrodinger Suite 2021-1.
 62 64  0  0  1  0            999 V2000
   25.9150   18.8641   30.8454 N   0  0  0  0  0  0
   26.9911   18.8007   30.0383 C   0  0  0  0  0  0
   25.3213   20.0529   31.4773 C   0  0  1  0  0  0
   24.5097   20.9213   30.4789 C   0  0  0  0  0  0
   29.8924   15.0067   28.2686 C   0  0  0  0  0  0
   27.1570   17.4693   29.3590 C   0  0  0  0  0  0
   28.5746   15.6535   28.5150 C   0  0  0  0  0  0
   23.9529   20.3015   29.4200 N   0  0  0  0  0  0
   28.4274   16.9346   29.0893 C   0  0  0  0  0  0
   29.9530   13.8490   27.7910 N   0  0  0  0  0  0
   27.7589   19.7390   29.8289 O   0  0  0  0  0  0
   24.4272   22.1330   30.6754 O   0  0  0  0  0  0
   24.4512   19.6332   32.6495 C   0  0  0  0  0  0
   31.0057   15.7330   28.5910 N   0  0  0  0  0  0
   23.1943   20.9465   28.3489 C   0  0  0  0  0  0
   21.6582   20.8657   28.5199 C   0  0  1  0  0  0
   16.7530   22.9329   27.7861 N   0  0  0  0  0  0
   21.1484   21.6146   29.7810 C   0  0  0  0  0  0
   20.9249   21.3928   27.2581 C   0  0  0  0  0  0
   19.6124   21.5527   29.9073 C   0  0  0  0  0  0
   19.3918   21.3177   27.4138 C   0  0  0  0  0  0
   18.9259   22.1276   28.6489 C   0  0  1  0  0  0
   26.0201   16.7405   28.9910 C   0  0  0  0  0  0
   27.3971   14.9510   28.1910 C   0  0  0  0  0  0
   26.1419   15.4892   28.4225 C   0  0  0  0  0  0
   17.3929   22.1369   28.8182 C   0  0  0  0  0  0
   23.6968   18.4461   32.6320 C   0  0  0  0  0  0
   24.3777   20.4660   33.7727 C   0  0  0  0  0  0
   23.5828   20.1167   34.8618 C   0  0  0  0  0  0
   22.9043   18.0959   33.7211 C   0  0  0  0  0  0
   22.8504   18.9330   34.8315 C   0  0  0  0  0  0
   25.3826   18.0153   30.9587 H   0  0  0  0  0  0
   26.1398   20.6754   31.8481 H   0  0  0  0  0  0
   24.0891   19.3063   29.3361 H   0  0  0  0  0  0
   29.3012   17.5082   29.3688 H   0  0  0  0  0  0
   30.9129   13.5651   27.6128 H   0  0  0  0  0  0
   31.8899   15.3301   28.2923 H   0  0  0  0  0  0
   30.9825   16.7335   28.7506 H   0  0  0  0  0  0
   23.4841   21.9969   28.2624 H   0  0  0  0  0  0
   23.4897   20.5217   27.3888 H   0  0  0  0  0  0
   21.3686   19.8182   28.6316 H   0  0  0  0  0  0
   15.7820   23.0305   28.0377 H   0  0  0  0  0  0
   17.1518   23.8614   27.8068 H   0  0  0  0  0  0
   21.6165   21.2129   30.6803 H   0  0  0  0  0  0
   21.4700   22.6568   29.7405 H   0  0  0  0  0  0
   21.2246   22.4235   27.0600 H   0  0  0  0  0  0
   21.2414   20.8342   26.3757 H   0  0  0  0  0  0
   19.2727   20.5329   30.0843 H   0  0  0  0  0  0
   19.2922   22.1052   30.7919 H   0  0  0  0  0  0
   19.0607   20.2809   27.4956 H   0  0  0  0  0  0
   18.9041   21.6903   26.5119 H   0  0  0  0  0  0
   19.2772   23.1555   28.5342 H   0  0  0  0  0  0
   25.0218   17.1165   29.1592 H   0  0  0  0  0  0
   27.4364   13.9502   27.7872 H   0  0  0  0  0  0
   25.2504   14.9330   28.1910 H   0  0  0  0  0  0
   16.9923   21.1217   28.8065 H   0  0  0  0  0  0
   17.1277   22.5689   29.7845 H   0  0  0  0  0  0
   23.7012   17.7880   31.7753 H   0  0  0  0  0  0
   24.9374   21.3898   33.8023 H   0  0  0  0  0  0
   23.5324   20.7629   35.7259 H   0  0  0  0  0  0
   22.3275   17.1820   33.6968 H   0  0  0  0  0  0
   22.2312   18.6635   35.6747 H   0  0  0  0  0  0
  1  2  1  0  0  0
  1  3  1  0  0  0
  1 32  1  0  0  0
  2  6  1  0  0  0
  2 11  2  0  0  0
  3  4  1  0  0  0
  3 13  1  0  0  0
  3 33  1  0  0  0
  4  8  1  0  0  0
  4 12  2  0  0  0
  5  7  1  0  0  0
  5 10  2  0  0  0
  5 14  1  0  0  0
  6  9  1  0  0  0
  6 23  2  0  0  0
  7  9  2  0  0  0
  7 24  1  0  0  0
  8 15  1  0  0  0
  8 34  1  0  0  0
  9 35  1  0  0  0
 10 36  1  0  0  0
 13 27  2  0  0  0
 13 28  1  0  0  0
 14 37  1  0  0  0
 14 38  1  0  0  0
 15 16  1  0  0  0
 15 39  1  0  0  0
 15 40  1  0  0  0
 16 18  1  0  0  0
 16 19  1  0  0  0
 16 41  1  0  0  0
 17 26  1  0  0  0
 17 42  1  0  0  0
 17 43  1  0  0  0
 18 20  1  0  0  0
 18 44  1  0  0  0
 18 45  1  0  0  0
 19 21  1  0  0  0
 19 46  1  0  0  0
 19 47  1  0  0  0
 20 22  1  0  0  0
 20 48  1  0  0  0
 20 49  1  0  0  0
 21 22  1  0  0  0
 21 50  1  0  0  0
 21 51  1  0  0  0
 22 26  1  0  0  0
 22 52  1  0  0  0
 23 25  1  0  0  0
 23 53  1  0  0  0
 24 25  2  0  0  0
 24 54  1  0  0  0
 25 55  1  0  0  0
 26 56  1  0  0  0
 26 57  1  0  0  0
 27 30  1  0  0  0
 27 58  1  0  0  0
 28 29  2  0  0  0
 28 59  1  0  0  0
 29 31  1  0  0  0
 29 60  1  0  0  0
 30 31  2  0  0  0
 30 61  1  0  0  0
 31 62  1  0  0  0
M  END
> <s_m_entry_id>
39260

> <s_m_entry_name>
dock_pv.16

> <s_m_Source_Path>
/home/csk/Desktop/cluster/DUD-E-result/try1

> <s_m_Source_File>
dock_pv.maegz

> <i_m_Source_File_Index>
16

> <chembl_id>
CHEMBL162635

> <chembl_pref_name>
None

> <i_lp_mmshare_version>
53161

> <r_lp_tautomer_probability>
1

> <s_lp_Force_Field>
OPLS_2005

> <r_lp_Energy>
16.220662

> <b_lp_Chiralities_Consistent>
1

> <s_lp_Variant>
CHEMBL209_lig1005-2

> <s_i_glide_gridfile>
glide-grid_2ayw

> <i_i_glide_lignum>
1528

> <i_i_glide_rotatable_bonds>
10

> <r_i_docking_score>
-7.67565896279315

> <r_i_glide_ligand_efficiency>
-0.247601902025585

> <r_i_glide_ligand_efficiency_sa>
-0.777811823628151

> <r_i_glide_ligand_efficiency_ln>
-1.73109632680693

> <r_i_glide_gscore>
-7.67565896279315

> <r_i_glide_lipo>
-2.55960802017557

> <r_i_glide_hbond>
-0.891356181246193

> <r_i_glide_metal>
0

> <r_i_glide_rewards>
-0.746695441078122

> <r_i_glide_evdw>
-37.3054122924805

> <r_i_glide_ecoul>
-15.1716289520264

> <r_i_glide_erotb>
0.780093354666704

> <r_i_glide_esite>
-0.117077717531988

> <r_i_glide_emodel>
-71.3802307059028

> <r_i_glide_energy>
-52.4770412445068

> <r_i_glide_einternal>
6.33508062362671

> <i_i_glide_confnum>
69

> <i_i_glide_posenum>
230

> <r_i_glide_eff_state_penalty>
0

> <s_user_duplicate_titles>
CHEMBL209_lig1005

> <i_f3d_flags>
0

> <s_m_subgroup_title>
dock_pv

> <s_m_subgroupid>
dock_pv

> <b_m_subgroup_collapsed>
1

$$$$
CHEMBL209_lig791
                    3D
 Schrodinger Suite 2021-1.
 75 78  0  0  1  0            999 V2000
   31.3040   24.1262   30.0514 S   0  0  0  0  0  0
   30.3157   23.2469   31.2341 N   0  0  1  0  0  0
   28.6192   21.3752   32.3576 N   0  0  0  0  0  0
   29.9533   21.1773   32.5909 C   0  0  0  0  0  0
   24.9425   18.7548   29.8066 C   0  0  0  0  0  0
   30.9347   22.3264   32.2165 C   0  0  0  0  0  0
   27.1632   19.3523   31.9010 C   0  0  0  0  0  0
   27.0866   19.6304   30.5816 N   0  0  0  0  0  0
   28.0330   22.5750   31.7057 C   0  0  2  0  0  0
   27.5475   20.5000   32.8650 C   0  0  2  0  0  0
   26.4505   18.8129   29.5261 C   0  0  1  0  0  0
   29.0070   23.7664   31.6345 C   0  0  0  0  0  0
   24.1319   20.0858   29.4845 C   0  0  0  0  0  0
   30.3511   23.8912   28.4325 C   0  0  0  0  0  0
   31.2416   25.5448   30.4124 O   0  0  0  0  0  0
   32.6032   23.4560   29.9402 O   0  0  0  0  0  0
   23.0036   19.8480   28.7890 N   0  0  0  0  0  0
   26.3779   21.4625   33.1512 C   0  0  0  0  0  0
   30.3686   20.1603   33.1409 O   0  0  0  0  0  0
   24.3529   17.7436   30.1917 O   0  0  0  0  0  0
   21.4653   20.5252   26.9775 C   0  0  0  0  0  0
   26.7546   22.8067   32.5187 C   0  0  0  0  0  0
   27.1619   17.4589   29.2378 C   0  0  2  0  0  0
   26.8799   18.2498   32.3643 O   0  0  0  0  0  0
   24.5564   21.1981   29.8150 O   0  0  0  0  0  0
   21.9535   19.7328   26.1991 O   0  0  0  0  0  0
   22.0180   20.8629   28.3756 C   0  0  0  0  0  0
   28.6069   17.6575   28.7249 C   0  0  0  0  0  0
   26.4838   16.6019   28.1416 C   0  0  0  0  0  0
   31.2426   24.0210   27.2081 C   0  0  0  0  0  0
   20.3309   21.2345   26.7210 O   0  0  0  0  0  0
   29.1758   13.8624   28.1911 N   0  0  0  0  0  0
   28.5946   15.1710   28.0246 C   0  0  2  0  0  0
   29.3708   16.3163   28.7415 C   0  0  0  0  0  0
   27.0552   15.1769   28.1886 C   0  0  0  0  0  0
   31.4740   25.2795   26.6458 C   0  0  0  0  0  0
   31.8516   22.8846   26.6669 C   0  0  0  0  0  0
   32.3011   25.3956   25.5327 C   0  0  0  0  0  0
   32.6754   23.0010   25.5516 C   0  0  0  0  0  0
   32.8962   24.2590   24.9898 C   0  0  0  0  0  0
   27.7632   22.2875   30.6894 H   0  0  0  0  0  0
   31.2502   22.8680   33.1118 H   0  0  0  0  0  0
   31.8371   21.8916   31.7953 H   0  0  0  0  0  0
   27.3629   20.5535   30.2932 H   0  0  0  0  0  0
   27.9040   19.9895   33.7604 H   0  0  0  0  0  0
   26.5864   19.3330   28.5875 H   0  0  0  0  0  0
   28.6853   24.5427   30.9323 H   0  0  0  0  0  0
   29.1180   24.2270   32.6212 H   0  0  0  0  0  0
   29.8810   22.9079   28.4679 H   0  0  0  0  0  0
   29.5494   24.6257   28.4148 H   0  0  0  0  0  0
   22.7604   18.8884   28.5898 H   0  0  0  0  0  0
   25.4213   21.1033   32.7658 H   0  0  0  0  0  0
   26.2691   21.5964   34.2306 H   0  0  0  0  0  0
   25.9624   23.2380   31.9004 H   0  0  0  0  0  0
   26.9511   23.5287   33.3152 H   0  0  0  0  0  0
   27.1830   16.9290   30.1876 H   0  0  0  0  0  0
   21.2032   20.8887   29.1017 H   0  0  0  0  0  0
   22.4543   21.8650   28.3491 H   0  0  0  0  0  0
   29.1380   18.3556   29.3748 H   0  0  0  0  0  0
   28.6211   18.1382   27.7459 H   0  0  0  0  0  0
   26.5554   17.0662   27.1568 H   0  0  0  0  0  0
   25.4124   16.5098   28.3132 H   0  0  0  0  0  0
   19.9626   20.9547   25.8738 H   0  0  0  0  0  0
   29.1839   13.6700   29.1883 H   0  0  0  0  0  0
   28.5915   13.1371   27.8003 H   0  0  0  0  0  0
   28.7263   15.4427   26.9845 H   0  0  0  0  0  0
   30.3624   16.4474   28.2967 H   0  0  0  0  0  0
   29.4966   16.0662   29.7873 H   0  0  0  0  0  0
   26.5946   14.5762   27.4064 H   0  0  0  0  0  0
   26.7853   14.7447   29.1559 H   0  0  0  0  0  0
   31.0131   26.1644   27.0644 H   0  0  0  0  0  0
   31.6811   21.9098   27.1020 H   0  0  0  0  0  0
   32.4800   26.3651   25.0939 H   0  0  0  0  0  0
   33.1527   22.1353   25.1206 H   0  0  0  0  0  0
   33.5400   24.3545   24.1273 H   0  0  0  0  0  0
  1  2  1  0  0  0
  1 14  1  0  0  0
  1 15  2  0  0  0
  1 16  2  0  0  0
  2  6  1  0  0  0
  2 12  1  0  0  0
  3  9  1  0  0  0
  3 10  1  0  0  0
  3  4  1  0  0  0
  4  6  1  0  0  0
  4 19  2  0  0  0
  5 11  1  0  0  0
  5 13  1  0  0  0
  5 20  2  0  0  0
  6 42  1  0  0  0
  6 43  1  0  0  0
  7 10  1  0  0  0
  7  8  1  0  0  0
  7 24  2  0  0  0
  8 11  1  0  0  0
  8 44  1  0  0  0
  9 12  1  0  0  0
  9 22  1  0  0  0
  9 41  1  0  0  0
 10 18  1  0  0  0
 10 45  1  0  0  0
 11 23  1  0  0  0
 11 46  1  0  0  0
 12 47  1  0  0  0
 12 48  1  0  0  0
 13 17  1  0  0  0
 13 25  2  0  0  0
 14 30  1  0  0  0
 14 49  1  0  0  0
 14 50  1  0  0  0
 17 27  1  0  0  0
 17 51  1  0  0  0
 18 22  1  0  0  0
 18 52  1  0  0  0
 18 53  1  0  0  0
 21 27  1  0  0  0
 21 26  2  0  0  0
 21 31  1  0  0  0
 22 54  1  0  0  0
 22 55  1  0  0  0
 23 28  1  0  0  0
 23 29  1  0  0  0
 23 56  1  0  0  0
 27 57  1  0  0  0
 27 58  1  0  0  0
 28 34  1  0  0  0
 28 59  1  0  0  0
 28 60  1  0  0  0
 29 35  1  0  0  0
 29 61  1  0  0  0
 29 62  1  0  0  0
 30 36  2  0  0  0
 30 37  1  0  0  0
 31 63  1  0  0  0
 32 33  1  0  0  0
 32 64  1  0  0  0
 32 65  1  0  0  0
 33 35  1  0  0  0
 33 34  1  0  0  0
 33 66  1  0  0  0
 34 67  1  0  0  0
 34 68  1  0  0  0
 35 69  1  0  0  0
 35 70  1  0  0  0
 36 38  1  0  0  0
 36 71  1  0  0  0
 37 39  2  0  0  0
 37 72  1  0  0  0
 38 40  2  0  0  0
 38 73  1  0  0  0
 39 40  1  0  0  0
 39 74  1  0  0  0
 40 75  1  0  0  0
M  END
> <s_m_entry_id>
39261

> <s_m_entry_name>
dock_pv.17

> <s_m_Source_Path>
/home/csk/Desktop/cluster/DUD-E-result/try1

> <s_m_Source_File>
dock_pv.maegz

> <i_m_Source_File_Index>
17

> <chembl_id>
CHEMBL3084834

> <chembl_pref_name>
None

> <i_lp_mmshare_version>
53161

> <r_lp_tautomer_probability>
0.99990000499975

> <s_lp_Force_Field>
OPLS_2005

> <r_lp_Energy>
10.857712

> <b_lp_Chiralities_Consistent>
1

> <s_lp_Variant>
CHEMBL209_lig791-2

> <s_i_glide_gridfile>
glide-grid_2ayw

> <i_i_glide_lignum>
1208

> <i_i_glide_rotatable_bonds>
13

> <r_i_docking_score>
-7.67560047878173

> <r_i_glide_ligand_efficiency>
-0.191890011969543

> <r_i_glide_ligand_efficiency_sa>
-0.656254608943897

> <r_i_glide_ligand_efficiency_ln>
-1.63697969928557

> <r_i_glide_gscore>
-7.67560047878173

> <r_i_glide_lipo>
-2.73425883814821

> <r_i_glide_hbond>
-1.54560847793258

> <r_i_glide_metal>
0

> <r_i_glide_rewards>
-0.538924227393447

> <r_i_glide_evdw>
-46.7146186828613

> <r_i_glide_ecoul>
-7.8329291343689

> <r_i_glide_erotb>
0.653861368990905

> <r_i_glide_esite>
0

> <r_i_glide_emodel>
-65.2716189335988

> <r_i_glide_energy>
-54.5475478172302

> <r_i_glide_einternal>
24.0498065948486

> <i_i_glide_confnum>
60

> <i_i_glide_posenum>
17

> <r_i_glide_eff_state_penalty>
0

> <s_user_duplicate_titles>
CHEMBL209_lig791,161414

> <i_f3d_flags>
0

> <s_m_subgroup_title>
dock_pv

> <s_m_subgroupid>
dock_pv

> <b_m_subgroup_collapsed>
1

$$$$
CHEMBL209_lig989
                    3D
 Schrodinger Suite 2021-1.
 44 46  0  0  1  0            999 V2000
   22.4577   20.4409   27.4641 N   0  0  0  0  0  0
   23.2131   20.2809   29.6594 C   0  0  2  0  0  0
   24.6903   19.8137   29.7893 C   0  0  0  0  0  0
   22.5794   19.5862   28.5895 O   0  0  0  0  0  0
   22.7466   21.6391   27.7711 C   0  0  0  0  0  0
   23.0596   21.7461   29.2444 C   0  0  0  0  0  0
   22.0812   23.5959   23.1689 C   0  0  0  0  0  0
   29.5527   15.3748   28.3360 C   0  0  0  0  0  0
   24.9249   18.5354   29.4344 N   0  0  0  0  0  0
   22.7537   22.8046   26.8606 C   0  0  0  0  0  0
   22.4610   23.7626   24.6050 C   0  0  0  0  0  0
   22.3795   22.6820   25.5104 C   0  0  0  0  0  0
   28.3879   16.2508   28.6459 C   0  0  0  0  0  0
   21.5518   22.5325   22.7576 N   0  0  0  0  0  0
   29.4152   14.1338   28.1910 N   0  0  0  0  0  0
   25.5528   20.5946   30.1966 O   0  0  0  0  0  0
   26.1247   17.8364   29.2322 C   0  0  0  0  0  0
   27.0877   15.7224   28.5847 C   0  0  0  0  0  0
   28.5221   17.6020   29.0183 C   0  0  0  0  0  0
   22.3476   24.6750   22.3616 N   0  0  0  0  0  0
   30.7529   16.0151   28.1910 N   0  0  0  0  0  0
   27.4086   18.3914   29.3043 C   0  0  0  0  0  0
   25.9764   16.4983   28.8811 C   0  0  0  0  0  0
   23.1803   24.0554   27.3243 C   0  0  0  0  0  0
   22.9159   24.9936   25.1207 C   0  0  0  0  0  0
   23.2633   25.1394   26.4589 C   0  0  0  0  0  0
   22.7597   20.0673   30.6284 H   0  0  0  0  0  0
   22.2110   22.2135   29.7471 H   0  0  0  0  0  0
   23.9530   22.3402   29.4369 H   0  0  0  0  0  0
   24.1025   17.9918   29.2362 H   0  0  0  0  0  0
   22.0394   21.7207   25.1473 H   0  0  0  0  0  0
   21.3335   22.5739   21.7738 H   0  0  0  0  0  0
   30.2948   13.7016   27.9419 H   0  0  0  0  0  0
   26.9214   14.6868   28.3187 H   0  0  0  0  0  0
   29.4964   18.0651   29.0911 H   0  0  0  0  0  0
   22.1261   24.6365   21.3791 H   0  0  0  0  0  0
   22.8969   25.4470   22.7047 H   0  0  0  0  0  0
   31.5441   15.4788   27.8436 H   0  0  0  0  0  0
   30.9103   16.9852   28.4520 H   0  0  0  0  0  0
   27.5667   19.4256   29.5649 H   0  0  0  0  0  0
   25.0017   16.0366   28.8355 H   0  0  0  0  0  0
   23.4735   24.2116   28.3519 H   0  0  0  0  0  0
   23.0005   25.8697   24.4956 H   0  0  0  0  0  0
   23.6023   26.0972   26.8277 H   0  0  0  0  0  0
  1  4  1  0  0  0
  1  5  2  0  0  0
  2  4  1  0  0  0
  2  3  1  0  0  0
  2  6  1  0  0  0
  2 27  1  0  0  0
  3  9  1  0  0  0
  3 16  2  0  0  0
  5  6  1  0  0  0
  5 10  1  0  0  0
  6 28  1  0  0  0
  6 29  1  0  0  0
  7 11  1  0  0  0
  7 14  2  0  0  0
  7 20  1  0  0  0
  8 13  1  0  0  0
  8 15  2  0  0  0
  8 21  1  0  0  0
  9 17  1  0  0  0
  9 30  1  0  0  0
 10 12  2  0  0  0
 10 24  1  0  0  0
 11 12  1  0  0  0
 11 25  2  0  0  0
 12 31  1  0  0  0
 13 18  2  0  0  0
 13 19  1  0  0  0
 14 32  1  0  0  0
 15 33  1  0  0  0
 17 22  1  0  0  0
 17 23  2  0  0  0
 18 23  1  0  0  0
 18 34  1  0  0  0
 19 22  2  0  0  0
 19 35  1  0  0  0
 20 36  1  0  0  0
 20 37  1  0  0  0
 21 38  1  0  0  0
 21 39  1  0  0  0
 22 40  1  0  0  0
 23 41  1  0  0  0
 24 26  2  0  0  0
 24 42  1  0  0  0
 25 26  1  0  0  0
 25 43  1  0  0  0
 26 44  1  0  0  0
M  END
> <s_m_entry_id>
39262

> <s_m_entry_name>
dock_pv.18

> <s_m_Source_Path>
/home/csk/Desktop/cluster/DUD-E-result/try1

> <s_m_Source_File>
dock_pv.maegz

> <i_m_Source_File_Index>
18

> <chembl_id>
CHEMBL93657

> <chembl_pref_name>
None

> <i_lp_mmshare_version>
53161

> <r_lp_tautomer_probability>
1

> <s_lp_Force_Field>
OPLS_2005

> <r_lp_Energy>
19.264518

> <b_lp_Chiralities_Consistent>
1

> <s_lp_Variant>
CHEMBL209_lig989-2

> <s_i_glide_gridfile>
glide-grid_2ayw

> <i_i_glide_lignum>
1502

> <i_i_glide_rotatable_bonds>
6

> <r_i_docking_score>
-7.59700013040138

> <r_i_glide_ligand_efficiency>
-0.292192312707745

> <r_i_glide_ligand_efficiency_sa>
-0.865618576675463

> <r_i_glide_ligand_efficiency_ln>
-1.78413055283413

> <r_i_glide_gscore>
-7.59700013040138

> <r_i_glide_lipo>
-2.15141553035307

> <r_i_glide_hbond>
-0.819843508562408

> <r_i_glide_metal>
0

> <r_i_glide_rewards>
-1.66903969594456

> <r_i_glide_evdw>
-40.0243721008301

> <r_i_glide_ecoul>
-10.059045791626

> <r_i_glide_erotb>
0.621040249487338

> <r_i_glide_esite>
-0.0676661712432779

> <r_i_glide_emodel>
-71.5714722742891

> <r_i_glide_energy>
-50.0834178924561

> <r_i_glide_einternal>
2.23197770118713

> <i_i_glide_confnum>
3

> <i_i_glide_posenum>
56

> <r_i_glide_eff_state_penalty>
0

> <s_user_duplicate_titles>
CHEMBL209_lig989,154862

> <i_f3d_flags>
0

> <s_m_subgroup_title>
dock_pv

> <s_m_subgroupid>
dock_pv

> <b_m_subgroup_collapsed>
1

$$$$
CHEMBL209_lig1228
                    3D
 Schrodinger Suite 2021-1.
 52 53  0  0  1  0            999 V2000
   19.2709   21.5549   32.2407 C   0  0  0  0  0  0
   20.1832   22.4879   31.4004 C   0  0  1  0  0  0
   21.5718   22.7084   32.0633 C   0  0  0  0  0  0
   22.4096   21.4487   32.2133 C   0  0  0  0  0  0
   22.4153   20.5212   33.2535 C   0  0  0  0  0  0
   23.3132   19.4658   33.0806 C   0  0  0  0  0  0
   24.0354   19.5427   31.8968 C   0  0  0  0  0  0
   23.5819   20.9736   31.0096 S   0  0  0  0  0  0
   25.0651   18.6160   31.4254 C   0  0  0  0  0  0
   25.5238   17.7334   32.1569 O   0  0  0  0  0  0
   25.4407   18.8414   30.1230 O   0  0  0  0  0  0
   26.4224   18.0403   29.5752 C   0  0  0  0  0  0
   26.0739   16.8233   28.9912 C   0  0  0  0  0  0
   27.0580   15.9569   28.5219 C   0  0  0  0  0  0
   28.4263   16.2748   28.6185 C   0  0  0  0  0  0
   28.7516   17.5323   29.1577 C   0  0  0  0  0  0
   27.7712   18.4098   29.6242 C   0  0  0  0  0  0
   28.2516   19.9336   30.2850 Cl  0  0  0  0  0  0
   29.4620   15.2944   28.1914 C   0  0  0  0  0  0
   29.1529   14.1330   27.8370 N   0  0  0  0  0  0
   30.7533   15.7332   28.2183 N   0  0  0  0  0  0
   20.2903   22.1242   29.8990 C   0  0  0  0  0  0
   20.8697   22.8923   29.1323 O   0  0  0  0  0  0
   19.7164   20.9822   29.4771 N   0  0  0  0  0  0
   19.6962   20.4572   28.1005 C   0  0  1  0  0  0
   18.8369   21.3418   27.1340 C   0  0  0  0  0  0
   17.6240   22.0886   27.7163 C   0  0  0  0  0  0
   17.3164   23.2319   27.3911 O   0  0  0  0  0  0
   16.8783   21.3334   28.5723 O   0  0  0  0  0  0
   21.1208   20.1325   27.5547 C   0  0  0  0  0  0
   22.0833   19.9382   28.2639 O   0  0  0  0  0  0
   21.1530   20.0180   26.1908 O   0  0  0  0  0  0
   18.2591   21.5114   31.8361 H   0  0  0  0  0  0
   19.6510   20.5335   32.2796 H   0  0  0  0  0  0
   19.1874   21.9128   33.2677 H   0  0  0  0  0  0
   19.6835   23.4590   31.3953 H   0  0  0  0  0  0
   22.1276   23.4717   31.5145 H   0  0  0  0  0  0
   21.4140   23.1570   33.0438 H   0  0  0  0  0  0
   21.7765   20.6102   34.1195 H   0  0  0  0  0  0
   23.4327   18.6671   33.7981 H   0  0  0  0  0  0
   25.0388   16.5174   28.9577 H   0  0  0  0  0  0
   26.7397   15.0100   28.1110 H   0  0  0  0  0  0
   29.7786   17.8380   29.2663 H   0  0  0  0  0  0
   29.9835   13.6110   27.5844 H   0  0  0  0  0  0
   31.4833   15.1413   27.8202 H   0  0  0  0  0  0
   31.0053   16.6814   28.4743 H   0  0  0  0  0  0
   19.2833   20.3919   30.1730 H   0  0  0  0  0  0
   19.2415   19.4685   28.1723 H   0  0  0  0  0  0
   18.4249   20.7065   26.3530 H   0  0  0  0  0  0
   19.4666   22.0821   26.6359 H   0  0  0  0  0  0
   17.2614   20.4744   28.7501 H   0  0  0  0  0  0
   20.3175   20.1343   25.7212 H   0  0  0  0  0  0
  1  2  1  0  0  0
  1 33  1  0  0  0
  1 34  1  0  0  0
  1 35  1  0  0  0
  2  3  1  0  0  0
  2 22  1  0  0  0
  2 36  1  0  0  0
  3  4  1  0  0  0
  3 37  1  0  0  0
  3 38  1  0  0  0
  4  5  2  0  0  0
  4  8  1  0  0  0
  5  6  1  0  0  0
  5 39  1  0  0  0
  6  7  2  0  0  0
  6 40  1  0  0  0
  7  8  1  0  0  0
  7  9  1  0  0  0
  9 10  2  0  0  0
  9 11  1  0  0  0
 11 12  1  0  0  0
 12 13  2  0  0  0
 12 17  1  0  0  0
 13 14  1  0  0  0
 13 41  1  0  0  0
 14 15  2  0  0  0
 14 42  1  0  0  0
 15 16  1  0  0  0
 15 19  1  0  0  0
 16 17  2  0  0  0
 16 43  1  0  0  0
 17 18  1  0  0  0
 19 20  2  0  0  0
 19 21  1  0  0  0
 20 44  1  0  0  0
 21 45  1  0  0  0
 21 46  1  0  0  0
 22 23  2  0  0  0
 22 24  1  0  0  0
 24 25  1  0  0  0
 24 47  1  0  0  0
 25 26  1  0  0  0
 25 30  1  0  0  0
 25 48  1  0  0  0
 26 27  1  0  0  0
 26 49  1  0  0  0
 26 50  1  0  0  0
 27 28  2  0  0  0
 27 29  1  0  0  0
 29 51  1  0  0  0
 30 31  2  0  0  0
 30 32  1  0  0  0
 32 52  1  0  0  0
M  END
> <s_m_entry_id>
39263

> <s_m_entry_name>
dock_pv.19

> <s_m_Source_Path>
/home/csk/Desktop/cluster/DUD-E-result/try1

> <s_m_Source_File>
dock_pv.maegz

> <i_m_Source_File_Index>
19

> <chembl_id>
CHEMBL3642947

> <chembl_pref_name>
None

> <i_lp_mmshare_version>
53161

> <r_lp_tautomer_probability>
1

> <s_lp_Force_Field>
OPLS_2005

> <r_lp_Energy>
0.031315

> <b_lp_Chiralities_Consistent>
1

> <s_lp_Variant>
CHEMBL209_lig1228-2

> <s_i_glide_gridfile>
glide-grid_2ayw

> <i_i_glide_lignum>
1849

> <i_i_glide_rotatable_bonds>
14

> <r_i_docking_score>
-7.52423177843657

> <r_i_glide_ligand_efficiency>
-0.235132243076143

> <r_i_glide_ligand_efficiency_sa>
-0.746498339159034

> <r_i_glide_ligand_efficiency_ln>
-1.68488059800387

> <r_i_glide_gscore>
-7.52423177843657

> <r_i_glide_lipo>
-1.89765395378839

> <r_i_glide_hbond>
-0.699967886600622

> <r_i_glide_metal>
0

> <r_i_glide_rewards>
-0.767607346811385

> <r_i_glide_evdw>
-42.5782279968262

> <r_i_glide_ecoul>
-19.3855075836182

> <r_i_glide_erotb>
0.961039624180975

> <r_i_glide_esite>
-0.0833046780331078

> <r_i_glide_emodel>
-88.3380366520223

> <r_i_glide_energy>
-61.9637355804443

> <r_i_glide_einternal>
4.45021486282349

> <i_i_glide_confnum>
8

> <i_i_glide_posenum>
372

> <r_i_glide_eff_state_penalty>
0

> <s_user_duplicate_titles>
CHEMBL209_lig1228

> <i_f3d_flags>
0

> <s_m_subgroup_title>
dock_pv

> <s_m_subgroupid>
dock_pv

> <b_m_subgroup_collapsed>
1

$$$$
CHEMBL209_lig1013
                    3D
 Schrodinger Suite 2021-1.
 47 49  0  0  1  0            999 V2000
   25.3685   19.9257   30.7898 N   0  0  0  0  0  0
   25.4121   19.1409   29.7912 C   0  0  0  0  0  0
   21.7333   21.1438   27.8630 C   0  0  0  0  0  0
   24.2210   20.7577   30.7014 O   0  0  0  0  0  0
   21.7599   23.1992   22.8037 C   0  0  0  0  0  0
   29.4837   15.3193   28.3527 C   0  0  0  0  0  0
   22.1813   20.8682   29.3081 C   0  0  0  0  0  0
   24.2104   19.3327   28.9217 C   0  0  0  0  0  0
   21.0125   23.4114   24.0789 C   0  0  0  0  0  0
   23.7081   20.6793   29.3844 C   0  0  2  0  0  0
   21.0539   22.2909   27.6723 N   0  0  0  0  0  0
   26.4544   18.1606   29.4581 C   0  0  0  0  0  0
   28.4625   16.3263   28.7169 C   0  0  0  0  0  0
   22.8276   22.5335   22.7829 N   0  0  0  0  0  0
   29.1549   14.1239   28.1882 N   0  0  0  0  0  0
   21.3660   22.7081   25.2486 C   0  0  0  0  0  0
   20.6894   22.9054   26.4637 C   0  0  0  0  0  0
   22.0170   20.3401   26.9728 O   0  0  0  0  0  0
   27.7598   18.3100   29.9371 C   0  0  0  0  0  0
   26.1553   17.0879   28.6126 C   0  0  0  0  0  0
   28.7530   17.4037   29.5674 C   0  0  0  0  0  0
   27.1468   16.1849   28.2477 C   0  0  0  0  0  0
   21.2008   23.7822   21.6927 N   0  0  0  0  0  0
   30.7527   15.7951   28.1910 N   0  0  0  0  0  0
   19.9504   24.3295   24.1837 C   0  0  0  0  0  0
   19.2782   24.5371   25.3873 C   0  0  0  0  0  0
   19.6482   23.8280   26.5235 C   0  0  0  0  0  0
   21.8875   21.6925   29.9604 H   0  0  0  0  0  0
   21.6638   19.9865   29.6855 H   0  0  0  0  0  0
   23.4925   18.5330   29.0975 H   0  0  0  0  0  0
   24.4551   19.3587   27.8604 H   0  0  0  0  0  0
   24.2052   21.4778   28.8250 H   0  0  0  0  0  0
   20.7546   22.7748   28.5042 H   0  0  0  0  0  0
   23.2261   22.4905   21.8591 H   0  0  0  0  0  0
   29.9561   13.5670   27.9204 H   0  0  0  0  0  0
   22.1941   22.0158   25.2123 H   0  0  0  0  0  0
   28.0194   19.1306   30.5928 H   0  0  0  0  0  0
   25.1542   16.9353   28.2315 H   0  0  0  0  0  0
   29.7472   17.5387   29.9687 H   0  0  0  0  0  0
   26.8795   15.3597   27.6026 H   0  0  0  0  0  0
   21.6567   23.6816   20.7987 H   0  0  0  0  0  0
   20.2219   24.0334   21.6887 H   0  0  0  0  0  0
   31.4743   15.1887   27.8042 H   0  0  0  0  0  0
   30.9869   16.7634   28.3760 H   0  0  0  0  0  0
   19.6404   24.9197   23.3330 H   0  0  0  0  0  0
   18.4740   25.2549   25.4388 H   0  0  0  0  0  0
   19.1283   24.0116   27.4522 H   0  0  0  0  0  0
  1  2  2  0  0  0
  1  4  1  0  0  0
  2  8  1  0  0  0
  2 12  1  0  0  0
  3  7  1  0  0  0
  3 11  1  0  0  0
  3 18  2  0  0  0
  4 10  1  0  0  0
  5  9  1  0  0  0
  5 14  2  0  0  0
  5 23  1  0  0  0
  6 13  1  0  0  0
  6 15  2  0  0  0
  6 24  1  0  0  0
  7 10  1  0  0  0
  7 28  1  0  0  0
  7 29  1  0  0  0
  8 10  1  0  0  0
  8 30  1  0  0  0
  8 31  1  0  0  0
  9 16  2  0  0  0
  9 25  1  0  0  0
 10 32  1  0  0  0
 11 17  1  0  0  0
 11 33  1  0  0  0
 12 19  1  0  0  0
 12 20  2  0  0  0
 13 22  2  0  0  0
 13 21  1  0  0  0
 14 34  1  0  0  0
 15 35  1  0  0  0
 16 17  1  0  0  0
 16 36  1  0  0  0
 17 27  2  0  0  0
 19 21  2  0  0  0
 19 37  1  0  0  0
 20 22  1  0  0  0
 20 38  1  0  0  0
 21 39  1  0  0  0
 22 40  1  0  0  0
 23 41  1  0  0  0
 23 42  1  0  0  0
 24 43  1  0  0  0
 24 44  1  0  0  0
 25 26  2  0  0  0
 25 45  1  0  0  0
 26 27  1  0  0  0
 26 46  1  0  0  0
 27 47  1  0  0  0
M  END
> <s_m_entry_id>
39264

> <s_m_entry_name>
dock_pv.20

> <s_m_Source_Path>
/home/csk/Desktop/cluster/DUD-E-result/try1

> <s_m_Source_File>
dock_pv.maegz

> <i_m_Source_File_Index>
20

> <chembl_id>
CHEMBL317590

> <chembl_pref_name>
None

> <i_lp_mmshare_version>
53161

> <r_lp_tautomer_probability>
1

> <s_lp_Force_Field>
OPLS_2005

> <r_lp_Energy>
16.939809

> <b_lp_Chiralities_Consistent>
1

> <s_lp_Variant>
CHEMBL209_lig1013-2

> <s_i_glide_gridfile>
glide-grid_2ayw

> <i_i_glide_lignum>
1540

> <i_i_glide_rotatable_bonds>
7

> <r_i_docking_score>
-7.5230418558338

> <r_i_glide_ligand_efficiency>
-0.278631179845696

> <r_i_glide_ligand_efficiency_sa>
-0.835893538618766

> <r_i_glide_ligand_efficiency_ln>
-1.75124011699988

> <r_i_glide_gscore>
-7.5230418558338

> <r_i_glide_lipo>
-2.42665481886629

> <r_i_glide_hbond>
-0.603129885312282

> <r_i_glide_metal>
0

> <r_i_glide_rewards>
-1.73708890455302

> <r_i_glide_evdw>
-42.4475173950195

> <r_i_glide_ecoul>
-8.42778968811035

> <r_i_glide_erotb>
0.723874319479926

> <r_i_glide_esite>
-0.0934982436146066

> <r_i_glide_emodel>
-71.5994190135207

> <r_i_glide_energy>
-50.8753070831299

> <r_i_glide_einternal>
3.66780090332031

> <i_i_glide_confnum>
10

> <i_i_glide_posenum>
109

> <r_i_glide_eff_state_penalty>
0

> <s_user_duplicate_titles>
CHEMBL209_lig1013

> <i_f3d_flags>
0

> <s_m_subgroup_title>
dock_pv

> <s_m_subgroupid>
dock_pv

> <b_m_subgroup_collapsed>
1

$$$$
CHEMBL209_lig744
                    3D
 Schrodinger Suite 2021-1.
 35 37  0  0  1  0            999 V2000
   23.6465   20.2445   29.9129 C   0  0  0  0  0  0
   24.9809   19.7209   30.1908 C   0  0  0  0  0  0
   22.7446   20.8685   30.7837 C   0  0  0  0  0  0
   25.4381   18.6539   29.5835 N   0  0  0  0  0  0
   23.1023   20.1104   28.6278 C   0  0  0  0  0  0
   21.8206   20.6219   28.4648 C   0  0  0  0  0  0
   21.2834   21.3331   29.9663 S   0  0  0  0  0  0
   26.7008   18.3884   29.8518 C   0  0  0  0  0  0
   26.1414   20.4956   31.2241 S   0  0  0  0  0  0
   21.0005   20.5385   27.2458 C   0  0  0  0  0  0
   27.2851   19.2744   30.7613 C   0  0  0  0  0  0
   27.3617   17.2219   29.1976 C   0  0  0  0  0  0
   21.5528   20.1351   26.1896 N   0  0  0  0  0  0
   22.9274   21.2118   32.5009 S   0  0  0  0  0  0
   28.7526   17.2183   29.0610 C   0  0  0  0  0  0
   19.6948   20.9333   27.3949 N   0  0  0  0  0  0
   29.3997   16.1194   28.5086 C   0  0  0  0  0  0
   30.7531   16.1330   28.3694 O   0  0  0  0  0  0
   26.6299   16.1207   28.7247 C   0  0  0  0  0  0
   27.2861   15.0116   28.1904 C   0  0  0  0  0  0
   28.6755   15.0066   28.0987 C   0  0  0  0  0  0
   22.8656   19.4907   33.0766 C   0  0  0  0  0  0
   23.6344   19.6271   27.8201 H   0  0  0  0  0  0
   28.2877   19.2713   31.1633 H   0  0  0  0  0  0
   20.8859   20.1334   25.4248 H   0  0  0  0  0  0
   29.3380   18.0642   29.3888 H   0  0  0  0  0  0
   19.0598   20.8545   26.6150 H   0  0  0  0  0  0
   19.3329   21.1731   28.3059 H   0  0  0  0  0  0
   31.1513   16.9945   28.5911 H   0  0  0  0  0  0
   25.5521   16.0982   28.8086 H   0  0  0  0  0  0
   26.7237   14.1510   27.8625 H   0  0  0  0  0  0
   29.2021   14.1501   27.7033 H   0  0  0  0  0  0
   22.8850   19.4607   34.1655 H   0  0  0  0  0  0
   23.7198   18.9237   32.7059 H   0  0  0  0  0  0
   21.9533   19.0000   32.7395 H   0  0  0  0  0  0
  1  2  1  0  0  0
  1  3  2  0  0  0
  1  5  1  0  0  0
  2  4  2  0  0  0
  2  9  1  0  0  0
  3  7  1  0  0  0
  3 14  1  0  0  0
  4  8  1  0  0  0
  5  6  2  0  0  0
  5 23  1  0  0  0
  6 10  1  0  0  0
  6  7  1  0  0  0
  8 12  1  0  0  0
  8 11  2  0  0  0
  9 11  1  0  0  0
 10 13  2  0  0  0
 10 16  1  0  0  0
 11 24  1  0  0  0
 12 15  2  0  0  0
 12 19  1  0  0  0
 13 25  1  0  0  0
 14 22  1  0  0  0
 15 17  1  0  0  0
 15 26  1  0  0  0
 16 27  1  0  0  0
 16 28  1  0  0  0
 17 18  1  0  0  0
 17 21  2  0  0  0
 18 29  1  0  0  0
 19 20  2  0  0  0
 19 30  1  0  0  0
 20 21  1  0  0  0
 20 31  1  0  0  0
 21 32  1  0  0  0
 22 33  1  0  0  0
 22 34  1  0  0  0
 22 35  1  0  0  0
M  END
> <s_m_entry_id>
39265

> <s_m_entry_name>
dock_pv.21

> <s_m_Source_Path>
/home/csk/Desktop/cluster/DUD-E-result/try1

> <s_m_Source_File>
dock_pv.maegz

> <i_m_Source_File_Index>
21

> <chembl_id>
CHEMBL28849

> <chembl_pref_name>
None

> <i_lp_mmshare_version>
53161

> <r_lp_tautomer_probability>
0.999999999997365

> <s_lp_Force_Field>
OPLS_2005

> <r_lp_Energy>
7.272545

> <b_lp_Chiralities_Consistent>
1

> <s_lp_Variant>
CHEMBL209_lig744-1

> <s_i_glide_gridfile>
glide-grid_2ayw

> <i_i_glide_lignum>
1153

> <i_i_glide_rotatable_bonds>
5

> <r_i_docking_score>
-7.47580560200843

> <r_i_glide_ligand_efficiency>
-0.339809345545838

> <r_i_glide_ligand_efficiency_sa>
-0.952159150162649

> <r_i_glide_ligand_efficiency_ln>
-1.82735957576573

> <r_i_glide_gscore>
-7.47580560200843

> <r_i_glide_lipo>
-2.37739076605758

> <r_i_glide_hbond>
-0.639359821855318

> <r_i_glide_metal>
0

> <r_i_glide_rewards>
-1.28802553357168

> <r_i_glide_evdw>
-35.6716232299805

> <r_i_glide_ecoul>
-11.3505229949951

> <r_i_glide_erotb>
0.315130130224441

> <r_i_glide_esite>
0

> <r_i_glide_emodel>
-64.7845010628644

> <r_i_glide_energy>
-47.0221462249756

> <r_i_glide_einternal>
5.0571117401123

> <i_i_glide_confnum>
3

> <i_i_glide_posenum>
3

> <r_i_glide_eff_state_penalty>
0

> <s_user_duplicate_titles>
CHEMBL209_lig744,40637

> <i_f3d_flags>
0

> <s_m_subgroup_title>
dock_pv

> <s_m_subgroupid>
dock_pv

> <b_m_subgroup_collapsed>
1

$$$$
CHEMBL209_lig1192
                    3D
 Schrodinger Suite 2021-1.
 58 59  0  0  1  0            999 V2000
   29.9535   15.6999   28.1909 N   0  0  0  0  0  0
   28.5790   15.7374   28.1907 C   0  0  0  0  0  0
   27.8457   14.9384   27.5447 N   0  0  0  0  0  0
   27.9847   16.8226   29.0256 C   0  0  0  0  0  0
   28.7671   17.5824   29.9128 C   0  0  0  0  0  0
   28.2028   18.5362   30.7483 C   0  0  0  0  0  0
   26.8328   18.8049   30.6919 C   0  0  0  0  0  0
   26.2042   19.7126   31.5238 O   0  0  0  0  0  0
   26.7418   20.9404   31.8172 C   0  0  0  0  0  0
   27.8168   21.3876   31.4103 O   0  0  0  0  0  0
   25.8280   21.7290   32.6361 C   0  0  0  0  0  0
   24.6228   21.2035   32.9941 O   0  0  0  0  0  0
   23.9302   22.1691   33.6586 C   0  0  0  0  0  0
   22.5181   21.8356   34.1141 C   0  0  0  0  0  0
   21.6800   20.9255   33.1615 C   0  0  1  0  0  0
   20.1809   20.8628   33.5828 C   0  0  0  0  0  0
   19.9330   20.3134   35.0151 C   0  0  0  0  0  0
   18.4509   20.1695   35.3904 C   0  0  0  0  0  0
   17.9528   19.1192   35.7918 O   0  0  0  0  0  0
   17.7787   21.3475   35.2621 O   0  0  0  0  0  0
   21.8048   21.3299   31.6714 C   0  0  0  0  0  0
   21.4113   22.4327   31.2934 O   0  0  0  0  0  0
   22.3526   20.4167   30.8447 N   0  0  0  0  0  0
   22.4938   20.5031   29.3787 C   0  0  1  0  0  0
   21.0971   20.5368   28.6988 C   0  0  0  0  0  0
   21.1244   20.3116   27.1873 C   0  0  0  0  0  0
   22.0312   19.7330   26.5905 O   0  0  0  0  0  0
   20.0007   20.7910   26.5910 O   0  0  0  0  0  0
   23.4618   21.6182   28.9127 C   0  0  0  0  0  0
   23.3532   22.2565   27.8869 O   0  0  0  0  0  0
   24.4788   21.7330   29.8055 O   0  0  0  0  0  0
   24.7208   23.3038   33.7619 C   0  0  0  0  0  0
   25.9267   23.0267   33.1171 C   0  0  0  0  0  0
   26.0417   18.0842   29.8000 C   0  0  0  0  0  0
   26.6062   17.1074   28.9823 C   0  0  0  0  0  0
   30.4200   15.0498   27.5697 H   0  0  0  0  0  0
   30.4985   16.4632   28.5638 H   0  0  0  0  0  0
   26.8645   15.1252   27.6835 H   0  0  0  0  0  0
   29.8298   17.4156   30.0152 H   0  0  0  0  0  0
   28.8416   19.0499   31.4515 H   0  0  0  0  0  0
   21.9791   22.7692   34.2839 H   0  0  0  0  0  0
   22.5912   21.3532   35.0896 H   0  0  0  0  0  0
   22.0813   19.9139   33.2579 H   0  0  0  0  0  0
   19.7486   21.8611   33.4843 H   0  0  0  0  0  0
   19.6380   20.2316   32.8739 H   0  0  0  0  0  0
   20.4015   19.3327   35.1183 H   0  0  0  0  0  0
   20.3944   20.9554   35.7657 H   0  0  0  0  0  0
   18.3415   22.0493   34.9346 H   0  0  0  0  0  0
   22.6203   19.5256   31.2405 H   0  0  0  0  0  0
   22.9654   19.5633   29.0879 H   0  0  0  0  0  0
   20.5839   21.4753   28.9161 H   0  0  0  0  0  0
   20.4736   19.7338   29.0865 H   0  0  0  0  0  0
   19.9362   20.5405   25.6542 H   0  0  0  0  0  0
   24.2956   21.1957   30.5812 H   0  0  0  0  0  0
   24.4480   24.2330   34.2416 H   0  0  0  0  0  0
   26.7648   23.6974   32.9915 H   0  0  0  0  0  0
   24.9783   18.2645   29.7557 H   0  0  0  0  0  0
   25.9426   16.5693   28.3209 H   0  0  0  0  0  0
  1  2  1  0  0  0
  1 36  1  0  0  0
  1 37  1  0  0  0
  2  3  2  0  0  0
  2  4  1  0  0  0
  3 38  1  0  0  0
  4  5  2  0  0  0
  4 35  1  0  0  0
  5  6  1  0  0  0
  5 39  1  0  0  0
  6  7  2  0  0  0
  6 40  1  0  0  0
  7  8  1  0  0  0
  7 34  1  0  0  0
  8  9  1  0  0  0
  9 10  2  0  0  0
  9 11  1  0  0  0
 11 12  1  0  0  0
 11 33  2  0  0  0
 12 13  1  0  0  0
 13 14  1  0  0  0
 13 32  2  0  0  0
 14 15  1  0  0  0
 14 41  1  0  0  0
 14 42  1  0  0  0
 15 16  1  0  0  0
 15 21  1  0  0  0
 15 43  1  0  0  0
 16 17  1  0  0  0
 16 44  1  0  0  0
 16 45  1  0  0  0
 17 18  1  0  0  0
 17 46  1  0  0  0
 17 47  1  0  0  0
 18 19  2  0  0  0
 18 20  1  0  0  0
 20 48  1  0  0  0
 21 22  2  0  0  0
 21 23  1  0  0  0
 23 24  1  0  0  0
 23 49  1  0  0  0
 24 25  1  0  0  0
 24 29  1  0  0  0
 24 50  1  0  0  0
 25 26  1  0  0  0
 25 51  1  0  0  0
 25 52  1  0  0  0
 26 27  2  0  0  0
 26 28  1  0  0  0
 28 53  1  0  0  0
 29 30  2  0  0  0
 29 31  1  0  0  0
 31 54  1  0  0  0
 32 33  1  0  0  0
 32 55  1  0  0  0
 33 56  1  0  0  0
 34 35  2  0  0  0
 34 57  1  0  0  0
 35 58  1  0  0  0
M  END
> <s_m_entry_id>
39266

> <s_m_entry_name>
dock_pv.22

> <s_m_Source_Path>
/home/csk/Desktop/cluster/DUD-E-result/try1

> <s_m_Source_File>
dock_pv.maegz

> <i_m_Source_File_Index>
22

> <chembl_id>
CHEMBL3642926

> <chembl_pref_name>
None

> <i_lp_mmshare_version>
53161

> <r_lp_tautomer_probability>
1

> <s_lp_Force_Field>
OPLS_2005

> <r_lp_Energy>
4.441293

> <b_lp_Chiralities_Consistent>
1

> <s_lp_Variant>
CHEMBL209_lig1192-2

> <s_i_glide_gridfile>
glide-grid_2ayw

> <i_i_glide_lignum>
1788

> <i_i_glide_rotatable_bonds>
18

> <r_i_docking_score>
-7.43705805757225

> <r_i_glide_ligand_efficiency>
-0.212487373073493

> <r_i_glide_ligand_efficiency_sa>
-0.69506028657745

> <r_i_glide_ligand_efficiency_ln>
-1.63259930024768

> <r_i_glide_gscore>
-7.43705805757225

> <r_i_glide_lipo>
-1.66432082483862

> <r_i_glide_hbond>
-1.03118506171473

> <r_i_glide_metal>
0

> <r_i_glide_rewards>
-0.522989476008282

> <r_i_glide_evdw>
-36.5709762573242

> <r_i_glide_ecoul>
-23.7609615325928

> <r_i_glide_erotb>
1.1889616711609

> <r_i_glide_esite>
-0.014831323416392

> <r_i_glide_emodel>
-79.384062666595

> <r_i_glide_energy>
-60.331937789917

> <r_i_glide_einternal>
16.1498165130615

> <i_i_glide_confnum>
15

> <i_i_glide_posenum>
18

> <r_i_glide_eff_state_penalty>
0

> <s_user_duplicate_titles>
CHEMBL209_lig1192

> <i_f3d_flags>
0

> <s_m_subgroup_title>
dock_pv

> <s_m_subgroupid>
dock_pv

> <b_m_subgroup_collapsed>
1

$$$$
CHEMBL209_lig1015
                    3D
 Schrodinger Suite 2021-1.
 53 55  0  0  1  0            999 V2000
   23.6813   20.5754   30.3970 C   0  0  2  0  0  0
   26.0093   20.4898   30.5883 N   0  0  0  0  0  0
   22.6469   20.7046   31.5611 C   0  0  0  0  0  0
   24.8521   21.2711   30.8116 O   0  0  0  0  0  0
   23.2352   21.2965   29.0738 C   0  0  0  0  0  0
   24.2109   19.1382   30.1817 C   0  0  0  0  0  0
   25.7039   19.3258   30.1913 C   0  0  0  0  0  0
   18.6202   20.4434   35.3081 C   0  0  0  0  0  0
   22.9494   20.1034   32.7365 N   0  0  0  0  0  0
   29.4652   15.3070   28.3911 C   0  0  0  0  0  0
   22.2386   20.5300   28.1950 C   0  0  0  0  0  0
   20.0980   20.2289   35.2181 C   0  0  0  0  0  0
   26.6567   18.2810   29.7655 C   0  0  0  0  0  0
   28.5143   16.3488   28.8585 C   0  0  0  0  0  0
   17.9925   20.2305   36.3791 N   0  0  0  0  0  0
   29.0737   14.1325   28.1907 N   0  0  0  0  0  0
   21.6351   21.3891   31.4003 O   0  0  0  0  0  0
   22.1968   20.0740   33.9297 C   0  0  0  0  0  0
   20.8070   20.2867   33.9981 C   0  0  0  0  0  0
   22.6012   20.0023   27.1385 O   0  0  0  0  0  0
   26.2378   17.2128   28.9621 C   0  0  0  0  0  0
   28.0094   18.3653   30.1257 C   0  0  0  0  0  0
   27.1547   16.2678   28.5144 C   0  0  0  0  0  0
   28.9194   17.4121   29.6803 C   0  0  0  0  0  0
   18.0236   20.8785   34.1487 N   0  0  0  0  0  0
   30.7530   15.7334   28.1936 N   0  0  0  0  0  0
   20.9987   20.4998   28.7158 O   0  0  0  0  0  0
   20.8468   19.9427   36.3759 C   0  0  0  0  0  0
   22.2223   19.7331   36.3209 C   0  0  0  0  0  0
   22.8933   19.7864   35.1027 C   0  0  0  0  0  0
   19.9728   19.7358   28.1081 C   0  0  0  0  0  0
   22.8080   22.2737   29.2990 H   0  0  0  0  0  0
   24.1141   21.4929   28.4612 H   0  0  0  0  0  0
   23.9074   18.4197   30.9456 H   0  0  0  0  0  0
   23.8896   18.7369   29.2247 H   0  0  0  0  0  0
   23.8629   19.6798   32.7924 H   0  0  0  0  0  0
   17.0108   20.4352   36.2832 H   0  0  0  0  0  0
   29.8398   13.5567   27.8681 H   0  0  0  0  0  0
   20.2673   20.4682   33.0832 H   0  0  0  0  0  0
   25.2087   17.0970   28.6583 H   0  0  0  0  0  0
   28.3662   19.1716   30.7520 H   0  0  0  0  0  0
   26.7968   15.4595   27.8910 H   0  0  0  0  0  0
   29.9509   17.5036   29.9919 H   0  0  0  0  0  0
   17.0257   21.0165   34.1040 H   0  0  0  0  0  0
   18.5635   21.0212   33.3087 H   0  0  0  0  0  0
   31.4434   15.1045   27.7848 H   0  0  0  0  0  0
   31.0268   16.6934   28.3740 H   0  0  0  0  0  0
   20.3636   19.8735   37.3410 H   0  0  0  0  0  0
   22.7662   19.5120   37.2297 H   0  0  0  0  0  0
   23.9584   19.6072   35.0821 H   0  0  0  0  0  0
   19.0324   19.8963   28.6354 H   0  0  0  0  0  0
   19.8299   20.0199   27.0634 H   0  0  0  0  0  0
   20.2053   18.6700   28.1527 H   0  0  0  0  0  0
  1  3  1  0  0  0
  1  4  1  0  0  0
  1  5  1  0  0  0
  1  6  1  0  0  0
  2  4  1  0  0  0
  2  7  2  0  0  0
  3  9  1  0  0  0
  3 17  2  0  0  0
  5 11  1  0  0  0
  5 32  1  0  0  0
  5 33  1  0  0  0
  6  7  1  0  0  0
  6 34  1  0  0  0
  6 35  1  0  0  0
  7 13  1  0  0  0
  8 12  1  0  0  0
  8 15  2  0  0  0
  8 25  1  0  0  0
  9 18  1  0  0  0
  9 36  1  0  0  0
 10 14  1  0  0  0
 10 16  2  0  0  0
 10 26  1  0  0  0
 11 20  2  0  0  0
 11 27  1  0  0  0
 12 19  2  0  0  0
 12 28  1  0  0  0
 13 21  1  0  0  0
 13 22  2  0  0  0
 14 24  2  0  0  0
 14 23  1  0  0  0
 15 37  1  0  0  0
 16 38  1  0  0  0
 18 19  1  0  0  0
 18 30  2  0  0  0
 19 39  1  0  0  0
 21 23  2  0  0  0
 21 40  1  0  0  0
 22 24  1  0  0  0
 22 41  1  0  0  0
 23 42  1  0  0  0
 24 43  1  0  0  0
 25 44  1  0  0  0
 25 45  1  0  0  0
 26 46  1  0  0  0
 26 47  1  0  0  0
 27 31  1  0  0  0
 28 29  2  0  0  0
 28 48  1  0  0  0
 29 30  1  0  0  0
 29 49  1  0  0  0
 30 50  1  0  0  0
 31 51  1  0  0  0
 31 52  1  0  0  0
 31 53  1  0  0  0
M  END
> <s_m_entry_id>
39267

> <s_m_entry_name>
dock_pv.23

> <s_m_Source_Path>
/home/csk/Desktop/cluster/DUD-E-result/try1

> <s_m_Source_File>
dock_pv.maegz

> <i_m_Source_File_Index>
23

> <chembl_id>
CHEMBL94761

> <chembl_pref_name>
None

> <i_lp_mmshare_version>
53161

> <r_lp_tautomer_probability>
1

> <s_lp_Force_Field>
OPLS_2005

> <r_lp_Energy>
17.199586

> <b_lp_Chiralities_Consistent>
1

> <s_lp_Variant>
CHEMBL209_lig1015-1

> <s_i_glide_gridfile>
glide-grid_2ayw

> <i_i_glide_lignum>
1543

> <i_i_glide_rotatable_bonds>
9

> <r_i_docking_score>
-7.42900399082654

> <r_i_glide_ligand_efficiency>
-0.239645290026662

> <r_i_glide_ligand_efficiency_sa>
-0.75281707666476

> <r_i_glide_ligand_efficiency_ln>
-1.67546807156137

> <r_i_glide_gscore>
-7.42900399082654

> <r_i_glide_lipo>
-2.14640452048037

> <r_i_glide_hbond>
-0.618673487043784

> <r_i_glide_metal>
0

> <r_i_glide_rewards>
-1.08852209409029

> <r_i_glide_evdw>
-42.203010559082

> <r_i_glide_ecoul>
-13.2214546203613

> <r_i_glide_erotb>
0.666071917167468

> <r_i_glide_esite>
-0.148107085371267

> <r_i_glide_emodel>
-74.932523317215

> <r_i_glide_energy>
-55.4244651794434

> <r_i_glide_einternal>
11.6554203033447

> <i_i_glide_confnum>
6

> <i_i_glide_posenum>
32

> <r_i_glide_eff_state_penalty>
0

> <s_user_duplicate_titles>
CHEMBL209_lig1015

> <i_f3d_flags>
0

> <s_m_subgroup_title>
dock_pv

> <s_m_subgroupid>
dock_pv

> <b_m_subgroup_collapsed>
1

$$$$
CHEMBL209_lig705
                    3D
 Schrodinger Suite 2021-1.
 48 50  0  0  1  0            999 V2000
   24.0260   19.8214   29.3212 C   0  0  0  0  0  0
   22.9728   20.5533   29.8296 N   0  0  0  0  0  0
   25.1669   19.6780   30.1036 N   0  0  0  0  0  0
   22.0245   21.1042   28.9013 C   0  0  0  0  0  0
   22.0015   22.7242   25.4317 C   0  0  0  0  0  0
   28.9755   15.7720   28.2035 C   0  0  0  0  0  0
   23.1012   23.3333   25.3698 N   0  0  0  0  0  0
   28.5868   14.6493   27.7913 N   0  0  0  0  0  0
   26.1162   18.6976   29.6650 C   0  0  0  0  0  0
   22.4358   21.7438   27.7126 C   0  0  0  0  0  0
   21.5248   22.1302   26.7100 C   0  0  0  0  0  0
   23.9533   19.3329   28.1904 O   0  0  0  0  0  0
   28.0048   16.7944   28.7032 C   0  0  0  0  0  0
   25.7516   17.3577   29.4737 C   0  0  0  0  0  0
   27.4397   19.0693   29.3913 C   0  0  0  0  0  0
   28.3615   18.1378   28.9147 C   0  0  0  0  0  0
   26.6747   16.4344   28.9869 C   0  0  0  0  0  0
   21.1531   22.5329   24.3687 N   0  0  0  0  0  0
   30.3003   16.1330   28.2480 N   0  0  0  0  0  0
   22.7010   20.5385   31.2806 C   0  0  0  0  0  0
   25.5916   20.5533   31.2366 C   0  0  0  0  0  0
   20.6468   20.9700   29.1248 C   0  0  0  0  0  0
   20.1582   21.9188   26.9645 C   0  0  0  0  0  0
   19.7234   21.3673   28.1642 C   0  0  0  0  0  0
   24.8498   21.8817   31.4988 C   0  0  0  0  0  0
   23.4138   21.6860   32.0005 C   0  0  0  0  0  0
   23.2952   23.6793   24.4425 H   0  0  0  0  0  0
   29.3972   14.0942   27.5501 H   0  0  0  0  0  0
   23.4943   21.8808   27.5360 H   0  0  0  0  0  0
   24.7438   17.0271   29.6827 H   0  0  0  0  0  0
   27.7637   20.0929   29.5060 H   0  0  0  0  0  0
   29.3620   18.4859   28.7024 H   0  0  0  0  0  0
   26.3384   15.4163   28.8462 H   0  0  0  0  0  0
   21.4041   22.8883   23.4589 H   0  0  0  0  0  0
   20.4285   21.8287   24.4304 H   0  0  0  0  0  0
   31.0003   15.5090   27.8637 H   0  0  0  0  0  0
   30.6126   17.0360   28.5909 H   0  0  0  0  0  0
   21.6378   20.5940   31.4999 H   0  0  0  0  0  0
   23.0317   19.5830   31.6940 H   0  0  0  0  0  0
   25.5084   19.9392   32.1346 H   0  0  0  0  0  0
   26.6526   20.7850   31.1562 H   0  0  0  0  0  0
   20.2541   20.5330   30.0248 H   0  0  0  0  0  0
   19.4094   22.2011   26.2385 H   0  0  0  0  0  0
   18.6672   21.2288   28.3449 H   0  0  0  0  0  0
   25.3982   22.4591   32.2446 H   0  0  0  0  0  0
   24.8544   22.4895   30.5924 H   0  0  0  0  0  0
   22.8547   22.6121   31.8606 H   0  0  0  0  0  0
   23.4033   21.4939   33.0740 H   0  0  0  0  0  0
  1  2  1  0  0  0
  1  3  1  0  0  0
  1 12  2  0  0  0
  2  4  1  0  0  0
  2 20  1  0  0  0
  3  9  1  0  0  0
  3 21  1  0  0  0
  4 10  2  0  0  0
  4 22  1  0  0  0
  5 11  1  0  0  0
  5  7  2  0  0  0
  5 18  1  0  0  0
  6 13  1  0  0  0
  6  8  2  0  0  0
  6 19  1  0  0  0
  7 27  1  0  0  0
  8 28  1  0  0  0
  9 14  2  0  0  0
  9 15  1  0  0  0
 10 11  1  0  0  0
 10 29  1  0  0  0
 11 23  2  0  0  0
 13 16  1  0  0  0
 13 17  2  0  0  0
 14 17  1  0  0  0
 14 30  1  0  0  0
 15 16  2  0  0  0
 15 31  1  0  0  0
 16 32  1  0  0  0
 17 33  1  0  0  0
 18 34  1  0  0  0
 18 35  1  0  0  0
 19 36  1  0  0  0
 19 37  1  0  0  0
 20 26  1  0  0  0
 20 38  1  0  0  0
 20 39  1  0  0  0
 21 25  1  0  0  0
 21 40  1  0  0  0
 21 41  1  0  0  0
 22 24  2  0  0  0
 22 42  1  0  0  0
 23 24  1  0  0  0
 23 43  1  0  0  0
 24 44  1  0  0  0
 25 26  1  0  0  0
 25 45  1  0  0  0
 25 46  1  0  0  0
 26 47  1  0  0  0
 26 48  1  0  0  0
M  END
> <s_m_entry_id>
39268

> <s_m_entry_name>
dock_pv.24

> <s_m_Source_Path>
/home/csk/Desktop/cluster/DUD-E-result/try1

> <s_m_Source_File>
dock_pv.maegz

> <i_m_Source_File_Index>
24

> <chembl_id>
CHEMBL91654

> <chembl_pref_name>
None

> <i_lp_mmshare_version>
53161

> <r_lp_tautomer_probability>
1

> <s_lp_Force_Field>
OPLS_2005

> <r_lp_Energy>
60.104461

> <b_lp_Chiralities_Consistent>
1

> <s_lp_Variant>
CHEMBL209_lig705-1

> <s_i_glide_gridfile>
glide-grid_2ayw

> <i_i_glide_lignum>
1105

> <i_i_glide_rotatable_bonds>
4

> <r_i_docking_score>
-7.41915558859828

> <r_i_glide_ligand_efficiency>
-0.285352138023011

> <r_i_glide_ligand_efficiency_sa>
-0.845354586086725

> <r_i_glide_ligand_efficiency_ln>
-1.74236434574722

> <r_i_glide_gscore>
-7.41915558859828

> <r_i_glide_lipo>
-1.62724000319346

> <r_i_glide_hbond>
-0.872993538959736

> <r_i_glide_metal>
0

> <r_i_glide_rewards>
-1.8118190158171

> <r_i_glide_evdw>
-37.3220252990723

> <r_i_glide_ecoul>
-10.2025690078735

> <r_i_glide_erotb>
0.310452285290494

> <r_i_glide_esite>
-0.0210686997838364

> <r_i_glide_emodel>
-67.0752129829612

> <r_i_glide_energy>
-47.5245943069458

> <r_i_glide_einternal>
2.22891473770142

> <i_i_glide_confnum>
22

> <i_i_glide_posenum>
163

> <r_i_glide_eff_state_penalty>
0

> <s_user_duplicate_titles>
CHEMBL209_lig705

> <i_f3d_flags>
0

> <s_m_subgroup_title>
dock_pv

> <s_m_subgroupid>
dock_pv

> <b_m_subgroup_collapsed>
1

$$$$
CHEMBL209_lig874
                    3D
 Schrodinger Suite 2021-1.
 63 65  0  0  1  0            999 V2000
   20.9813   21.5906   27.0300 C   0  0  0  0  0  0
   21.9701   21.5826   29.2473 N   0  0  0  0  0  0
   21.8448   23.0603   24.7755 S   0  0  0  0  0  0
   22.1911   21.6306   27.8753 C   0  0  0  0  0  0
   21.1674   21.6639   25.6295 N   0  0  0  0  0  0
   29.3485   15.6462   28.3306 C   0  0  0  0  0  0
   28.5970   16.7694   28.8097 N   0  0  0  0  0  0
   20.6864   21.4047   29.7723 C   0  0  0  0  0  0
   19.7566   21.3710   27.5561 C   0  0  0  0  0  0
   19.5931   21.2774   28.9901 C   0  0  0  0  0  0
   23.1955   21.6482   30.0943 C   0  0  0  0  0  0
   23.8862   20.2756   30.2273 C   0  0  0  0  0  0
   22.6194   23.8834   25.7100 O   0  0  0  0  0  0
   22.4584   22.5460   23.5473 O   0  0  0  0  0  0
   28.8406   14.6317   27.7910 N   0  0  0  0  0  0
   23.3278   21.6613   27.3907 O   0  0  0  0  0  0
   20.3099   24.0332   24.2797 C   0  0  0  0  0  0
   24.9853   20.2589   30.9935 N   0  0  0  0  0  0
   27.3234   17.1650   28.1803 C   0  0  0  0  0  0
   29.1530   17.8078   29.6948 C   0  0  0  0  0  0
   23.4469   19.2749   29.6636 O   0  0  0  0  0  0
   30.7482   15.7330   28.4808 N   0  0  0  0  0  0
   25.7823   19.0683   31.2888 C   0  0  0  0  0  0
   28.1305   18.1797   30.7862 C   0  0  0  0  0  0
   26.2780   17.5710   29.2401 C   0  0  0  0  0  0
   20.6416   25.1745   23.3353 C   0  0  0  0  0  0
   26.8022   18.6780   30.1861 C   0  0  0  0  0  0
   20.5577   21.3335   31.2919 C   0  0  0  0  0  0
   20.8791   26.4542   23.8406 C   0  0  0  0  0  0
   20.7345   24.9320   21.9624 C   0  0  0  0  0  0
   21.1946   27.4949   22.9704 C   0  0  0  0  0  0
   21.0492   25.9724   21.0928 C   0  0  0  0  0  0
   21.2763   27.2496   21.6007 C   0  0  0  0  0  0
   20.4800   21.1459   25.0652 H   0  0  0  0  0  0
   18.8889   21.3055   26.9140 H   0  0  0  0  0  0
   18.6125   21.1235   29.4189 H   0  0  0  0  0  0
   22.9737   22.0609   31.0766 H   0  0  0  0  0  0
   23.9047   22.3628   29.6737 H   0  0  0  0  0  0
   29.5841   13.9888   27.5521 H   0  0  0  0  0  0
   19.6302   23.3364   23.8000 H   0  0  0  0  0  0
   19.8406   24.3871   25.1970 H   0  0  0  0  0  0
   25.2675   21.1117   31.4519 H   0  0  0  0  0  0
   26.9175   16.3636   27.5598 H   0  0  0  0  0  0
   27.5198   18.0050   27.5127 H   0  0  0  0  0  0
   30.0617   17.4662   30.1910 H   0  0  0  0  0  0
   29.4159   18.6802   29.0942 H   0  0  0  0  0  0
   31.3689   15.0667   28.0296 H   0  0  0  0  0  0
   31.1838   16.6202   28.7091 H   0  0  0  0  0  0
   25.1653   18.2170   31.5881 H   0  0  0  0  0  0
   26.3270   19.3360   32.1958 H   0  0  0  0  0  0
   27.9633   17.3332   31.4519 H   0  0  0  0  0  0
   28.5544   18.9458   31.4369 H   0  0  0  0  0  0
   25.3634   17.8971   28.7464 H   0  0  0  0  0  0
   25.9666   16.6833   29.7909 H   0  0  0  0  0  0
   27.0359   19.5491   29.5700 H   0  0  0  0  0  0
   19.5385   21.0923   31.5987 H   0  0  0  0  0  0
   21.2101   20.5671   31.7123 H   0  0  0  0  0  0
   20.8136   22.2926   31.7428 H   0  0  0  0  0  0
   20.8247   26.6427   24.9031 H   0  0  0  0  0  0
   20.5683   23.9402   21.5676 H   0  0  0  0  0  0
   21.3788   28.4868   23.3559 H   0  0  0  0  0  0
   21.1206   25.7880   20.0309 H   0  0  0  0  0  0
   21.5228   28.0565   20.9264 H   0  0  0  0  0  0
  1  4  1  0  0  0
  1  5  1  0  0  0
  1  9  2  0  0  0
  2  4  1  0  0  0
  2 11  1  0  0  0
  2  8  1  0  0  0
  3  5  1  0  0  0
  3 13  2  0  0  0
  3 14  2  0  0  0
  3 17  1  0  0  0
  4 16  2  0  0  0
  5 34  1  0  0  0
  6  7  1  0  0  0
  6 15  2  0  0  0
  6 22  1  0  0  0
  7 19  1  0  0  0
  7 20  1  0  0  0
  8 10  2  0  0  0
  8 28  1  0  0  0
  9 10  1  0  0  0
  9 35  1  0  0  0
 10 36  1  0  0  0
 11 12  1  0  0  0
 11 37  1  0  0  0
 11 38  1  0  0  0
 12 18  1  0  0  0
 12 21  2  0  0  0
 15 39  1  0  0  0
 17 26  1  0  0  0
 17 40  1  0  0  0
 17 41  1  0  0  0
 18 23  1  0  0  0
 18 42  1  0  0  0
 19 25  1  0  0  0
 19 43  1  0  0  0
 19 44  1  0  0  0
 20 24  1  0  0  0
 20 45  1  0  0  0
 20 46  1  0  0  0
 22 47  1  0  0  0
 22 48  1  0  0  0
 23 27  1  0  0  0
 23 49  1  0  0  0
 23 50  1  0  0  0
 24 27  1  0  0  0
 24 51  1  0  0  0
 24 52  1  0  0  0
 25 27  1  0  0  0
 25 53  1  0  0  0
 25 54  1  0  0  0
 26 29  2  0  0  0
 26 30  1  0  0  0
 27 55  1  0  0  0
 28 56  1  0  0  0
 28 57  1  0  0  0
 28 58  1  0  0  0
 29 31  1  0  0  0
 29 59  1  0  0  0
 30 32  2  0  0  0
 30 60  1  0  0  0
 31 33  2  0  0  0
 31 61  1  0  0  0
 32 33  1  0  0  0
 32 62  1  0  0  0
 33 63  1  0  0  0
M  END
> <s_m_entry_id>
39269

> <s_m_entry_name>
dock_pv.25

> <s_m_Source_Path>
/home/csk/Desktop/cluster/DUD-E-result/try1

> <s_m_Source_File>
dock_pv.maegz

> <i_m_Source_File_Index>
25

> <chembl_id>
CHEMBL287614

> <chembl_pref_name>
None

> <i_lp_mmshare_version>
53161

> <r_lp_tautomer_probability>
1

> <s_lp_Force_Field>
OPLS_2005

> <r_lp_Energy>
25.143684

> <b_lp_Chiralities_Consistent>
1

> <s_lp_Variant>
CHEMBL209_lig874-1

> <s_i_glide_gridfile>
glide-grid_2ayw

> <i_i_glide_lignum>
1316

> <i_i_glide_rotatable_bonds>
10

> <r_i_docking_score>
-7.39784473962092

> <r_i_glide_ligand_efficiency>
-0.224177113321846

> <r_i_glide_ligand_efficiency_sa>
-0.719055786141125

> <r_i_glide_ligand_efficiency_ln>
-1.64524236610162

> <r_i_glide_gscore>
-7.39784473962092

> <r_i_glide_lipo>
-2.01002565896415

> <r_i_glide_hbond>
-1.12569334524377

> <r_i_glide_metal>
0

> <r_i_glide_rewards>
-0.89742479227928

> <r_i_glide_evdw>
-42.1658325195312

> <r_i_glide_ecoul>
-12.6139621734619

> <r_i_glide_erotb>
0.718787438650278

> <r_i_glide_esite>
-0.0831024297881576

> <r_i_glide_emodel>
-72.4716201987152

> <r_i_glide_energy>
-54.7797946929932

> <r_i_glide_einternal>
13.8616542816162

> <i_i_glide_confnum>
25

> <i_i_glide_posenum>
199

> <r_i_glide_eff_state_penalty>
0

> <s_user_duplicate_titles>
CHEMBL209_lig874,51990

> <i_f3d_flags>
0

> <s_m_subgroup_title>
dock_pv

> <s_m_subgroupid>
dock_pv

> <b_m_subgroup_collapsed>
1

$$$$
CHEMBL209_lig1161
                    3D
 Schrodinger Suite 2021-1.
 52 53  0  0  1  0            999 V2000
   18.5937   21.5733   29.0506 C   0  0  0  0  0  0
   19.4449   21.1642   27.8248 C   0  0  2  0  0  0
   20.4947   20.0602   28.1373 C   0  0  0  0  0  0
   21.6819   20.4806   28.9915 C   0  0  0  0  0  0
   22.7637   19.6592   28.9415 O   0  0  0  0  0  0
   23.7074   20.1557   29.7882 C   0  0  0  0  0  0
   23.2284   21.3079   30.3888 C   0  0  0  0  0  0
   21.9555   21.5275   29.8654 C   0  0  0  0  0  0
   24.9788   19.4596   29.9332 C   0  0  0  0  0  0
   25.7901   19.7334   30.8212 O   0  0  0  0  0  0
   25.1416   18.5378   28.9404 O   0  0  0  0  0  0
   26.2872   17.7790   28.8224 C   0  0  0  0  0  0
   27.5736   18.3251   28.8730 C   0  0  0  0  0  0
   28.6858   17.5069   28.7107 C   0  0  0  0  0  0
   28.5500   16.1307   28.4649 C   0  0  0  0  0  0
   27.2459   15.6091   28.3934 C   0  0  0  0  0  0
   26.1341   16.4190   28.5762 C   0  0  0  0  0  0
   29.7178   15.2336   28.2541 C   0  0  0  0  0  0
   29.5537   14.0842   27.7908 N   0  0  0  0  0  0
   30.9485   15.7343   28.5849 N   0  0  0  0  0  0
   20.0819   22.3573   27.0774 C   0  0  0  0  0  0
   20.3200   23.4275   27.6378 O   0  0  0  0  0  0
   20.3518   22.1334   25.7845 N   0  0  0  0  0  0
   21.0085   22.9684   24.7628 C   0  0  2  0  0  0
   22.5196   23.1476   25.0759 C   0  0  0  0  0  0
   23.3455   23.6047   23.8621 C   0  0  0  0  0  0
   23.1516   23.2025   22.7177 O   0  0  0  0  0  0
   24.3519   24.4628   24.1940 O   0  0  0  0  0  0
   20.2980   24.2995   24.4135 C   0  0  0  0  0  0
   20.1353   24.6766   23.2725 O   0  0  0  0  0  0
   19.8985   24.9714   25.5305 O   0  0  0  0  0  0
   17.7930   22.2547   28.7639 H   0  0  0  0  0  0
   18.1253   20.7029   29.5120 H   0  0  0  0  0  0
   19.1716   22.0754   29.8223 H   0  0  0  0  0  0
   18.7314   20.7174   27.1296 H   0  0  0  0  0  0
   19.9955   19.2006   28.5876 H   0  0  0  0  0  0
   20.8719   19.6698   27.1907 H   0  0  0  0  0  0
   23.7456   21.9225   31.1124 H   0  0  0  0  0  0
   21.3072   22.3543   30.1113 H   0  0  0  0  0  0
   27.7146   19.3834   29.0366 H   0  0  0  0  0  0
   29.6534   17.9750   28.7568 H   0  0  0  0  0  0
   27.0785   14.5558   28.2104 H   0  0  0  0  0  0
   25.1503   15.9815   28.5209 H   0  0  0  0  0  0
   30.4429   13.6170   27.6561 H   0  0  0  0  0  0
   31.7563   15.2041   28.2645 H   0  0  0  0  0  0
   31.0916   16.7153   28.8003 H   0  0  0  0  0  0
   20.0615   21.2328   25.4134 H   0  0  0  0  0  0
   20.9269   22.3536   23.8637 H   0  0  0  0  0  0
   22.9444   22.1894   25.3761 H   0  0  0  0  0  0
   22.6636   23.8329   25.9129 H   0  0  0  0  0  0
   24.8988   24.7000   23.4331 H   0  0  0  0  0  0
   20.0958   24.4687   26.3368 H   0  0  0  0  0  0
  1  2  1  0  0  0
  1 32  1  0  0  0
  1 33  1  0  0  0
  1 34  1  0  0  0
  2  3  1  0  0  0
  2 21  1  0  0  0
  2 35  1  0  0  0
  3  4  1  0  0  0
  3 36  1  0  0  0
  3 37  1  0  0  0
  4  5  1  0  0  0
  4  8  2  0  0  0
  5  6  1  0  0  0
  6  7  2  0  0  0
  6  9  1  0  0  0
  7  8  1  0  0  0
  7 38  1  0  0  0
  8 39  1  0  0  0
  9 10  2  0  0  0
  9 11  1  0  0  0
 11 12  1  0  0  0
 12 13  2  0  0  0
 12 17  1  0  0  0
 13 14  1  0  0  0
 13 40  1  0  0  0
 14 15  2  0  0  0
 14 41  1  0  0  0
 15 16  1  0  0  0
 15 18  1  0  0  0
 16 17  2  0  0  0
 16 42  1  0  0  0
 17 43  1  0  0  0
 18 19  2  0  0  0
 18 20  1  0  0  0
 19 44  1  0  0  0
 20 45  1  0  0  0
 20 46  1  0  0  0
 21 22  2  0  0  0
 21 23  1  0  0  0
 23 24  1  0  0  0
 23 47  1  0  0  0
 24 25  1  0  0  0
 24 29  1  0  0  0
 24 48  1  0  0  0
 25 26  1  0  0  0
 25 49  1  0  0  0
 25 50  1  0  0  0
 26 27  2  0  0  0
 26 28  1  0  0  0
 28 51  1  0  0  0
 29 30  2  0  0  0
 29 31  1  0  0  0
 31 52  1  0  0  0
M  END
> <s_m_entry_id>
39270

> <s_m_entry_name>
dock_pv.26

> <s_m_Source_Path>
/home/csk/Desktop/cluster/DUD-E-result/try1

> <s_m_Source_File>
dock_pv.maegz

> <i_m_Source_File_Index>
26

> <chembl_id>
CHEMBL3642879

> <chembl_pref_name>
None

> <i_lp_mmshare_version>
53161

> <r_lp_tautomer_probability>
1

> <s_lp_Force_Field>
OPLS_2005

> <r_lp_Energy>
6.510153

> <b_lp_Chiralities_Consistent>
1

> <s_lp_Variant>
CHEMBL209_lig1161-1

> <s_i_glide_gridfile>
glide-grid_2ayw

> <i_i_glide_lignum>
1736

> <i_i_glide_rotatable_bonds>
14

> <r_i_docking_score>
-7.39325961313193

> <r_i_glide_ligand_efficiency>
-0.238492245584901

> <r_i_glide_ligand_efficiency_sa>
-0.74919492516821

> <r_i_glide_ligand_efficiency_ln>
-1.66740661895762

> <r_i_glide_gscore>
-7.39325961313193

> <r_i_glide_lipo>
-2.48986822730712

> <r_i_glide_hbond>
-0.989126502711245

> <r_i_glide_metal>
0

> <r_i_glide_rewards>
-0.51536723045711

> <r_i_glide_evdw>
-42.6210250854492

> <r_i_glide_ecoul>
-15.6251668930054

> <r_i_glide_erotb>
1.17561278823118

> <r_i_glide_esite>
-0.0996841526643744

> <r_i_glide_emodel>
-73.2319512550021

> <r_i_glide_energy>
-58.2461919784546

> <r_i_glide_einternal>
17.5498027801514

> <i_i_glide_confnum>
62

> <i_i_glide_posenum>
79

> <r_i_glide_eff_state_penalty>
0

> <s_user_duplicate_titles>
CHEMBL209_lig1161,CHEMBL209_lig1178

> <i_f3d_flags>
0

> <s_m_subgroup_title>
dock_pv

> <s_m_subgroupid>
dock_pv

> <b_m_subgroup_collapsed>
1

$$$$
CHEMBL209_lig566
                    3D
 Schrodinger Suite 2021-1.
 50 51  0  0  1  0            999 V2000
   21.7290   21.3666   26.8418 C   0  0  0  0  0  0
   29.7500   15.2516   28.3043 C   0  0  0  0  0  0
   22.3873   21.5747   28.1689 C   0  0  0  0  0  0
   22.5743   20.5328   29.0995 C   0  0  0  0  0  0
   23.2294   20.7299   30.3246 C   0  0  0  0  0  0
   23.0266   18.6323   33.6910 C   0  0  0  0  0  0
   28.6005   16.1374   28.6294 C   0  0  0  0  0  0
   23.4907   19.5283   31.2447 C   0  0  2  0  0  0
   21.7144   22.2769   25.9720 N   0  0  0  0  0  0
   29.5530   14.1279   27.7910 N   0  0  0  0  0  0
   23.2166   19.8341   32.7463 C   0  0  0  0  0  0
   22.9958   18.8020   34.9099 O   0  0  0  0  0  0
   24.8807   18.8823   30.9968 C   0  0  0  0  0  0
   27.2947   15.7332   28.2943 C   0  0  0  0  0  0
   28.7530   17.3751   29.2803 C   0  0  0  0  0  0
   21.1530   20.1330   26.6610 N   0  0  0  0  0  0
   31.0001   15.7330   28.5910 N   0  0  0  0  0  0
   26.3728   17.7488   29.2260 C   0  0  0  0  0  0
   25.1654   18.6221   29.5044 C   0  0  0  0  0  0
   27.6531   18.1770   29.5705 C   0  0  0  0  0  0
   26.1953   16.5232   28.5910 C   0  0  0  0  0  0
   22.8802   17.4486   33.0607 O   0  0  0  0  0  0
   22.8621   22.8466   28.5418 C   0  0  0  0  0  0
   23.6755   22.0105   30.6566 C   0  0  0  0  0  0
   23.4862   23.0660   29.7697 C   0  0  0  0  0  0
   22.5598   16.2677   33.7781 C   0  0  0  0  0  0
   22.2427   19.5316   28.8663 H   0  0  0  0  0  0
   22.7530   18.7837   30.9541 H   0  0  0  0  0  0
   21.2284   21.9834   25.1378 H   0  0  0  0  0  0
   30.4323   13.6650   27.5891 H   0  0  0  0  0  0
   24.0111   20.4605   33.1507 H   0  0  0  0  0  0
   22.3022   20.4227   32.8210 H   0  0  0  0  0  0
   25.6639   19.5204   31.4083 H   0  0  0  0  0  0
   24.9451   17.9359   31.5360 H   0  0  0  0  0  0
   27.1112   14.7884   27.8022 H   0  0  0  0  0  0
   29.7254   17.7329   29.5815 H   0  0  0  0  0  0
   20.5752   19.9821   25.8423 H   0  0  0  0  0  0
   21.0096   19.5261   27.4532 H   0  0  0  0  0  0
   31.7899   15.2007   28.2308 H   0  0  0  0  0  0
   31.1530   16.7194   28.7769 H   0  0  0  0  0  0
   24.2910   18.1624   29.0473 H   0  0  0  0  0  0
   25.3062   19.5702   28.9910 H   0  0  0  0  0  0
   27.7992   19.1267   30.0637 H   0  0  0  0  0  0
   25.2079   16.1750   28.3224 H   0  0  0  0  0  0
   22.7461   23.6900   27.8752 H   0  0  0  0  0  0
   24.1832   22.1892   31.5931 H   0  0  0  0  0  0
   23.8347   24.0557   30.0261 H   0  0  0  0  0  0
   22.5963   15.4064   33.1111 H   0  0  0  0  0  0
   23.2603   16.0967   34.5910 H   0  0  0  0  0  0
   21.5530   16.3296   34.1910 H   0  0  0  0  0  0
  1  3  1  0  0  0
  1  9  2  0  0  0
  1 16  1  0  0  0
  2  7  1  0  0  0
  2 10  2  0  0  0
  2 17  1  0  0  0
  3  4  2  0  0  0
  3 23  1  0  0  0
  4  5  1  0  0  0
  4 27  1  0  0  0
  5  8  1  0  0  0
  5 24  2  0  0  0
  6 11  1  0  0  0
  6 12  2  0  0  0
  6 22  1  0  0  0
  7 14  2  0  0  0
  7 15  1  0  0  0
  8 11  1  0  0  0
  8 13  1  0  0  0
  8 28  1  0  0  0
  9 29  1  0  0  0
 10 30  1  0  0  0
 11 31  1  0  0  0
 11 32  1  0  0  0
 13 19  1  0  0  0
 13 33  1  0  0  0
 13 34  1  0  0  0
 14 21  1  0  0  0
 14 35  1  0  0  0
 15 20  2  0  0  0
 15 36  1  0  0  0
 16 37  1  0  0  0
 16 38  1  0  0  0
 17 39  1  0  0  0
 17 40  1  0  0  0
 18 19  1  0  0  0
 18 20  1  0  0  0
 18 21  2  0  0  0
 19 41  1  0  0  0
 19 42  1  0  0  0
 20 43  1  0  0  0
 21 44  1  0  0  0
 22 26  1  0  0  0
 23 25  2  0  0  0
 23 45  1  0  0  0
 24 25  1  0  0  0
 24 46  1  0  0  0
 25 47  1  0  0  0
 26 48  1  0  0  0
 26 49  1  0  0  0
 26 50  1  0  0  0
M  END
> <s_m_entry_id>
39272

> <s_m_entry_name>
dock_pv.28

> <s_m_Source_Path>
/home/csk/Desktop/cluster/DUD-E-result/try1

> <s_m_Source_File>
dock_pv.maegz

> <i_m_Source_File_Index>
28

> <chembl_id>
CHEMBL156702

> <chembl_pref_name>
None

> <i_lp_mmshare_version>
53161

> <r_lp_tautomer_probability>
1

> <s_lp_Force_Field>
OPLS_2005

> <r_lp_Energy>
2.200576

> <b_lp_Chiralities_Consistent>
1

> <s_lp_Variant>
CHEMBL209_lig566-1

> <s_i_glide_gridfile>
glide-grid_2ayw

> <i_i_glide_lignum>
909

> <i_i_glide_rotatable_bonds>
9

> <r_i_docking_score>
-7.37820631843635

> <r_i_glide_ligand_efficiency>
-0.283777166093706

> <r_i_glide_ligand_efficiency_sa>
-0.840688737943374

> <r_i_glide_ligand_efficiency_ln>
-1.7327475440152

> <r_i_glide_gscore>
-7.37820631843635

> <r_i_glide_lipo>
-2.15242416857093

> <r_i_glide_hbond>
-0.996355262539715

> <r_i_glide_metal>
0

> <r_i_glide_rewards>
-1.3961089835276

> <r_i_glide_evdw>
-36.7291297912598

> <r_i_glide_ecoul>
-12.2617626190186

> <r_i_glide_erotb>
0.921918902175982

> <r_i_glide_esite>
-0.0795159235583148

> <r_i_glide_emodel>
-68.0127054949594

> <r_i_glide_energy>
-48.9908924102783

> <r_i_glide_einternal>
4.94192171096802

> <i_i_glide_confnum>
50

> <i_i_glide_posenum>
100

> <r_i_glide_eff_state_penalty>
0

> <s_user_duplicate_titles>
CHEMBL209_lig566,261157

> <i_f3d_flags>
0

> <s_m_subgroup_title>
dock_pv

> <s_m_subgroupid>
dock_pv

> <b_m_subgroup_collapsed>
1

$$$$
CHEMBL209_lig861
                    3D
 Schrodinger Suite 2021-1.
 38 40  0  0  1  0            999 V2000
   27.5570   18.2660   29.7769 C   0  0  0  0  0  0
   27.7483   19.5403   30.4379 C   0  0  0  0  0  0
   28.6144   17.4420   29.2724 C   0  0  0  0  0  0
   29.4938   15.3082   28.1915 C   0  0  0  0  0  0
   28.3893   16.1967   28.6589 C   0  0  0  0  0  0
   26.2226   17.7787   29.6121 C   0  0  0  0  0  0
   29.2648   14.1330   27.8276 N   0  0  0  0  0  0
   26.6241   20.2907   30.8454 C   0  0  0  0  0  0
   27.0599   15.7748   28.5279 C   0  0  0  0  0  0
   29.1666   20.1066   30.6922 C   0  0  2  0  0  0
   25.3376   19.7728   30.6677 C   0  0  0  0  0  0
   25.9985   16.5340   28.9906 C   0  0  0  0  0  0
   25.1321   18.5379   30.0781 C   0  0  0  0  0  0
   30.4682   21.5003   32.0459 O   0  0  0  0  0  0
   30.7529   15.8403   28.1914 N   0  0  0  0  0  0
   26.8385   21.5466   31.3908 O   0  0  0  0  0  0
   29.4979   20.4676   32.1521 C   0  0  0  0  0  0
   30.1132   22.3118   30.9339 C   0  0  0  0  0  0
   29.5537   21.3432   29.8881 C   0  0  0  0  0  0
   25.7624   22.2676   31.9809 C   0  0  0  0  0  0
   29.6292   17.7710   29.3684 H   0  0  0  0  0  0
   30.1235   13.6789   27.5383 H   0  0  0  0  0  0
   26.8277   14.8220   28.0743 H   0  0  0  0  0  0
   29.9244   19.3522   30.5133 H   0  0  0  0  0  0
   24.4644   20.3225   30.9844 H   0  0  0  0  0  0
   24.9919   16.1532   28.8997 H   0  0  0  0  0  0
   24.1268   18.1584   29.9638 H   0  0  0  0  0  0
   31.5138   15.2864   27.8002 H   0  0  0  0  0  0
   30.9530   16.7881   28.4871 H   0  0  0  0  0  0
   28.6620   20.8275   32.7494 H   0  0  0  0  0  0
   29.9173   19.6404   32.7193 H   0  0  0  0  0  0
   30.9726   22.8796   30.5760 H   0  0  0  0  0  0
   29.3801   23.0537   31.2558 H   0  0  0  0  0  0
   30.3529   21.1214   29.1788 H   0  0  0  0  0  0
   28.7166   21.8255   29.3893 H   0  0  0  0  0  0
   26.1474   23.1900   32.4178 H   0  0  0  0  0  0
   25.0090   22.5445   31.2424 H   0  0  0  0  0  0
   25.2906   21.6964   32.7821 H   0  0  0  0  0  0
  1  2  2  0  0  0
  1  3  1  0  0  0
  1  6  1  0  0  0
  2  8  1  0  0  0
  2 10  1  0  0  0
  3  5  2  0  0  0
  3 21  1  0  0  0
  4  5  1  0  0  0
  4  7  2  0  0  0
  4 15  1  0  0  0
  5  9  1  0  0  0
  6 12  1  0  0  0
  6 13  2  0  0  0
  7 22  1  0  0  0
  8 16  1  0  0  0
  8 11  2  0  0  0
  9 12  2  0  0  0
  9 23  1  0  0  0
 10 17  1  0  0  0
 10 19  1  0  0  0
 10 24  1  0  0  0
 11 13  1  0  0  0
 11 25  1  0  0  0
 12 26  1  0  0  0
 13 27  1  0  0  0
 14 17  1  0  0  0
 14 18  1  0  0  0
 15 28  1  0  0  0
 15 29  1  0  0  0
 16 20  1  0  0  0
 17 30  1  0  0  0
 17 31  1  0  0  0
 18 19  1  0  0  0
 18 32  1  0  0  0
 18 33  1  0  0  0
 19 34  1  0  0  0
 19 35  1  0  0  0
 20 36  1  0  0  0
 20 37  1  0  0  0
 20 38  1  0  0  0
M  END
> <s_m_entry_id>
39273

> <s_m_entry_name>
dock_pv.29

> <s_m_Source_Path>
/home/csk/Desktop/cluster/DUD-E-result/try1

> <s_m_Source_File>
dock_pv.maegz

> <i_m_Source_File_Index>
29

> <chembl_id>
CHEMBL320817

> <chembl_pref_name>
None

> <i_lp_mmshare_version>
53161

> <r_lp_tautomer_probability>
1

> <s_lp_Force_Field>
OPLS_2005

> <r_lp_Energy>
31.092843

> <b_lp_Chiralities_Consistent>
1

> <s_lp_Variant>
CHEMBL209_lig861-1

> <s_i_glide_gridfile>
glide-grid_2ayw

> <i_i_glide_lignum>
1302

> <i_i_glide_rotatable_bonds>
3

> <r_i_docking_score>
-7.34939192552387

> <r_i_glide_ligand_efficiency>
-0.367469596276194

> <r_i_glide_ligand_efficiency_sa>
-0.997465944699071

> <r_i_glide_ligand_efficiency_ln>
-1.83931039978987

> <r_i_glide_gscore>
-7.34939192552387

> <r_i_glide_lipo>
-2.05912471055279

> <r_i_glide_hbond>
-0.776840708955905

> <r_i_glide_metal>
0

> <r_i_glide_rewards>
-1.71699722822304

> <r_i_glide_evdw>
-25.5211124420166

> <r_i_glide_ecoul>
-11.3109683990479

> <r_i_glide_erotb>
0.244733359860239

> <r_i_glide_esite>
-0.0684617556943713

> <r_i_glide_emodel>
-52.8149907427197

> <r_i_glide_energy>
-36.8320808410645

> <r_i_glide_einternal>
1.24091768264771

> <i_i_glide_confnum>
6

> <i_i_glide_posenum>
36

> <r_i_glide_eff_state_penalty>
0

> <s_user_duplicate_titles>
CHEMBL209_lig861,170534

> <i_f3d_flags>
0

> <s_m_subgroup_title>
dock_pv

> <s_m_subgroupid>
dock_pv

> <b_m_subgroup_collapsed>
1

$$$$
CHEMBL209_lig808
                    3D
 Schrodinger Suite 2021-1.
 57 61  0  0  1  0            999 V2000
   25.6774   19.0817   30.9826 N   0  0  0  0  0  0
   25.6702   19.3086   32.3621 C   0  0  0  0  0  0
   24.6238   19.7749   30.4232 C   0  0  0  0  0  0
   35.0135   17.2416   38.4573 C   0  0  0  0  0  0
   23.9335   20.4700   31.3891 C   0  0  0  0  0  0
   29.3578   15.7002   28.2179 C   0  0  0  0  0  0
   33.9457   18.0521   37.7954 C   0  0  0  0  0  0
   31.6451   18.2334   36.9078 C   0  0  0  0  0  0
   24.5730   20.1870   32.6341 C   0  0  0  0  0  0
   26.4902   18.8177   33.3967 C   0  0  0  0  0  0
   26.5991   18.3095   30.2410 C   0  0  0  0  0  0
   32.6740   17.4975   37.5523 C   0  0  0  0  0  0
   28.4190   16.6500   28.8710 C   0  0  0  0  0  0
   34.7616   16.1322   38.9947 N   0  0  0  0  0  0
   28.9582   14.5864   27.7916 N   0  0  0  0  0  0
   31.9073   19.5714   36.4924 C   0  0  0  0  0  0
   30.3623   17.6805   36.6645 C   0  0  0  0  0  0
   26.8891   18.7227   35.8330 N   0  0  0  0  0  0
   34.1592   19.3825   37.3908 C   0  0  0  0  0  0
   26.1421   17.4312   29.2540 C   0  0  0  0  0  0
   27.9634   18.3831   30.5234 C   0  0  0  0  0  0
   26.1901   19.2055   34.7115 C   0  0  0  0  0  0
   28.8589   17.5700   29.8362 C   0  0  0  0  0  0
   27.0448   16.6138   28.5770 C   0  0  0  0  0  0
   33.1760   20.1293   36.7518 C   0  0  0  0  0  0
   24.3304   20.5842   33.9541 C   0  0  0  0  0  0
   30.8895   20.3049   35.8365 C   0  0  0  0  0  0
   36.2733   17.7983   38.4187 N   0  0  0  0  0  0
   30.6603   16.1306   28.1489 N   0  0  0  0  0  0
   29.3659   18.4274   36.0281 C   0  0  0  0  0  0
   28.0066   17.7765   35.7857 C   0  0  0  0  0  0
   25.1394   20.0839   34.9718 C   0  0  0  0  0  0
   29.6449   19.7287   35.6072 C   0  0  0  0  0  0
   24.4547   19.7222   29.3565 H   0  0  0  0  0  0
   23.0666   21.0931   31.2214 H   0  0  0  0  0  0
   27.3019   18.1434   33.1809 H   0  0  0  0  0  0
   32.4542   16.4811   37.8568 H   0  0  0  0  0  0
   35.6045   15.7257   39.3724 H   0  0  0  0  0  0
   29.7433   14.0710   27.4128 H   0  0  0  0  0  0
   30.1622   16.6682   36.9872 H   0  0  0  0  0  0
   26.5937   19.0398   36.7467 H   0  0  0  0  0  0
   35.1073   19.8692   37.5592 H   0  0  0  0  0  0
   25.0887   17.3474   29.0292 H   0  0  0  0  0  0
   28.3390   19.0600   31.2767 H   0  0  0  0  0  0
   29.9047   17.6362   30.1077 H   0  0  0  0  0  0
   26.6580   15.9233   27.8375 H   0  0  0  0  0  0
   33.3799   21.1457   36.4454 H   0  0  0  0  0  0
   23.5136   21.2512   34.1862 H   0  0  0  0  0  0
   31.0861   21.3185   35.5180 H   0  0  0  0  0  0
   37.0517   17.3314   38.8593 H   0  0  0  0  0  0
   36.4260   18.7110   38.0199 H   0  0  0  0  0  0
   31.3637   15.5337   27.7264 H   0  0  0  0  0  0
   30.9583   17.0491   28.4796 H   0  0  0  0  0  0
   28.0487   17.2526   34.8353 H   0  0  0  0  0  0
   27.8276   17.0118   36.5434 H   0  0  0  0  0  0
   24.9279   20.3822   35.9915 H   0  0  0  0  0  0
   28.8857   20.3094   35.1027 H   0  0  0  0  0  0
  1  2  1  0  0  0
  1  3  1  0  0  0
  1 11  1  0  0  0
  2  9  1  0  0  0
  2 10  2  0  0  0
  3  5  2  0  0  0
  3 34  1  0  0  0
  4  7  1  0  0  0
  4 14  2  0  0  0
  4 28  1  0  0  0
  5  9  1  0  0  0
  5 35  1  0  0  0
  6 13  1  0  0  0
  6 15  2  0  0  0
  6 29  1  0  0  0
  7 12  2  0  0  0
  7 19  1  0  0  0
  8 17  2  0  0  0
  8 12  1  0  0  0
  8 16  1  0  0  0
  9 26  2  0  0  0
 10 22  1  0  0  0
 10 36  1  0  0  0
 11 20  1  0  0  0
 11 21  2  0  0  0
 12 37  1  0  0  0
 13 23  2  0  0  0
 13 24  1  0  0  0
 14 38  1  0  0  0
 15 39  1  0  0  0
 16 27  2  0  0  0
 16 25  1  0  0  0
 17 30  1  0  0  0
 17 40  1  0  0  0
 18 22  1  0  0  0
 18 31  1  0  0  0
 18 41  1  0  0  0
 19 25  2  0  0  0
 19 42  1  0  0  0
 20 24  2  0  0  0
 20 43  1  0  0  0
 21 23  1  0  0  0
 21 44  1  0  0  0
 22 32  2  0  0  0
 23 45  1  0  0  0
 24 46  1  0  0  0
 25 47  1  0  0  0
 26 32  1  0  0  0
 26 48  1  0  0  0
 27 33  1  0  0  0
 27 49  1  0  0  0
 28 50  1  0  0  0
 28 51  1  0  0  0
 29 52  1  0  0  0
 29 53  1  0  0  0
 30 31  1  0  0  0
 30 33  2  0  0  0
 31 54  1  0  0  0
 31 55  1  0  0  0
 32 56  1  0  0  0
 33 57  1  0  0  0
M  END
> <s_m_entry_id>
39274

> <s_m_entry_name>
dock_pv.30

> <s_m_Source_Path>
/home/csk/Desktop/cluster/DUD-E-result/try1

> <s_m_Source_File>
dock_pv.maegz

> <i_m_Source_File_Index>
30

> <chembl_id>
CHEMBL172413

> <chembl_pref_name>
None

> <i_lp_mmshare_version>
53161

> <r_lp_tautomer_probability>
1

> <s_lp_Force_Field>
OPLS_2005

> <r_lp_Energy>
13.055704

> <b_lp_Chiralities_Consistent>
1

> <s_lp_Variant>
CHEMBL209_lig808-1

> <s_i_glide_gridfile>
glide-grid_2ayw

> <i_i_glide_lignum>
1229

> <i_i_glide_rotatable_bonds>
6

> <r_i_docking_score>
-7.33566507919514

> <r_i_glide_ligand_efficiency>
-0.222292881187731

> <r_i_glide_ligand_efficiency_sa>
-0.713012046892314

> <r_i_glide_ligand_efficiency_ln>
-1.63141393157197

> <r_i_glide_gscore>
-7.33566507919514

> <r_i_glide_lipo>
-2.34175890805113

> <r_i_glide_hbond>
-1.05169234051224

> <r_i_glide_metal>
0

> <r_i_glide_rewards>
-0.758863966196221

> <r_i_glide_evdw>
-38.6480407714844

> <r_i_glide_ecoul>
-10.8232936859131

> <r_i_glide_erotb>
0.425485316054929

> <r_i_glide_esite>
-0.0529390890292901

> <r_i_glide_emodel>
-69.4795479397146

> <r_i_glide_energy>
-49.4713344573975

> <r_i_glide_einternal>
2.95090818405151

> <i_i_glide_confnum>
11

> <i_i_glide_posenum>
163

> <r_i_glide_eff_state_penalty>
0

> <s_user_duplicate_titles>
CHEMBL209_lig808,289705

> <i_f3d_flags>
0

> <s_m_subgroup_title>
dock_pv

> <s_m_subgroupid>
dock_pv

> <b_m_subgroup_collapsed>
1

$$$$
CHEMBL209_lig858
                    3D
 Schrodinger Suite 2021-1.
 25 26  0  0  1  0            999 V2000
   28.7531   17.4994   29.2258 C   0  0  0  0  0  0
   27.7623   18.4097   29.6935 C   0  0  0  0  0  0
   29.4615   15.2931   28.1914 C   0  0  0  0  0  0
   28.4248   16.2647   28.6389 C   0  0  0  0  0  0
   29.1529   14.1337   27.8405 N   0  0  0  0  0  0
   28.0761   19.6692   30.2939 C   0  0  0  0  0  0
   27.0644   15.9461   28.5209 C   0  0  0  0  0  0
   26.3892   18.0320   29.5711 C   0  0  0  0  0  0
   26.0653   16.7916   28.9826 C   0  0  0  0  0  0
   30.7534   15.7347   28.1986 N   0  0  0  0  0  0
   29.3870   20.1284   30.4366 N   0  0  0  0  0  0
   25.7185   20.1114   30.6468 C   0  0  0  0  0  0
   27.0518   20.4890   30.7627 C   0  0  0  0  0  0
   25.3803   18.8997   30.0541 C   0  0  0  0  0  0
   29.7861   17.7697   29.3627 H   0  0  0  0  0  0
   29.9848   13.6216   27.5815 H   0  0  0  0  0  0
   26.7610   15.0049   28.0851 H   0  0  0  0  0  0
   25.0333   16.4853   28.9157 H   0  0  0  0  0  0
   31.4812   15.1437   27.7943 H   0  0  0  0  0  0
   30.9909   16.6920   28.4282 H   0  0  0  0  0  0
   29.5541   21.0232   30.8683 H   0  0  0  0  0  0
   30.1464   19.5538   30.0945 H   0  0  0  0  0  0
   24.9425   20.7572   31.0256 H   0  0  0  0  0  0
   27.2863   21.4324   31.2328 H   0  0  0  0  0  0
   24.3430   18.6054   29.9718 H   0  0  0  0  0  0
  1  2  1  0  0  0
  1  4  2  0  0  0
  1 15  1  0  0  0
  2  6  2  0  0  0
  2  8  1  0  0  0
  3  4  1  0  0  0
  3  5  2  0  0  0
  3 10  1  0  0  0
  4  7  1  0  0  0
  5 16  1  0  0  0
  6 11  1  0  0  0
  6 13  1  0  0  0
  7  9  2  0  0  0
  7 17  1  0  0  0
  8 14  2  0  0  0
  8  9  1  0  0  0
  9 18  1  0  0  0
 10 19  1  0  0  0
 10 20  1  0  0  0
 11 21  1  0  0  0
 11 22  1  0  0  0
 12 14  1  0  0  0
 12 13  2  0  0  0
 12 23  1  0  0  0
 13 24  1  0  0  0
 14 25  1  0  0  0
M  END
> <s_m_entry_id>
39275

> <s_m_entry_name>
dock_pv.31

> <s_m_Source_Path>
/home/csk/Desktop/cluster/DUD-E-result/try1

> <s_m_Source_File>
dock_pv.maegz

> <i_m_Source_File_Index>
31

> <chembl_id>
CHEMBL319264

> <chembl_pref_name>
None

> <i_lp_mmshare_version>
53161

> <r_lp_tautomer_probability>
1

> <s_lp_Force_Field>
OPLS_2005

> <r_lp_Energy>
8.9788

> <b_lp_Chiralities_Consistent>
1

> <s_lp_Variant>
CHEMBL209_lig858-1

> <s_i_glide_gridfile>
glide-grid_2ayw

> <i_i_glide_lignum>
1299

> <i_i_glide_rotatable_bonds>
1

> <r_i_docking_score>
-7.32806277666918

> <r_i_glide_ligand_efficiency>
-0.52343305547637

> <r_i_glide_ligand_efficiency_sa>
-1.26154812836021

> <r_i_glide_ligand_efficiency_ln>
-2.01372556486873

> <r_i_glide_gscore>
-7.32806277666918

> <r_i_glide_lipo>
-1.74189405722326

> <r_i_glide_hbond>
-0.706939573083774

> <r_i_glide_metal>
0

> <r_i_glide_rewards>
-2.31244145740998

> <r_i_glide_evdw>
-21.7167930603027

> <r_i_glide_ecoul>
-9.39073467254639

> <r_i_glide_erotb>
0

> <r_i_glide_esite>
-0.0723378350550713

> <r_i_glide_emodel>
-45.2651623532097

> <r_i_glide_energy>
-31.1075277328491

> <r_i_glide_einternal>
0.0759198740124702

> <i_i_glide_confnum>
1

> <i_i_glide_posenum>
171

> <r_i_glide_eff_state_penalty>
0

> <s_user_duplicate_titles>
CHEMBL209_lig858,170378

> <i_f3d_flags>
0

> <s_m_subgroup_title>
dock_pv

> <s_m_subgroupid>
dock_pv

> <b_m_subgroup_collapsed>
1

$$$$
CHEMBL209_lig1142
                    3D
 Schrodinger Suite 2021-1.
 39 40  0  0  1  0            999 V2000
   19.2694   21.1454   26.9912 C   0  0  0  0  0  0
   20.6768   21.2194   27.6176 C   0  0  1  0  0  0
   20.7282   20.4008   28.9348 C   0  0  0  0  0  0
   21.9527   20.7053   29.7722 C   0  0  0  0  0  0
   23.0828   20.0026   29.4957 O   0  0  0  0  0  0
   24.0603   20.4665   30.3201 C   0  0  0  0  0  0
   23.5482   21.4656   31.1347 C   0  0  0  0  0  0
   22.2042   21.6057   30.7950 C   0  0  0  0  0  0
   25.4102   19.9402   30.1977 C   0  0  0  0  0  0
   26.3812   20.5761   30.6100 O   0  0  0  0  0  0
   25.4157   18.7266   29.5587 O   0  0  0  0  0  0
   26.5411   17.9576   29.2943 C   0  0  0  0  0  0
   27.8352   18.1850   29.7882 C   0  0  0  0  0  0
   28.8800   17.3327   29.4544 C   0  0  0  0  0  0
   28.6798   16.2062   28.6399 C   0  0  0  0  0  0
   27.3773   15.9794   28.1659 C   0  0  0  0  0  0
   26.3333   16.8443   28.4807 C   0  0  0  0  0  0
   29.7870   15.2681   28.3047 C   0  0  0  0  0  0
   29.5531   14.1414   27.7931 N   0  0  0  0  0  0
   31.0480   15.7330   28.5909 N   0  0  0  0  0  0
   21.7563   20.8104   26.5908 C   0  0  0  0  0  0
   22.3517   19.7334   26.5955 O   0  0  0  0  0  0
   21.9579   21.7935   25.6694 O   0  0  0  0  0  0
   19.1746   21.7939   26.1198 H   0  0  0  0  0  0
   19.0356   20.1334   26.6664 H   0  0  0  0  0  0
   18.4976   21.4489   27.6993 H   0  0  0  0  0  0
   20.8520   22.2634   27.8855 H   0  0  0  0  0  0
   19.8482   20.6408   29.5329 H   0  0  0  0  0  0
   20.6511   19.3319   28.7301 H   0  0  0  0  0  0
   24.0888   22.0272   31.8828 H   0  0  0  0  0  0
   21.4970   22.2979   31.2272 H   0  0  0  0  0  0
   28.0723   19.0023   30.4476 H   0  0  0  0  0  0
   29.8503   17.5512   29.8769 H   0  0  0  0  0  0
   27.1597   15.1256   27.5396 H   0  0  0  0  0  0
   25.3455   16.6379   28.0951 H   0  0  0  0  0  0
   30.4182   13.6546   27.5864 H   0  0  0  0  0  0
   31.8288   15.1894   28.2272 H   0  0  0  0  0  0
   31.2088   16.7227   28.7551 H   0  0  0  0  0  0
   21.3717   22.5378   25.8078 H   0  0  0  0  0  0
  1  2  1  0  0  0
  1 24  1  0  0  0
  1 25  1  0  0  0
  1 26  1  0  0  0
  2  3  1  0  0  0
  2 21  1  0  0  0
  2 27  1  0  0  0
  3  4  1  0  0  0
  3 28  1  0  0  0
  3 29  1  0  0  0
  4  5  1  0  0  0
  4  8  2  0  0  0
  5  6  1  0  0  0
  6  7  2  0  0  0
  6  9  1  0  0  0
  7  8  1  0  0  0
  7 30  1  0  0  0
  8 31  1  0  0  0
  9 10  2  0  0  0
  9 11  1  0  0  0
 11 12  1  0  0  0
 12 13  2  0  0  0
 12 17  1  0  0  0
 13 14  1  0  0  0
 13 32  1  0  0  0
 14 15  2  0  0  0
 14 33  1  0  0  0
 15 16  1  0  0  0
 15 18  1  0  0  0
 16 17  2  0  0  0
 16 34  1  0  0  0
 17 35  1  0  0  0
 18 19  2  0  0  0
 18 20  1  0  0  0
 19 36  1  0  0  0
 20 37  1  0  0  0
 20 38  1  0  0  0
 21 22  2  0  0  0
 21 23  1  0  0  0
 23 39  1  0  0  0
M  END
> <s_m_entry_id>
39276

> <s_m_entry_name>
dock_pv.32

> <s_m_Source_Path>
/home/csk/Desktop/cluster/DUD-E-result/try1

> <s_m_Source_File>
dock_pv.maegz

> <i_m_Source_File_Index>
32

> <chembl_id>
CHEMBL3642861

> <chembl_pref_name>
None

> <i_lp_mmshare_version>
53161

> <r_lp_tautomer_probability>
1

> <s_lp_Force_Field>
OPLS_2005

> <r_lp_Energy>
9.816566

> <b_lp_Chiralities_Consistent>
1

> <s_lp_Variant>
CHEMBL209_lig1142-2

> <s_i_glide_gridfile>
glide-grid_2ayw

> <i_i_glide_lignum>
1704

> <i_i_glide_rotatable_bonds>
8

> <r_i_docking_score>
-7.30107294793951

> <r_i_glide_ligand_efficiency>
-0.317437954258239

> <r_i_glide_ligand_efficiency_sa>
-0.902751315323115

> <r_i_glide_ligand_efficiency_ln>
-1.76546564128107

> <r_i_glide_gscore>
-7.30107294793951

> <r_i_glide_lipo>
-1.93506304164944

> <r_i_glide_hbond>
-1.13326745068155

> <r_i_glide_metal>
0

> <r_i_glide_rewards>
-1.50990769528666

> <r_i_glide_evdw>
-31.9122467041016

> <r_i_glide_ecoul>
-14.3430442810059

> <r_i_glide_erotb>
1.11632552638357

> <r_i_glide_esite>
-0.0920913093494752

> <r_i_glide_emodel>
-63.8020428498247

> <r_i_glide_energy>
-46.2552909851074

> <r_i_glide_einternal>
6.95294046401978

> <i_i_glide_confnum>
15

> <i_i_glide_posenum>
192

> <r_i_glide_eff_state_penalty>
0

> <s_user_duplicate_titles>
CHEMBL209_lig1142,CHEMBL209_lig1174

> <i_f3d_flags>
0

> <s_m_subgroup_title>
dock_pv

> <s_m_subgroupid>
dock_pv

> <b_m_subgroup_collapsed>
1

$$$$
CHEMBL209_lig1259
                    3D
 Schrodinger Suite 2021-1.
 52 53  0  0  1  0            999 V2000
   30.3472   16.1327   28.1910 N   0  0  0  0  0  0
   29.0366   15.7183   28.1977 C   0  0  0  0  0  0
   28.6569   14.5850   27.7926 N   0  0  0  0  0  0
   28.0439   16.7025   28.7251 C   0  0  0  0  0  0
   26.6953   16.3279   28.8869 C   0  0  0  0  0  0
   25.7450   17.2072   29.3914 C   0  0  0  0  0  0
   26.0896   18.5197   29.7215 C   0  0  0  0  0  0
   25.1280   19.4043   30.1765 O   0  0  0  0  0  0
   24.0787   19.7334   29.3542 C   0  0  0  0  0  0
   23.9464   19.3411   28.1914 O   0  0  0  0  0  0
   23.1161   20.6128   30.0141 C   0  0  0  0  0  0
   23.2111   21.3434   31.1907 C   0  0  0  0  0  0
   22.0717   22.1182   31.4464 C   0  0  0  0  0  0
   21.0557   22.0099   30.4953 C   0  0  0  0  0  0
   19.7010   22.7243   30.4689 C   0  0  0  0  0  0
   18.9382   22.7967   29.1109 C   0  0  0  0  0  0
   19.7479   23.3709   27.9354 C   0  0  0  0  0  0
   20.5632   24.2662   28.1425 O   0  0  0  0  0  0
   19.5448   22.8098   26.7260 N   0  0  0  0  0  0
   20.4472   22.8752   25.5639 C   0  0  1  0  0  0
   20.6531   24.3317   25.0409 C   0  0  0  0  0  0
   21.6078   24.5024   23.8342 C   0  0  0  0  0  0
   21.1598   23.7302   22.5972 C   0  0  0  0  0  0
   21.4604   22.5604   22.3753 O   0  0  0  0  0  0
   20.3534   24.4739   21.7925 O   0  0  0  0  0  0
   21.7533   22.1139   25.8790 C   0  0  0  0  0  0
   22.7880   22.6580   26.1932 O   0  0  0  0  0  0
   21.5526   20.7652   25.7910 O   0  0  0  0  0  0
   21.5631   20.8650   29.2801 S   0  0  0  0  0  0
   27.4218   18.9189   29.5751 C   0  0  0  0  0  0
   27.7946   20.1783   29.8987 F   0  0  0  0  0  0
   28.3800   18.0233   29.0879 C   0  0  0  0  0  0
   31.0389   15.5114   27.7843 H   0  0  0  0  0  0
   30.6546   17.0253   28.5605 H   0  0  0  0  0  0
   27.6636   14.4575   27.9023 H   0  0  0  0  0  0
   26.3507   15.3331   28.6473 H   0  0  0  0  0  0
   24.7284   16.8640   29.5161 H   0  0  0  0  0  0
   24.0832   21.3341   31.8303 H   0  0  0  0  0  0
   21.9864   22.7601   32.3119 H   0  0  0  0  0  0
   19.8123   23.7366   30.8601 H   0  0  0  0  0  0
   19.0432   22.2322   31.1870 H   0  0  0  0  0  0
   18.0277   23.3855   29.2229 H   0  0  0  0  0  0
   18.6351   21.7836   28.8414 H   0  0  0  0  0  0
   18.8330   22.0986   26.6592 H   0  0  0  0  0  0
   19.9477   22.3314   24.7654 H   0  0  0  0  0  0
   21.0377   24.9652   25.8379 H   0  0  0  0  0  0
   19.6836   24.7550   24.7788 H   0  0  0  0  0  0
   22.6198   24.1838   24.0843 H   0  0  0  0  0  0
   21.6894   25.5603   23.5759 H   0  0  0  0  0  0
   19.9773   23.9372   21.0821 H   0  0  0  0  0  0
   20.6777   20.5343   25.4567 H   0  0  0  0  0  0
   29.3922   18.3841   28.9894 H   0  0  0  0  0  0
  1  2  1  0  0  0
  1 33  1  0  0  0
  1 34  1  0  0  0
  2  3  2  0  0  0
  2  4  1  0  0  0
  3 35  1  0  0  0
  4  5  2  0  0  0
  4 32  1  0  0  0
  5  6  1  0  0  0
  5 36  1  0  0  0
  6  7  2  0  0  0
  6 37  1  0  0  0
  7  8  1  0  0  0
  7 30  1  0  0  0
  8  9  1  0  0  0
  9 10  2  0  0  0
  9 11  1  0  0  0
 11 12  2  0  0  0
 11 29  1  0  0  0
 12 13  1  0  0  0
 12 38  1  0  0  0
 13 14  2  0  0  0
 13 39  1  0  0  0
 14 15  1  0  0  0
 14 29  1  0  0  0
 15 16  1  0  0  0
 15 40  1  0  0  0
 15 41  1  0  0  0
 16 17  1  0  0  0
 16 42  1  0  0  0
 16 43  1  0  0  0
 17 18  2  0  0  0
 17 19  1  0  0  0
 19 20  1  0  0  0
 19 44  1  0  0  0
 20 21  1  0  0  0
 20 26  1  0  0  0
 20 45  1  0  0  0
 21 22  1  0  0  0
 21 46  1  0  0  0
 21 47  1  0  0  0
 22 23  1  0  0  0
 22 48  1  0  0  0
 22 49  1  0  0  0
 23 24  2  0  0  0
 23 25  1  0  0  0
 25 50  1  0  0  0
 26 27  2  0  0  0
 26 28  1  0  0  0
 28 51  1  0  0  0
 30 31  1  0  0  0
 30 32  2  0  0  0
 32 52  1  0  0  0
M  END
> <s_m_entry_id>
39278

> <s_m_entry_name>
dock_pv.34

> <s_m_Source_Path>
/home/csk/Desktop/cluster/DUD-E-result/try1

> <s_m_Source_File>
dock_pv.maegz

> <i_m_Source_File_Index>
34

> <chembl_id>
CHEMBL3642977

> <chembl_pref_name>
None

> <i_lp_mmshare_version>
53161

> <r_lp_tautomer_probability>
1

> <s_lp_Force_Field>
OPLS_2005

> <r_lp_Energy>
2.820217

> <b_lp_Chiralities_Consistent>
1

> <s_lp_Variant>
CHEMBL209_lig1259-1

> <s_i_glide_gridfile>
glide-grid_2ayw

> <i_i_glide_lignum>
1899

> <i_i_glide_rotatable_bonds>
15

> <r_i_docking_score>
-7.29333794869726

> <r_i_glide_ligand_efficiency>
-0.227916810896789

> <r_i_glide_ligand_efficiency_sa>
-0.723590769921676

> <r_i_glide_ligand_efficiency_ln>
-1.63317717559715

> <r_i_glide_gscore>
-7.29333794869726

> <r_i_glide_lipo>
-1.50364435300524

> <r_i_glide_hbond>
-0.664010820079953

> <r_i_glide_metal>
0

> <r_i_glide_rewards>
-1.25627235599347

> <r_i_glide_evdw>
-41.1508941650391

> <r_i_glide_ecoul>
-19.3456802368164

> <r_i_glide_erotb>
1.11705564815897

> <r_i_glide_esite>
-0.0270693240031535

> <r_i_glide_emodel>
-82.4156507712272

> <r_i_glide_energy>
-60.4965744018555

> <r_i_glide_einternal>
8.38438606262207

> <i_i_glide_confnum>
26

> <i_i_glide_posenum>
105

> <r_i_glide_eff_state_penalty>
0

> <s_user_duplicate_titles>
CHEMBL209_lig1259

> <i_f3d_flags>
0

> <s_m_subgroup_title>
dock_pv

> <s_m_subgroupid>
dock_pv

> <b_m_subgroup_collapsed>
1

$$$$
CHEMBL209_lig634
                    3D
 Schrodinger Suite 2021-1.
 51 52  0  0  1  0            999 V2000
   22.7254   22.1302   25.8808 N   0  0  0  0  0  0
   22.4017   22.9279   24.7681 C   0  0  0  0  0  0
   21.1398   22.9346   24.1650 C   0  0  0  0  0  0
   20.8929   23.7444   23.0590 C   0  0  0  0  0  0
   21.8960   24.5601   22.5144 C   0  0  0  0  0  0
   23.1529   24.5397   23.1351 C   0  0  0  0  0  0
   23.4065   23.7343   24.2413 C   0  0  0  0  0  0
   21.6600   25.4319   21.3351 C   0  0  0  0  0  0
   20.7533   24.9325   20.4347 N   0  0  0  0  0  0
   22.2837   26.5176   21.2019 N   0  0  0  0  0  0
   28.4813   16.3676   28.6881 C   0  0  0  0  0  0
   27.1751   16.2933   28.1838 C   0  0  0  0  0  0
   26.2170   17.2406   28.5285 C   0  0  0  0  0  0
   26.5381   18.2882   29.3967 C   0  0  0  0  0  0
   27.8402   18.3862   29.8877 C   0  0  0  0  0  0
   28.7971   17.4356   29.5413 C   0  0  0  0  0  0
   25.6130   19.2733   29.7903 N   0  0  0  0  0  0
   24.1845   18.9661   29.7870 C   0  0  0  0  0  0
   23.2769   20.1832   30.0437 C   0  0  0  0  0  0
   23.0311   21.1006   28.8219 C   0  0  0  0  0  0
   29.4635   15.3145   28.3440 C   0  0  0  0  0  0
   29.0915   14.1290   28.1901 N   0  0  0  0  0  0
   30.7529   15.7422   28.1946 N   0  0  0  0  0  0
   22.2975   20.4003   27.6545 C   0  0  0  0  0  0
   21.7155   21.3394   26.5778 C   0  0  0  0  0  0
   23.5099   22.4409   26.4391 H   0  0  0  0  0  0
   20.3395   22.3202   24.5488 H   0  0  0  0  0  0
   19.9042   23.7330   22.6246 H   0  0  0  0  0  0
   23.9539   25.1511   22.7489 H   0  0  0  0  0  0
   24.3949   23.7387   24.6758 H   0  0  0  0  0  0
   20.5533   25.4397   19.5874 H   0  0  0  0  0  0
   20.2775   24.0528   20.5941 H   0  0  0  0  0  0
   22.0272   26.9913   20.3494 H   0  0  0  0  0  0
   26.8860   15.4914   27.5176 H   0  0  0  0  0  0
   25.2325   17.1323   28.1029 H   0  0  0  0  0  0
   28.1180   19.1912   30.5526 H   0  0  0  0  0  0
   29.7880   17.5210   29.9653 H   0  0  0  0  0  0
   25.9099   19.8255   30.5809 H   0  0  0  0  0  0
   23.9822   18.1705   30.5065 H   0  0  0  0  0  0
   23.9057   18.5334   28.8300 H   0  0  0  0  0  0
   23.6852   20.7740   30.8656 H   0  0  0  0  0  0
   22.3171   19.8182   30.4082 H   0  0  0  0  0  0
   23.9758   21.5163   28.4704 H   0  0  0  0  0  0
   22.4385   21.9546   29.1510 H   0  0  0  0  0  0
   29.8723   13.5386   27.9428 H   0  0  0  0  0  0
   31.4588   15.1104   27.8202 H   0  0  0  0  0  0
   31.0128   16.7070   28.3611 H   0  0  0  0  0  0
   21.4755   19.8030   28.0515 H   0  0  0  0  0  0
   22.9740   19.6921   27.1749 H   0  0  0  0  0  0
   21.0150   22.0409   27.0340 H   0  0  0  0  0  0
   21.1328   20.7578   25.8611 H   0  0  0  0  0  0
  1  2  1  0  0  0
  1 25  1  0  0  0
  1 26  1  0  0  0
  2  7  1  0  0  0
  2  3  2  0  0  0
  3  4  1  0  0  0
  3 27  1  0  0  0
  4  5  2  0  0  0
  4 28  1  0  0  0
  5  8  1  0  0  0
  5  6  1  0  0  0
  6  7  2  0  0  0
  6 29  1  0  0  0
  7 30  1  0  0  0
  8  9  1  0  0  0
  8 10  2  0  0  0
  9 31  1  0  0  0
  9 32  1  0  0  0
 10 33  1  0  0  0
 11 16  1  0  0  0
 11 21  1  0  0  0
 11 12  2  0  0  0
 12 13  1  0  0  0
 12 34  1  0  0  0
 13 14  2  0  0  0
 13 35  1  0  0  0
 14 15  1  0  0  0
 14 17  1  0  0  0
 15 16  2  0  0  0
 15 36  1  0  0  0
 16 37  1  0  0  0
 17 18  1  0  0  0
 17 38  1  0  0  0
 18 19  1  0  0  0
 18 39  1  0  0  0
 18 40  1  0  0  0
 19 20  1  0  0  0
 19 41  1  0  0  0
 19 42  1  0  0  0
 20 24  1  0  0  0
 20 43  1  0  0  0
 20 44  1  0  0  0
 21 22  2  0  0  0
 21 23  1  0  0  0
 22 45  1  0  0  0
 23 46  1  0  0  0
 23 47  1  0  0  0
 24 25  1  0  0  0
 24 48  1  0  0  0
 24 49  1  0  0  0
 25 50  1  0  0  0
 25 51  1  0  0  0
M  END
> <s_m_entry_id>
39279

> <s_m_entry_name>
dock_pv.35

> <s_m_Source_Path>
/home/csk/Desktop/cluster/DUD-E-result/try1

> <s_m_Source_File>
dock_pv.maegz

> <i_m_Source_File_Index>
35

> <chembl_id>
CHEMBL492579

> <chembl_pref_name>
None

> <i_lp_mmshare_version>
53161

> <r_lp_tautomer_probability>
1

> <s_lp_Force_Field>
OPLS_2005

> <r_lp_Energy>
3.592937

> <b_lp_Chiralities_Consistent>
1

> <s_lp_Variant>
CHEMBL209_lig634-1

> <s_i_glide_gridfile>
glide-grid_2ayw

> <i_i_glide_lignum>
1003

> <i_i_glide_rotatable_bonds>
10

> <r_i_docking_score>
-7.28627694323888

> <r_i_glide_ligand_efficiency>
-0.291451077729555

> <r_i_glide_ligand_efficiency_sa>
-0.852208120188092

> <r_i_glide_ligand_efficiency_ln>
-1.72706598764767

> <r_i_glide_gscore>
-7.28627694323888

> <r_i_glide_lipo>
-2.96388454552904

> <r_i_glide_hbond>
-0.831489844468338

> <r_i_glide_metal>
0

> <r_i_glide_rewards>
-1.32488847627977

> <r_i_glide_evdw>
-38.9944343566895

> <r_i_glide_ecoul>
-9.76594352722168

> <r_i_glide_erotb>
1.32081385200674

> <r_i_glide_esite>
-0.0722146820507486

> <r_i_glide_emodel>
-66.572915575097

> <r_i_glide_energy>
-48.7603778839111

> <r_i_glide_einternal>
6.64632177352905

> <i_i_glide_confnum>
22

> <i_i_glide_posenum>
117

> <r_i_glide_eff_state_penalty>
0

> <s_user_duplicate_titles>
CHEMBL209_lig634

> <i_f3d_flags>
0

> <s_m_subgroup_title>
dock_pv

> <s_m_subgroupid>
dock_pv

> <b_m_subgroup_collapsed>
1

$$$$
CHEMBL209_lig583
                    3D
 Schrodinger Suite 2021-1.
 52 53  0  0  1  0            999 V2000
   25.5400   18.6053   30.5858 O   0  0  0  0  0  0
   26.4348   17.8279   29.8731 C   0  0  0  0  0  0
   26.1013   16.7893   28.9920 C   0  0  0  0  0  0
   27.0909   15.9970   28.4312 C   0  0  0  0  0  0
   28.4469   16.2249   28.7024 C   0  0  0  0  0  0
   28.7721   17.3322   29.5045 C   0  0  0  0  0  0
   27.7796   18.1138   30.0856 C   0  0  0  0  0  0
   29.4703   15.2763   28.1941 C   0  0  0  0  0  0
   30.7540   15.7332   28.2154 N   0  0  0  0  0  0
   29.1533   14.1335   27.7935 N   0  0  0  0  0  0
   22.0875   24.5590   22.0191 C   0  0  0  0  0  0
   23.1530   24.8093   22.9010 C   0  0  0  0  0  0
   23.3114   24.0836   24.0814 C   0  0  0  0  0  0
   22.3842   23.1095   24.4409 C   0  0  0  0  0  0
   21.3016   22.8662   23.5940 C   0  0  0  0  0  0
   21.1768   23.5611   22.3999 C   0  0  0  0  0  0
   22.6176   22.4332   25.6198 O   0  0  0  0  0  0
   21.6306   21.5524   26.1594 C   0  0  0  0  0  0
   22.3104   20.6115   27.1650 C   0  0  0  0  0  0
   23.1331   21.3353   28.2508 C   0  0  0  0  0  0
   21.9468   25.3221   20.7435 C   0  0  0  0  0  0
   22.7469   26.2513   20.4562 N   0  0  0  0  0  0
   20.9009   24.9340   19.9357 N   0  0  0  0  0  0
   24.0465   20.3789   29.0294 C   0  0  0  0  0  0
   23.3692   19.6096   30.1773 C   0  0  0  0  0  0
   24.1356   18.3346   30.5764 C   0  0  0  0  0  0
   25.0923   16.5192   28.7567 H   0  0  0  0  0  0
   26.7845   15.1721   27.8022 H   0  0  0  0  0  0
   29.7980   17.5602   29.7525 H   0  0  0  0  0  0
   28.0591   18.9210   30.7465 H   0  0  0  0  0  0
   31.4867   15.1631   27.7937 H   0  0  0  0  0  0
   30.9797   16.6876   28.4743 H   0  0  0  0  0  0
   29.9800   13.6263   27.4965 H   0  0  0  0  0  0
   23.8970   25.5573   22.6642 H   0  0  0  0  0  0
   24.1589   24.2832   24.7221 H   0  0  0  0  0  0
   20.5513   22.1326   23.8293 H   0  0  0  0  0  0
   20.3519   23.2995   21.7685 H   0  0  0  0  0  0
   20.8417   22.1322   26.6405 H   0  0  0  0  0  0
   21.1676   20.9246   25.4006 H   0  0  0  0  0  0
   21.5599   19.9712   27.6305 H   0  0  0  0  0  0
   22.9633   19.9439   26.6024 H   0  0  0  0  0  0
   23.7706   22.0856   27.7817 H   0  0  0  0  0  0
   22.4780   21.8852   28.9284 H   0  0  0  0  0  0
   22.5319   26.6706   19.5651 H   0  0  0  0  0  0
   20.7514   25.3971   19.0527 H   0  0  0  0  0  0
   20.2805   24.1773   20.1932 H   0  0  0  0  0  0
   24.5041   19.6744   28.3328 H   0  0  0  0  0  0
   24.8744   20.9473   29.4552 H   0  0  0  0  0  0
   23.2765   20.2673   31.0433 H   0  0  0  0  0  0
   22.3524   19.3329   29.8999 H   0  0  0  0  0  0
   23.8419   18.0266   31.5816 H   0  0  0  0  0  0
   23.8193   17.5194   29.9370 H   0  0  0  0  0  0
  1  2  1  0  0  0
  1 26  1  0  0  0
  2  7  1  0  0  0
  2  3  2  0  0  0
  3  4  1  0  0  0
  3 27  1  0  0  0
  4  5  2  0  0  0
  4 28  1  0  0  0
  5  8  1  0  0  0
  5  6  1  0  0  0
  6  7  2  0  0  0
  6 29  1  0  0  0
  7 30  1  0  0  0
  8  9  1  0  0  0
  8 10  2  0  0  0
  9 31  1  0  0  0
  9 32  1  0  0  0
 10 33  1  0  0  0
 11 16  1  0  0  0
 11 21  1  0  0  0
 11 12  2  0  0  0
 12 13  1  0  0  0
 12 34  1  0  0  0
 13 14  2  0  0  0
 13 35  1  0  0  0
 14 15  1  0  0  0
 14 17  1  0  0  0
 15 16  2  0  0  0
 15 36  1  0  0  0
 16 37  1  0  0  0
 17 18  1  0  0  0
 18 19  1  0  0  0
 18 38  1  0  0  0
 18 39  1  0  0  0
 19 20  1  0  0  0
 19 40  1  0  0  0
 19 41  1  0  0  0
 20 24  1  0  0  0
 20 42  1  0  0  0
 20 43  1  0  0  0
 21 22  2  0  0  0
 21 23  1  0  0  0
 22 44  1  0  0  0
 23 45  1  0  0  0
 23 46  1  0  0  0
 24 25  1  0  0  0
 24 47  1  0  0  0
 24 48  1  0  0  0
 25 26  1  0  0  0
 25 49  1  0  0  0
 25 50  1  0  0  0
 26 51  1  0  0  0
 26 52  1  0  0  0
M  END
> <s_m_entry_id>
39280

> <s_m_entry_name>
dock_pv.36

> <s_m_Source_Path>
/home/csk/Desktop/cluster/DUD-E-result/try1

> <s_m_Source_File>
dock_pv.maegz

> <i_m_Source_File_Index>
36

> <chembl_id>
CHEMBL3216902

> <chembl_pref_name>
None

> <i_lp_mmshare_version>
53161

> <r_lp_tautomer_probability>
1

> <s_lp_Force_Field>
OPLS_2005

> <r_lp_Energy>
8.959925

> <b_lp_Chiralities_Consistent>
1

> <s_lp_Variant>
CHEMBL209_lig583-1

> <s_i_glide_gridfile>
glide-grid_2ayw

> <i_i_glide_lignum>
934

> <i_i_glide_rotatable_bonds>
11

> <r_i_docking_score>
-7.2850879684497

> <r_i_glide_ligand_efficiency>
-0.280195691094219

> <r_i_glide_ligand_efficiency_sa>
-0.830078632349818

> <r_i_glide_ligand_efficiency_ln>
-1.71087900506706

> <r_i_glide_gscore>
-7.2850879684497

> <r_i_glide_lipo>
-2.925925295402

> <r_i_glide_hbond>
-0.702068495413945

> <r_i_glide_metal>
0

> <r_i_glide_rewards>
-1.15204763181003

> <r_i_glide_evdw>
-36.2666549682617

> <r_i_glide_ecoul>
-13.2605152130127

> <r_i_glide_erotb>
1.36891392664735

> <r_i_glide_esite>
-0.0715504421060861

> <r_i_glide_emodel>
-66.1890954202411

> <r_i_glide_energy>
-49.5271701812744

> <r_i_glide_einternal>
9.90083885192871

> <i_i_glide_confnum>
15

> <i_i_glide_posenum>
153

> <r_i_glide_eff_state_penalty>
0

> <s_user_duplicate_titles>
CHEMBL209_lig583

> <i_f3d_flags>
0

> <s_m_subgroup_title>
dock_pv

> <s_m_subgroupid>
dock_pv

> <b_m_subgroup_collapsed>
1

$$$$
CHEMBL209_lig991
                    3D
 Schrodinger Suite 2021-1.
 62 64  0  0  1  0            999 V2000
   22.5135   21.7780   26.1747 N   0  0  0  0  0  0
   22.7465   23.1019   26.3294 C   0  0  0  0  0  0
   22.0878   20.7693   27.1710 C   0  0  1  0  0  0
   23.0933   20.5545   28.3477 C   0  0  0  0  0  0
   22.1785   23.6378   21.3221 C   0  0  0  0  0  0
   22.9514   23.8991   25.0599 C   0  0  0  0  0  0
   22.6365   24.1906   22.6297 C   0  0  0  0  0  0
   23.6660   19.3370   28.4665 N   0  0  0  0  0  0
   22.5546   23.4110   23.8009 C   0  0  0  0  0  0
   21.9527   22.4072   21.1805 N   0  0  0  0  0  0
   20.6221   20.9524   27.5950 C   0  0  0  0  0  0
   22.7229   23.6702   27.4199 O   0  0  0  0  0  0
   23.2895   21.4569   29.1601 O   0  0  0  0  0  0
   19.7622   21.8899   26.9912 C   0  0  0  0  0  0
   20.0818   20.1133   28.5746 C   0  0  0  0  0  0
   22.0245   24.5685   20.3235 N   0  0  0  0  0  0
   24.5353   18.9439   29.5816 C   0  0  0  0  0  0
   17.9386   21.1936   28.3978 C   0  0  0  0  0  0
   18.7582   20.2402   28.9899 C   0  0  0  0  0  0
   18.4362   22.0160   27.3942 C   0  0  0  0  0  0
   16.2918   21.3450   28.8931 Cl  0  0  0  0  0  0
   25.9437   18.4740   29.1452 C   0  0  1  0  0  0
   29.5540   14.6125   28.1911 N   0  0  0  0  0  0
   26.8685   18.1912   30.3556 C   0  0  0  0  0  0
   25.8971   17.2249   28.2282 C   0  0  0  0  0  0
   28.2834   17.7693   29.8922 C   0  0  0  0  0  0
   27.3096   16.8022   27.7883 C   0  0  0  0  0  0
   28.2120   16.5050   29.0042 C   0  0  1  0  0  0
   23.4738   25.1960   25.1350 C   0  0  0  0  0  0
   23.1524   25.4931   22.7630 C   0  0  0  0  0  0
   23.5699   25.9877   23.9961 C   0  0  0  0  0  0
   29.6092   16.0149   28.5701 C   0  0  0  0  0  0
   22.6242   21.4144   25.2408 H   0  0  0  0  0  0
   22.0981   19.8499   26.5834 H   0  0  0  0  0  0
   23.4719   18.6309   27.7734 H   0  0  0  0  0  0
   22.1321   22.4209   23.7235 H   0  0  0  0  0  0
   21.6434   22.2053   20.2424 H   0  0  0  0  0  0
   20.0958   22.5393   26.1988 H   0  0  0  0  0  0
   20.6928   19.3322   28.9930 H   0  0  0  0  0  0
   21.7025   24.2857   19.4114 H   0  0  0  0  0  0
   22.1513   25.5499   20.5121 H   0  0  0  0  0  0
   24.6230   19.7069   30.3586 H   0  0  0  0  0  0
   24.0332   18.1227   30.0978 H   0  0  0  0  0  0
   18.3549   19.5906   29.7528 H   0  0  0  0  0  0
   17.7972   22.7502   26.9282 H   0  0  0  0  0  0
   26.4299   19.2740   28.5914 H   0  0  0  0  0  0
   30.4553   14.3334   27.8105 H   0  0  0  0  0  0
   29.3962   14.0450   29.0163 H   0  0  0  0  0  0
   26.9304   19.0756   30.9917 H   0  0  0  0  0  0
   26.4265   17.4227   30.9893 H   0  0  0  0  0  0
   25.4006   16.4000   28.7439 H   0  0  0  0  0  0
   25.2848   17.4212   27.3481 H   0  0  0  0  0  0
   28.7756   18.5804   29.3520 H   0  0  0  0  0  0
   28.9244   17.5838   30.7547 H   0  0  0  0  0  0
   27.7694   17.5848   27.1887 H   0  0  0  0  0  0
   27.2574   15.9292   27.1336 H   0  0  0  0  0  0
   27.7233   15.7330   29.5973 H   0  0  0  0  0  0
   23.7876   25.6109   26.0833 H   0  0  0  0  0  0
   23.2572   26.1442   21.9071 H   0  0  0  0  0  0
   23.9672   26.9887   24.0696 H   0  0  0  0  0  0
   29.9868   16.6087   27.7349 H   0  0  0  0  0  0
   30.3342   16.1319   29.3733 H   0  0  0  0  0  0
  1  2  1  0  0  0
  1  3  1  0  0  0
  1 33  1  0  0  0
  2  6  1  0  0  0
  2 12  2  0  0  0
  3  4  1  0  0  0
  3 11  1  0  0  0
  3 34  1  0  0  0
  4  8  1  0  0  0
  4 13  2  0  0  0
  5  7  1  0  0  0
  5 10  2  0  0  0
  5 16  1  0  0  0
  6  9  1  0  0  0
  6 29  2  0  0  0
  7  9  2  0  0  0
  7 30  1  0  0  0
  8 17  1  0  0  0
  8 35  1  0  0  0
  9 36  1  0  0  0
 10 37  1  0  0  0
 11 14  2  0  0  0
 11 15  1  0  0  0
 14 20  1  0  0  0
 14 38  1  0  0  0
 15 19  2  0  0  0
 15 39  1  0  0  0
 16 40  1  0  0  0
 16 41  1  0  0  0
 17 22  1  0  0  0
 17 42  1  0  0  0
 17 43  1  0  0  0
 18 19  1  0  0  0
 18 21  1  0  0  0
 18 20  2  0  0  0
 19 44  1  0  0  0
 20 45  1  0  0  0
 22 24  1  0  0  0
 22 25  1  0  0  0
 22 46  1  0  0  0
 23 32  1  0  0  0
 23 47  1  0  0  0
 23 48  1  0  0  0
 24 26  1  0  0  0
 24 49  1  0  0  0
 24 50  1  0  0  0
 25 27  1  0  0  0
 25 51  1  0  0  0
 25 52  1  0  0  0
 26 28  1  0  0  0
 26 53  1  0  0  0
 26 54  1  0  0  0
 27 28  1  0  0  0
 27 55  1  0  0  0
 27 56  1  0  0  0
 28 32  1  0  0  0
 28 57  1  0  0  0
 29 31  1  0  0  0
 29 58  1  0  0  0
 30 31  2  0  0  0
 30 59  1  0  0  0
 31 60  1  0  0  0
 32 61  1  0  0  0
 32 62  1  0  0  0
M  END
> <s_m_entry_id>
39281

> <s_m_entry_name>
dock_pv.37

> <s_m_Source_Path>
/home/csk/Desktop/cluster/DUD-E-result/try1

> <s_m_Source_File>
dock_pv.maegz

> <i_m_Source_File_Index>
37

> <chembl_id>
CHEMBL162051

> <chembl_pref_name>
None

> <i_lp_mmshare_version>
53161

> <r_lp_tautomer_probability>
1

> <s_lp_Force_Field>
OPLS_2005

> <r_lp_Energy>
13.247103

> <b_lp_Chiralities_Consistent>
1

> <s_lp_Variant>
CHEMBL209_lig991-2

> <s_i_glide_gridfile>
glide-grid_2ayw

> <i_i_glide_lignum>
1506

> <i_i_glide_rotatable_bonds>
10

> <r_i_docking_score>
-7.27661307357393

> <r_i_glide_ligand_efficiency>
-0.227394158549185

> <r_i_glide_ligand_efficiency_sa>
-0.721931452150792

> <r_i_glide_ligand_efficiency_ln>
-1.62943202015416

> <r_i_glide_gscore>
-7.27661307357393

> <r_i_glide_lipo>
-3.59113787983847

> <r_i_glide_hbond>
-0.476653096345568

> <r_i_glide_metal>
0

> <r_i_glide_rewards>
-0.931728152238758

> <r_i_glide_evdw>
-48.3189277648926

> <r_i_glide_ecoul>
-3.5842273235321

> <r_i_glide_erotb>
0.676486541623311

> <r_i_glide_esite>
0

> <r_i_glide_emodel>
-70.6342809679404

> <r_i_glide_energy>
-51.9031550884247

> <r_i_glide_einternal>
5.85739898681641

> <i_i_glide_confnum>
35

> <i_i_glide_posenum>
94

> <r_i_glide_eff_state_penalty>
0

> <s_user_duplicate_titles>
CHEMBL209_lig991

> <i_f3d_flags>
0

> <s_m_subgroup_title>
dock_pv

> <s_m_subgroupid>
dock_pv

> <b_m_subgroup_collapsed>
1

$$$$
CHEMBL209_lig335
                    3D
 Schrodinger Suite 2021-1.
 61 63  0  0  1  0            999 V2000
   24.0472   21.0028   31.7307 N   0  0  0  0  0  0
   26.1687   20.1024   32.3323 C   0  0  0  0  0  0
   23.3493   19.9587   32.3311 C   0  0  0  0  0  0
   25.4146   21.2236   31.7750 C   0  0  0  0  0  0
   19.5429   22.4469   27.2831 N   0  0  0  0  0  0
   28.6529   20.1035   31.0089 S   0  0  0  0  0  0
   24.1302   18.8875   32.7162 N   0  0  0  0  0  0
   25.4893   19.0247   32.7682 C   0  0  0  0  0  0
   20.9261   22.0151   26.9623 C   0  0  1  0  0  0
   19.0630   23.7767   27.0146 C   0  0  0  0  0  0
   27.5733   20.2278   32.4103 N   0  0  0  0  0  0
   23.2234   22.0719   31.0887 C   0  0  0  0  0  0
   23.0218   21.7396   29.6024 C   0  0  0  0  0  0
   21.4551   20.8605   27.8742 C   0  0  1  0  0  0
   21.8123   21.2941   29.2327 N   0  0  0  0  0  0
   27.9518   20.5975   29.8211 O   0  0  0  0  0  0
   29.9322   20.6906   31.4214 O   0  0  0  0  0  0
   22.1460   20.0341   32.5997 O   0  0  0  0  0  0
   17.8504   24.1199   27.0225 N   0  0  0  0  0  0
   25.9537   22.2655   31.3920 O   0  0  0  0  0  0
   28.9337   18.2520   30.8080 C   0  0  0  0  0  0
   23.9530   21.8678   28.8131 O   0  0  0  0  0  0
   20.0466   24.7435   26.7288 N   0  0  0  0  0  0
   18.5778   21.3343   27.3865 C   0  0  0  0  0  0
   21.1531   21.7331   25.5904 O   0  0  0  0  0  0
   23.4589   17.6575   33.1545 C   0  0  0  0  0  0
   28.1124   17.5795   29.7176 C   0  0  0  0  0  0
   20.4301   19.7207   27.9194 C   0  0  0  0  0  0
   19.0619   20.2464   28.3623 C   0  0  0  0  0  0
   26.7228   17.6971   29.7104 C   0  0  0  0  0  0
   28.7493   16.7962   28.7502 C   0  0  0  0  0  0
   27.9932   16.1228   27.7943 C   0  0  0  0  0  0
   25.9698   17.0248   28.7589 C   0  0  0  0  0  0
   26.6056   16.2392   27.8009 C   0  0  0  0  0  0
   25.9655   18.1730   33.2351 H   0  0  0  0  0  0
   21.6027   22.8479   27.1560 H   0  0  0  0  0  0
   28.0020   19.9350   33.2911 H   0  0  0  0  0  0
   23.6692   23.0617   31.1902 H   0  0  0  0  0  0
   22.2548   22.1860   31.5777 H   0  0  0  0  0  0
   22.3607   20.4414   27.4260 H   0  0  0  0  0  0
   21.0521   21.3673   29.8924 H   0  0  0  0  0  0
   17.7487   25.1005   26.8127 H   0  0  0  0  0  0
   29.9951   18.1405   30.5921 H   0  0  0  0  0  0
   28.7499   17.8037   31.7800 H   0  0  0  0  0  0
   19.8155   25.7007   26.5154 H   0  0  0  0  0  0
   21.0254   24.5139   26.6718 H   0  0  0  0  0  0
   17.5979   21.6832   27.7154 H   0  0  0  0  0  0
   18.4389   20.9123   26.3912 H   0  0  0  0  0  0
   20.5314   21.0547   25.2945 H   0  0  0  0  0  0
   23.8429   16.8065   32.5949 H   0  0  0  0  0  0
   23.6485   17.4770   34.2119 H   0  0  0  0  0  0
   22.3801   17.6693   33.0069 H   0  0  0  0  0  0
   20.7666   18.9310   28.5907 H   0  0  0  0  0  0
   20.3528   19.2688   26.9306 H   0  0  0  0  0  0
   19.0827   20.6335   29.3828 H   0  0  0  0  0  0
   18.3540   19.4212   28.3950 H   0  0  0  0  0  0
   26.2125   18.3027   30.4350 H   0  0  0  0  0  0
   29.8265   16.6964   28.7441 H   0  0  0  0  0  0
   28.4858   15.5203   27.0467 H   0  0  0  0  0  0
   24.8976   17.1191   28.7812 H   0  0  0  0  0  0
   26.0167   15.7255   27.0556 H   0  0  0  0  0  0
  1  3  1  0  0  0
  1  4  1  0  0  0
  1 12  1  0  0  0
  2  4  1  0  0  0
  2  8  2  0  0  0
  2 11  1  0  0  0
  3  7  1  0  0  0
  3 18  2  0  0  0
  4 20  2  0  0  0
  5  9  1  0  0  0
  5 10  1  0  0  0
  5 24  1  0  0  0
  6 11  1  0  0  0
  6 16  2  0  0  0
  6 17  2  0  0  0
  6 21  1  0  0  0
  7 26  1  0  0  0
  7  8  1  0  0  0
  8 35  1  0  0  0
  9 14  1  0  0  0
  9 25  1  0  0  0
  9 36  1  0  0  0
 10 19  2  0  0  0
 10 23  1  0  0  0
 11 37  1  0  0  0
 12 13  1  0  0  0
 12 38  1  0  0  0
 12 39  1  0  0  0
 13 15  1  0  0  0
 13 22  2  0  0  0
 14 15  1  0  0  0
 14 28  1  0  0  0
 14 40  1  0  0  0
 15 41  1  0  0  0
 19 42  1  0  0  0
 21 27  1  0  0  0
 21 43  1  0  0  0
 21 44  1  0  0  0
 23 45  1  0  0  0
 23 46  1  0  0  0
 24 29  1  0  0  0
 24 47  1  0  0  0
 24 48  1  0  0  0
 25 49  1  0  0  0
 26 50  1  0  0  0
 26 51  1  0  0  0
 26 52  1  0  0  0
 27 30  2  0  0  0
 27 31  1  0  0  0
 28 29  1  0  0  0
 28 53  1  0  0  0
 28 54  1  0  0  0
 29 55  1  0  0  0
 29 56  1  0  0  0
 30 33  1  0  0  0
 30 57  1  0  0  0
 31 32  2  0  0  0
 31 58  1  0  0  0
 32 34  1  0  0  0
 32 59  1  0  0  0
 33 34  2  0  0  0
 33 60  1  0  0  0
 34 61  1  0  0  0
M  END
> <s_m_entry_id>
39282

> <s_m_entry_name>
dock_pv.38

> <s_m_Source_Path>
/home/csk/Desktop/cluster/DUD-E-result/try1

> <s_m_Source_File>
dock_pv.maegz

> <i_m_Source_File_Index>
38

> <chembl_id>
CHEMBL40071

> <chembl_pref_name>
None

> <i_lp_mmshare_version>
53161

> <r_lp_tautomer_probability>
1

> <s_lp_Force_Field>
OPLS_2005

> <r_lp_Energy>
20.575374

> <b_lp_Chiralities_Consistent>
1

> <s_lp_Variant>
CHEMBL209_lig335-2

> <s_i_glide_gridfile>
glide-grid_2ayw

> <i_i_glide_lignum>
638

> <i_i_glide_rotatable_bonds>
10

> <r_i_docking_score>
-7.2599138964895

> <r_i_glide_ligand_efficiency>
-0.213526879308515

> <r_i_glide_ligand_efficiency_sa>
-0.691744197284704

> <r_i_glide_ligand_efficiency_ln>
-1.6039186134218

> <r_i_glide_gscore>
-7.2599138964895

> <r_i_glide_lipo>
-2.53861853646921

> <r_i_glide_hbond>
-0.546300228326069

> <r_i_glide_metal>
0

> <r_i_glide_rewards>
-0.365283520223863

> <r_i_glide_evdw>
-39.6870765686035

> <r_i_glide_ecoul>
-16.0216770172119

> <r_i_glide_erotb>
0.585457689300641

> <r_i_glide_esite>
-0.00756391975904562

> <r_i_glide_emodel>
-73.119391506814

> <r_i_glide_energy>
-55.7087535858154

> <r_i_glide_einternal>
10.2609539031982

> <i_i_glide_confnum>
73

> <i_i_glide_posenum>
135

> <r_i_glide_eff_state_penalty>
0

> <s_user_duplicate_titles>
CHEMBL209_lig335

> <i_f3d_flags>
0

> <s_m_subgroup_title>
dock_pv

> <s_m_subgroupid>
dock_pv

> <b_m_subgroup_collapsed>
1

$$$$
CHEMBL209_lig1008
                    3D
 Schrodinger Suite 2021-1.
 47 49  0  0  1  0            999 V2000
   27.2067   20.5087   30.1910 N   0  0  0  0  0  0
   27.6734   19.3485   30.3868 C   0  0  0  0  0  0
   24.9582   20.7531   32.7998 C   0  0  0  0  0  0
   27.3015   21.2742   31.3742 O   0  0  0  0  0  0
   29.7593   15.2710   28.2660 C   0  0  0  0  0  0
   21.4222   20.5330   27.7378 C   0  0  0  0  0  0
   26.2347   20.0034   33.2146 C   0  0  0  0  0  0
   27.6315   18.2245   29.4512 C   0  0  0  0  0  0
   28.2392   19.2327   31.7682 C   0  0  0  0  0  0
   28.6326   16.2171   28.4684 C   0  0  0  0  0  0
   28.7131   17.3418   29.3132 C   0  0  0  0  0  0
   21.6465   20.8239   29.1862 C   0  0  0  0  0  0
   27.5551   20.4019   32.4685 C   0  0  1  0  0  0
   24.2914   20.2531   31.7357 N   0  0  0  0  0  0
   29.5530   14.1325   27.7910 N   0  0  0  0  0  0
   22.3530   20.1330   26.9910 N   0  0  0  0  0  0
   22.8469   20.4475   29.8248 C   0  0  0  0  0  0
   23.0785   20.7040   31.1819 C   0  0  0  0  0  0
   24.6265   21.7576   33.4285 O   0  0  0  0  0  0
   31.0051   15.7330   28.5910 N   0  0  0  0  0  0
   20.1371   20.7380   27.2975 N   0  0  0  0  0  0
   26.4602   17.9991   28.7213 C   0  0  0  0  0  0
   27.4181   16.0010   27.7910 C   0  0  0  0  0  0
   20.6809   21.4781   29.9779 C   0  0  0  0  0  0
   26.3527   16.8839   27.9028 C   0  0  0  0  0  0
   20.8952   21.7330   31.3303 C   0  0  0  0  0  0
   22.0857   21.3445   31.9339 C   0  0  0  0  0  0
   26.3737   20.1483   34.2866 H   0  0  0  0  0  0
   26.0340   18.9361   33.1125 H   0  0  0  0  0  0
   29.3249   19.3330   31.7452 H   0  0  0  0  0  0
   27.9908   18.2771   32.2316 H   0  0  0  0  0  0
   29.6173   17.5254   29.8776 H   0  0  0  0  0  0
   28.2333   20.8931   33.1687 H   0  0  0  0  0  0
   24.7461   19.5081   31.2312 H   0  0  0  0  0  0
   30.4253   13.6356   27.6513 H   0  0  0  0  0  0
   21.9880   20.0115   26.0594 H   0  0  0  0  0  0
   23.6137   19.9392   29.2574 H   0  0  0  0  0  0
   31.7900   15.1760   28.2583 H   0  0  0  0  0  0
   31.1730   16.7265   28.7192 H   0  0  0  0  0  0
   19.8940   20.5330   26.3368 H   0  0  0  0  0  0
   19.3889   20.8664   27.9595 H   0  0  0  0  0  0
   25.6123   18.6643   28.8036 H   0  0  0  0  0  0
   27.2923   15.1516   27.1347 H   0  0  0  0  0  0
   19.7415   21.8074   29.5599 H   0  0  0  0  0  0
   25.4437   16.7015   27.3485 H   0  0  0  0  0  0
   20.1330   22.2282   31.9140 H   0  0  0  0  0  0
   22.2162   21.5340   32.9887 H   0  0  0  0  0  0
  1  2  2  0  0  0
  1  4  1  0  0  0
  2  8  1  0  0  0
  2  9  1  0  0  0
  3  7  1  0  0  0
  3 14  1  0  0  0
  3 19  2  0  0  0
  4 13  1  0  0  0
  5 10  1  0  0  0
  5 15  2  0  0  0
  5 20  1  0  0  0
  6 12  1  0  0  0
  6 16  2  0  0  0
  6 21  1  0  0  0
  7 13  1  0  0  0
  7 28  1  0  0  0
  7 29  1  0  0  0
  8 11  2  0  0  0
  8 22  1  0  0  0
  9 13  1  0  0  0
  9 30  1  0  0  0
  9 31  1  0  0  0
 10 11  1  0  0  0
 10 23  2  0  0  0
 11 32  1  0  0  0
 12 17  2  0  0  0
 12 24  1  0  0  0
 13 33  1  0  0  0
 14 18  1  0  0  0
 14 34  1  0  0  0
 15 35  1  0  0  0
 16 36  1  0  0  0
 17 18  1  0  0  0
 17 37  1  0  0  0
 18 27  2  0  0  0
 20 38  1  0  0  0
 20 39  1  0  0  0
 21 40  1  0  0  0
 21 41  1  0  0  0
 22 25  2  0  0  0
 22 42  1  0  0  0
 23 25  1  0  0  0
 23 43  1  0  0  0
 24 26  2  0  0  0
 24 44  1  0  0  0
 25 45  1  0  0  0
 26 27  1  0  0  0
 26 46  1  0  0  0
 27 47  1  0  0  0
M  END
> <s_m_entry_id>
39283

> <s_m_entry_name>
dock_pv.39

> <s_m_Source_Path>
/home/csk/Desktop/cluster/DUD-E-result/try1

> <s_m_Source_File>
dock_pv.maegz

> <i_m_Source_File_Index>
39

> <chembl_id>
CHEMBL94563

> <chembl_pref_name>
None

> <i_lp_mmshare_version>
53161

> <r_lp_tautomer_probability>
1

> <s_lp_Force_Field>
OPLS_2005

> <r_lp_Energy>
17.16372

> <b_lp_Chiralities_Consistent>
1

> <s_lp_Variant>
CHEMBL209_lig1008-1

> <s_i_glide_gridfile>
glide-grid_2ayw

> <i_i_glide_lignum>
1533

> <i_i_glide_rotatable_bonds>
7

> <r_i_docking_score>
-7.25514129563842

> <r_i_glide_ligand_efficiency>
-0.268708936875497

> <r_i_glide_ligand_efficiency_sa>
-0.80612680974087

> <r_i_glide_ligand_efficiency_ln>
-1.68887728327231

> <r_i_glide_gscore>
-7.25514129563842

> <r_i_glide_lipo>
-1.91635510704412

> <r_i_glide_hbond>
-0.801249473392783

> <r_i_glide_metal>
0

> <r_i_glide_rewards>
-1.35600730190673

> <r_i_glide_evdw>
-34.8708419799805

> <r_i_glide_ecoul>
-13.7345333099365

> <r_i_glide_erotb>
0.723874319479926

> <r_i_glide_esite>
-0.101681637285204

> <r_i_glide_emodel>
-63.9451222944312

> <r_i_glide_energy>
-48.605375289917

> <r_i_glide_einternal>
8.89147090911865

> <i_i_glide_confnum>
49

> <i_i_glide_posenum>
59

> <r_i_glide_eff_state_penalty>
0

> <s_user_duplicate_titles>
CHEMBL209_lig1008

> <i_f3d_flags>
0

> <s_m_subgroup_title>
dock_pv

> <s_m_subgroupid>
dock_pv

> <b_m_subgroup_collapsed>
1

$$$$
CHEMBL209_lig713
                    3D
 Schrodinger Suite 2021-1.
 57 59  0  0  1  0            999 V2000
   20.6322   21.7299   27.5726 C   0  0  0  0  0  0
   22.2763   21.4364   29.3299 N   0  0  0  0  0  0
   20.7773   23.3148   25.2765 S   0  0  0  0  0  0
   22.0483   21.6906   27.9808 C   0  0  0  0  0  0
   20.3778   21.8657   26.1917 N   0  0  0  0  0  0
   21.2178   21.3309   30.2390 C   0  0  0  0  0  0
   19.6265   21.5643   28.4549 C   0  0  0  0  0  0
   19.9234   21.3856   29.8573 C   0  0  0  0  0  0
   23.6991   21.2237   29.7159 C   0  0  0  0  0  0
   27.5871   16.3730   27.9153 N   0  0  0  0  0  0
   26.3433   17.4420   29.7102 C   0  0  0  0  0  0
   24.1183   19.7685   29.4300 C   0  0  0  0  0  0
   19.5533   23.7339   24.5869 O   0  0  0  0  0  0
   21.4891   24.2557   26.1510 O   0  0  0  0  0  0
   28.7343   16.8482   28.4564 C   0  0  0  0  0  0
   27.5479   17.9288   30.2541 C   0  0  0  0  0  0
   22.9646   21.8443   27.1604 O   0  0  0  0  0  0
   21.9909   22.6705   23.9866 C   0  0  0  0  0  0
   24.5288   19.0381   30.4760 N   0  0  0  0  0  0
   26.4192   16.6740   28.5381 C   0  0  0  0  0  0
   28.7522   17.6300   29.6106 C   0  0  0  0  0  0
   24.9896   17.6473   30.4006 C   0  0  0  0  0  0
   24.0767   19.3330   28.2821 O   0  0  0  0  0  0
   29.9364   16.5328   27.8314 N   0  0  0  0  0  0
   22.1924   23.6891   22.8793 C   0  0  0  0  0  0
   21.5698   21.1048   31.7047 C   0  0  0  0  0  0
   27.5837   18.7394   31.5415 C   0  0  0  0  0  0
   21.5505   23.5181   21.6503 C   0  0  0  0  0  0
   22.9648   24.8287   23.1190 C   0  0  0  0  0  0
   23.0824   25.8049   22.1332 C   0  0  0  0  0  0
   21.6805   24.4883   20.6608 C   0  0  0  0  0  0
   22.4400   25.6312   20.9077 C   0  0  0  0  0  0
   19.5531   21.3813   25.8237 H   0  0  0  0  0  0
   18.5977   21.5726   28.1252 H   0  0  0  0  0  0
   19.1200   21.2776   30.5741 H   0  0  0  0  0  0
   23.8820   21.5028   30.7523 H   0  0  0  0  0  0
   24.3528   21.8919   29.1556 H   0  0  0  0  0  0
   22.9266   22.4411   24.4999 H   0  0  0  0  0  0
   21.5791   21.7331   23.6038 H   0  0  0  0  0  0
   24.5314   19.4574   31.3936 H   0  0  0  0  0  0
   25.5285   16.2647   28.0853 H   0  0  0  0  0  0
   29.6920   17.9797   30.0150 H   0  0  0  0  0  0
   24.2209   17.0353   29.9264 H   0  0  0  0  0  0
   25.0676   17.2651   31.4198 H   0  0  0  0  0  0
   30.7785   16.9755   28.1812 H   0  0  0  0  0  0
   29.9515   15.9970   26.9666 H   0  0  0  0  0  0
   20.6752   21.0030   32.3239 H   0  0  0  0  0  0
   22.1493   20.1888   31.8287 H   0  0  0  0  0  0
   22.1423   21.9459   32.1000 H   0  0  0  0  0  0
   27.0699   18.2069   32.3422 H   0  0  0  0  0  0
   28.6061   18.9305   31.8773 H   0  0  0  0  0  0
   27.0831   19.6964   31.4013 H   0  0  0  0  0  0
   20.9381   22.6457   21.4647 H   0  0  0  0  0  0
   23.4531   24.9676   24.0759 H   0  0  0  0  0  0
   23.6717   26.6913   22.3171 H   0  0  0  0  0  0
   21.1854   24.3592   19.7101 H   0  0  0  0  0  0
   22.5365   26.3871   20.1419 H   0  0  0  0  0  0
  1  4  1  0  0  0
  1  5  1  0  0  0
  1  7  2  0  0  0
  2  4  1  0  0  0
  2  9  1  0  0  0
  2  6  1  0  0  0
  3  5  1  0  0  0
  3 13  2  0  0  0
  3 14  2  0  0  0
  3 18  1  0  0  0
  4 17  2  0  0  0
  5 33  1  0  0  0
  6  8  2  0  0  0
  6 26  1  0  0  0
  7  8  1  0  0  0
  7 34  1  0  0  0
  8 35  1  0  0  0
  9 12  1  0  0  0
  9 36  1  0  0  0
  9 37  1  0  0  0
 10 20  2  0  0  0
 10 15  1  0  0  0
 11 22  1  0  0  0
 11 16  2  0  0  0
 11 20  1  0  0  0
 12 19  1  0  0  0
 12 23  2  0  0  0
 15 24  1  0  0  0
 15 21  2  0  0  0
 16 21  1  0  0  0
 16 27  1  0  0  0
 18 25  1  0  0  0
 18 38  1  0  0  0
 18 39  1  0  0  0
 19 22  1  0  0  0
 19 40  1  0  0  0
 20 41  1  0  0  0
 21 42  1  0  0  0
 22 43  1  0  0  0
 22 44  1  0  0  0
 24 45  1  0  0  0
 24 46  1  0  0  0
 25 28  1  0  0  0
 25 29  2  0  0  0
 26 47  1  0  0  0
 26 48  1  0  0  0
 26 49  1  0  0  0
 27 50  1  0  0  0
 27 51  1  0  0  0
 27 52  1  0  0  0
 28 31  2  0  0  0
 28 53  1  0  0  0
 29 30  1  0  0  0
 29 54  1  0  0  0
 30 32  2  0  0  0
 30 55  1  0  0  0
 31 32  1  0  0  0
 31 56  1  0  0  0
 32 57  1  0  0  0
M  END
> <s_m_entry_id>
39284

> <s_m_entry_name>
dock_pv.40

> <s_m_Source_Path>
/home/csk/Desktop/cluster/DUD-E-result/try1

> <s_m_Source_File>
dock_pv.maegz

> <i_m_Source_File_Index>
40

> <chembl_id>
CHEMBL354555

> <chembl_pref_name>
None

> <i_lp_mmshare_version>
53161

> <r_lp_tautomer_probability>
0.999999772200052

> <s_lp_Force_Field>
OPLS_2005

> <r_lp_Energy>
21.43167

> <b_lp_Chiralities_Consistent>
1

> <s_lp_Variant>
CHEMBL209_lig713-1

> <s_i_glide_gridfile>
glide-grid_2ayw

> <i_i_glide_lignum>
1116

> <i_i_glide_rotatable_bonds>
9

> <r_i_docking_score>
-7.22220358501037

> <r_i_glide_ligand_efficiency>
-0.225693862031574

> <r_i_glide_ligand_efficiency_sa>
-0.716533347195601

> <r_i_glide_ligand_efficiency_ln>
-1.61724825251814

> <r_i_glide_gscore>
-7.22220358501037

> <r_i_glide_lipo>
-2.56029031611308

> <r_i_glide_hbond>
-0.777805035559397

> <r_i_glide_metal>
0

> <r_i_glide_rewards>
-0.555697486503454

> <r_i_glide_evdw>
-43.8013610839844

> <r_i_glide_ecoul>
-12.2783613204956

> <r_i_glide_erotb>
0.774515004355959

> <r_i_glide_esite>
-0.0711034989168341

> <r_i_glide_emodel>
-75.7564506721147

> <r_i_glide_energy>
-56.07972240448

> <r_i_glide_einternal>
8.58262348175049

> <i_i_glide_confnum>
14

> <i_i_glide_posenum>
63

> <r_i_glide_eff_state_penalty>
0

> <s_user_duplicate_titles>
CHEMBL209_lig713

> <i_f3d_flags>
0

> <s_m_subgroup_title>
dock_pv

> <s_m_subgroupid>
dock_pv

> <b_m_subgroup_collapsed>
1

$$$$
CHEMBL209_lig558
                    3D
 Schrodinger Suite 2021-1.
 52 53  0  0  1  0            999 V2000
   21.4336   20.8762   27.3045 C   0  0  0  0  0  0
   29.7638   15.2653   28.2621 C   0  0  0  0  0  0
   28.6413   16.2121   28.4589 C   0  0  0  0  0  0
   28.7147   17.2978   29.3489 C   0  0  0  0  0  0
   27.6426   18.1855   29.5108 C   0  0  0  0  0  0
   22.4319   21.4696   28.1207 N   0  0  0  0  0  0
   29.1973   21.2040   31.5222 C   0  0  0  0  0  0
   21.1471   21.3675   26.1907 N   0  0  0  0  0  0
   27.6743   19.3158   30.5461 C   0  0  2  0  0  0
   29.5529   14.1270   27.7911 N   0  0  0  0  0  0
   29.1101   19.8492   30.8142 C   0  0  0  0  0  0
   28.2973   22.0438   31.4494 O   0  0  0  0  0  0
   26.9223   18.8899   31.8498 C   0  0  0  0  0  0
   20.7769   19.7334   27.7938 N   0  0  0  0  0  0
   31.0073   15.7330   28.5909 N   0  0  0  0  0  0
   23.1473   21.0490   29.2553 C   0  0  0  0  0  0
   24.8356   20.3147   31.3674 C   0  0  0  0  0  0
   25.8772   19.8939   32.3987 C   0  0  0  0  0  0
   30.3527   21.3379   32.2034 O   0  0  0  0  0  0
   23.8894   22.0146   29.9400 C   0  0  0  0  0  0
   23.2123   19.7189   29.6852 C   0  0  0  0  0  0
   24.7315   21.6534   30.9893 C   0  0  0  0  0  0
   24.0338   19.3551   30.7480 C   0  0  0  0  0  0
   27.4446   16.0399   27.7399 C   0  0  0  0  0  0
   26.4970   18.0121   28.7279 C   0  0  0  0  0  0
   26.3929   16.9406   27.8497 C   0  0  0  0  0  0
   30.6202   22.5255   32.9346 C   0  0  0  0  0  0
   29.6019   17.4278   29.9508 H   0  0  0  0  0  0
   22.8524   22.2715   27.6786 H   0  0  0  0  0  0
   20.4287   20.8527   25.6919 H   0  0  0  0  0  0
   27.1343   20.1346   30.0673 H   0  0  0  0  0  0
   30.4241   13.6272   27.6548 H   0  0  0  0  0  0
   29.6766   19.1151   31.3878 H   0  0  0  0  0  0
   29.6345   19.9608   29.8647 H   0  0  0  0  0  0
   26.4068   17.9410   31.6890 H   0  0  0  0  0  0
   27.6448   18.6623   32.6356 H   0  0  0  0  0  0
   19.9552   19.3839   27.3229 H   0  0  0  0  0  0
   20.7792   19.5394   28.7836 H   0  0  0  0  0  0
   31.7987   15.1855   28.2588 H   0  0  0  0  0  0
   31.1612   16.7254   28.7439 H   0  0  0  0  0  0
   25.3563   19.4530   33.2497 H   0  0  0  0  0  0
   26.3877   20.7715   32.7968 H   0  0  0  0  0  0
   23.8502   23.0507   29.6340 H   0  0  0  0  0  0
   22.6730   18.9349   29.1813 H   0  0  0  0  0  0
   25.3354   22.4076   31.4741 H   0  0  0  0  0  0
   24.0947   18.3153   31.0385 H   0  0  0  0  0  0
   27.3306   15.2192   27.0461 H   0  0  0  0  0  0
   25.6710   18.6997   28.8064 H   0  0  0  0  0  0
   25.4998   16.8035   27.2577 H   0  0  0  0  0  0
   31.5934   22.4505   33.4199 H   0  0  0  0  0  0
   30.6342   23.3966   32.2774 H   0  0  0  0  0  0
   29.8673   22.6877   33.7075 H   0  0  0  0  0  0
  1  6  1  0  0  0
  1  8  2  0  0  0
  1 14  1  0  0  0
  2  3  1  0  0  0
  2 10  2  0  0  0
  2 15  1  0  0  0
  3  4  2  0  0  0
  3 24  1  0  0  0
  4  5  1  0  0  0
  4 28  1  0  0  0
  5  9  1  0  0  0
  5 25  2  0  0  0
  6 16  1  0  0  0
  6 29  1  0  0  0
  7 11  1  0  0  0
  7 12  2  0  0  0
  7 19  1  0  0  0
  8 30  1  0  0  0
  9 13  1  0  0  0
  9 11  1  0  0  0
  9 31  1  0  0  0
 10 32  1  0  0  0
 11 33  1  0  0  0
 11 34  1  0  0  0
 13 18  1  0  0  0
 13 35  1  0  0  0
 13 36  1  0  0  0
 14 37  1  0  0  0
 14 38  1  0  0  0
 15 39  1  0  0  0
 15 40  1  0  0  0
 16 20  2  0  0  0
 16 21  1  0  0  0
 17 23  1  0  0  0
 17 18  1  0  0  0
 17 22  2  0  0  0
 18 41  1  0  0  0
 18 42  1  0  0  0
 19 27  1  0  0  0
 20 22  1  0  0  0
 20 43  1  0  0  0
 21 23  2  0  0  0
 21 44  1  0  0  0
 22 45  1  0  0  0
 23 46  1  0  0  0
 24 26  2  0  0  0
 24 47  1  0  0  0
 25 26  1  0  0  0
 25 48  1  0  0  0
 26 49  1  0  0  0
 27 50  1  0  0  0
 27 51  1  0  0  0
 27 52  1  0  0  0
M  END
> <s_m_entry_id>
39285

> <s_m_entry_name>
dock_pv.41

> <s_m_Source_Path>
/home/csk/Desktop/cluster/DUD-E-result/try1

> <s_m_Source_File>
dock_pv.maegz

> <i_m_Source_File_Index>
41

> <chembl_id>
CHEMBL156161

> <chembl_pref_name>
None

> <i_lp_mmshare_version>
53161

> <r_lp_tautomer_probability>
1

> <s_lp_Force_Field>
OPLS_2005

> <r_lp_Energy>
-0.209766

> <b_lp_Chiralities_Consistent>
1

> <s_lp_Variant>
CHEMBL209_lig558-2

> <s_i_glide_gridfile>
glide-grid_2ayw

> <i_i_glide_lignum>
897

> <i_i_glide_rotatable_bonds>
10

> <r_i_docking_score>
-7.20904934938268

> <r_i_glide_ligand_efficiency>
-0.267001827754914

> <r_i_glide_ligand_efficiency_sa>
-0.801005482384748

> <r_i_glide_ligand_efficiency_ln>
-1.67814783806909

> <r_i_glide_gscore>
-7.20904934938268

> <r_i_glide_lipo>
-2.29518565141176

> <r_i_glide_hbond>
-1.12968130310425

> <r_i_glide_metal>
0

> <r_i_glide_rewards>
-1.04532636510922

> <r_i_glide_evdw>
-36.3999176025391

> <r_i_glide_ecoul>
-13.2038764953613

> <r_i_glide_erotb>
1.14112608421647

> <r_i_glide_esite>
-0.0794047595427631

> <r_i_glide_emodel>
-66.437690278781

> <r_i_glide_energy>
-49.6037940979004

> <r_i_glide_einternal>
9.2347936630249

> <i_i_glide_confnum>
58

> <i_i_glide_posenum>
282

> <r_i_glide_eff_state_penalty>
0

> <s_user_duplicate_titles>
CHEMBL209_lig558,261230

> <i_f3d_flags>
0

> <s_m_subgroup_title>
dock_pv

> <s_m_subgroupid>
dock_pv

> <b_m_subgroup_collapsed>
1

$$$$
CHEMBL209_lig861
                    3D
 Schrodinger Suite 2021-1.
 38 40  0  0  1  0            999 V2000
   27.6510   18.2159   29.6744 C   0  0  0  0  0  0
   27.7642   19.4781   30.3751 C   0  0  0  0  0  0
   28.7530   17.3691   29.3292 C   0  0  0  0  0  0
   29.7465   15.2605   28.3012 C   0  0  0  0  0  0
   28.5995   16.1583   28.6292 C   0  0  0  0  0  0
   26.3470   17.7599   29.3035 C   0  0  0  0  0  0
   29.5530   14.1330   27.7910 N   0  0  0  0  0  0
   26.5973   20.1938   30.7170 C   0  0  0  0  0  0
   27.2999   15.7869   28.2602 C   0  0  0  0  0  0
   29.1429   20.0704   30.7581 C   0  0  1  0  0  0
   25.3417   19.6973   30.3568 C   0  0  0  0  0  0
   26.1952   16.5527   28.5910 C   0  0  0  0  0  0
   25.2111   18.5112   29.6582 C   0  0  0  0  0  0
   30.3104   22.0930   30.9910 O   0  0  0  0  0  0
   30.9987   15.7330   28.5910 N   0  0  0  0  0  0
   26.7434   21.3954   31.3910 O   0  0  0  0  0  0
   29.4834   21.3988   30.0639 C   0  0  0  0  0  0
   29.8495   21.7922   32.3007 C   0  0  0  0  0  0
   29.3957   20.3329   32.2430 C   0  0  0  0  0  0
   25.6039   22.0608   31.9274 C   0  0  0  0  0  0
   29.7444   17.6399   29.6384 H   0  0  0  0  0  0
   30.4336   13.6699   27.5954 H   0  0  0  0  0  0
   27.1213   14.8647   27.7250 H   0  0  0  0  0  0
   29.9530   19.4367   30.4185 H   0  0  0  0  0  0
   24.4359   20.2278   30.6058 H   0  0  0  0  0  0
   25.2066   16.2134   28.3139 H   0  0  0  0  0  0
   24.2289   18.1506   29.3910 H   0  0  0  0  0  0
   31.7871   15.1976   28.2322 H   0  0  0  0  0  0
   31.1530   16.7200   28.7723 H   0  0  0  0  0  0
   30.0103   21.2620   29.1183 H   0  0  0  0  0  0
   28.6184   22.0205   29.8386 H   0  0  0  0  0  0
   29.0392   22.4760   32.5605 H   0  0  0  0  0  0
   30.6379   21.9651   33.0342 H   0  0  0  0  0  0
   28.5164   20.2059   32.8756 H   0  0  0  0  0  0
   30.2266   19.7330   32.6142 H   0  0  0  0  0  0
   25.9326   22.9328   32.4927 H   0  0  0  0  0  0
   24.9364   22.4128   31.1399 H   0  0  0  0  0  0
   25.0474   21.4168   32.6103 H   0  0  0  0  0  0
  1  2  2  0  0  0
  1  3  1  0  0  0
  1  6  1  0  0  0
  2  8  1  0  0  0
  2 10  1  0  0  0
  3  5  2  0  0  0
  3 21  1  0  0  0
  4  5  1  0  0  0
  4  7  2  0  0  0
  4 15  1  0  0  0
  5  9  1  0  0  0
  6 12  1  0  0  0
  6 13  2  0  0  0
  7 22  1  0  0  0
  8 16  1  0  0  0
  8 11  2  0  0  0
  9 12  2  0  0  0
  9 23  1  0  0  0
 10 17  1  0  0  0
 10 19  1  0  0  0
 10 24  1  0  0  0
 11 13  1  0  0  0
 11 25  1  0  0  0
 12 26  1  0  0  0
 13 27  1  0  0  0
 14 17  1  0  0  0
 14 18  1  0  0  0
 15 28  1  0  0  0
 15 29  1  0  0  0
 16 20  1  0  0  0
 17 30  1  0  0  0
 17 31  1  0  0  0
 18 19  1  0  0  0
 18 32  1  0  0  0
 18 33  1  0  0  0
 19 34  1  0  0  0
 19 35  1  0  0  0
 20 36  1  0  0  0
 20 37  1  0  0  0
 20 38  1  0  0  0
M  END
> <s_m_entry_id>
39286

> <s_m_entry_name>
dock_pv.42

> <s_m_Source_Path>
/home/csk/Desktop/cluster/DUD-E-result/try1

> <s_m_Source_File>
dock_pv.maegz

> <i_m_Source_File_Index>
42

> <chembl_id>
CHEMBL320817

> <chembl_pref_name>
None

> <i_lp_mmshare_version>
53161

> <r_lp_tautomer_probability>
1

> <s_lp_Force_Field>
OPLS_2005

> <r_lp_Energy>
31.092841

> <b_lp_Chiralities_Consistent>
1

> <s_lp_Variant>
CHEMBL209_lig861-2

> <s_i_glide_gridfile>
glide-grid_2ayw

> <i_i_glide_lignum>
1303

> <i_i_glide_rotatable_bonds>
3

> <r_i_docking_score>
-7.2032102986627

> <r_i_glide_ligand_efficiency>
-0.360160514933135

> <r_i_glide_ligand_efficiency_sa>
-0.97762604556016

> <r_i_glide_ligand_efficiency_ln>
-1.80272595997925

> <r_i_glide_gscore>
-7.2032102986627

> <r_i_glide_lipo>
-2.14649404805513

> <r_i_glide_hbond>
-0.671579401516064

> <r_i_glide_metal>
0

> <r_i_glide_rewards>
-1.65695445152055

> <r_i_glide_evdw>
-26.685266494751

> <r_i_glide_ecoul>
-10.3940877914429

> <r_i_glide_erotb>
0.244733359860239

> <r_i_glide_esite>
-0.079539263977225

> <r_i_glide_emodel>
-52.4153271896117

> <r_i_glide_energy>
-37.0793542861938

> <r_i_glide_einternal>
1.1281613111496

> <i_i_glide_confnum>
6

> <i_i_glide_posenum>
382

> <r_i_glide_eff_state_penalty>
0

> <s_user_duplicate_titles>
CHEMBL209_lig861

> <i_f3d_flags>
0

> <s_m_subgroup_title>
dock_pv

> <s_m_subgroupid>
dock_pv

> <b_m_subgroup_collapsed>
1

$$$$
CHEMBL209_lig62
                    3D
 Schrodinger Suite 2021-1.
 75 77  0  0  1  0            999 V2000
   18.3054   23.3027   27.5120 N   0  0  0  0  0  0
   25.1506   18.6975   34.1414 S   0  0  0  0  0  0
   19.5056   23.2942   28.3659 C   0  0  2  0  0  0
   17.8735   24.4418   26.7503 C   0  0  0  0  0  0
   25.4856   18.4096   31.3311 C   0  0  1  0  0  0
   29.3585   15.5842   28.2717 C   0  0  0  0  0  0
   26.0547   18.8646   32.6368 N   0  0  2  0  0  0
   28.5703   16.6909   28.7120 N   0  0  0  0  0  0
   24.3492   19.3993   30.9664 C   0  0  0  0  0  0
   20.2997   21.9596   28.2381 C   0  0  1  0  0  0
   21.5172   21.9517   29.0438 N   0  0  0  0  0  0
   22.5870   21.1616   28.8817 C   0  0  0  0  0  0
   24.6284   20.3671   30.0791 N   0  0  0  0  0  0
   26.1542   18.5325   35.1968 O   0  0  0  0  0  0
   24.1124   17.6824   33.9433 O   0  0  0  0  0  0
   16.7531   24.5331   26.1910 N   0  0  0  0  0  0
   28.8773   14.5329   27.7910 N   0  0  0  0  0  0
   26.6115   18.2553   30.2460 C   0  0  0  0  0  0
   24.3415   20.3880   34.3876 C   0  0  0  0  0  0
   29.0488   17.7078   29.6563 C   0  0  0  0  0  0
   27.2972   17.0507   28.0680 C   0  0  0  0  0  0
   23.2581   19.3331   31.5306 O   0  0  0  0  0  0
   22.6708   20.2938   28.0098 O   0  0  0  0  0  0
   18.7904   25.5039   26.6262 N   0  0  0  0  0  0
   30.7529   15.7330   28.3972 N   0  0  0  0  0  0
   28.0093   17.8593   30.7800 C   0  0  0  0  0  0
   26.1937   17.2736   29.1222 C   0  0  0  0  0  0
   17.3977   22.1806   27.8053 C   0  0  0  0  0  0
   23.7645   21.5108   29.8017 C   0  0  0  0  0  0
   19.2613   23.6363   29.7199 O   0  0  0  0  0  0
   23.1496   20.3133   35.3239 C   0  0  0  0  0  0
   19.4096   20.7061   28.3893 C   0  0  0  0  0  0
   18.1235   20.8462   27.5628 C   0  0  0  0  0  0
   21.9054   19.9189   34.8231 C   0  0  0  0  0  0
   23.3005   20.6112   36.6798 C   0  0  0  0  0  0
   22.2028   20.5289   37.5321 C   0  0  0  0  0  0
   20.8098   19.8308   35.6767 C   0  0  0  0  0  0
   20.9646   20.1383   37.0262 C   0  0  0  0  0  0
   20.1956   24.0681   28.0305 H   0  0  0  0  0  0
   25.0396   17.4256   31.4976 H   0  0  0  0  0  0
   27.0421   18.6269   32.7560 H   0  0  0  0  0  0
   20.6404   21.9594   27.1982 H   0  0  0  0  0  0
   21.5752   22.6872   29.7336 H   0  0  0  0  0  0
   25.5150   20.3321   29.6028 H   0  0  0  0  0  0
   16.6642   25.4062   25.6834 H   0  0  0  0  0  0
   29.6346   13.9012   27.5671 H   0  0  0  0  0  0
   26.8113   19.2096   29.7560 H   0  0  0  0  0  0
   24.0234   20.7607   33.4182 H   0  0  0  0  0  0
   25.1099   21.0651   34.7564 H   0  0  0  0  0  0
   29.1972   18.6489   29.1248 H   0  0  0  0  0  0
   30.0015   17.4332   30.1079 H   0  0  0  0  0  0
   27.4477   17.9599   27.4835 H   0  0  0  0  0  0
   26.9769   16.2795   27.3638 H   0  0  0  0  0  0
   18.5655   26.3485   26.1236 H   0  0  0  0  0  0
   19.6865   25.5050   27.0848 H   0  0  0  0  0  0
   31.3934   15.0698   27.9692 H   0  0  0  0  0  0
   31.1637   16.6397   28.5922 H   0  0  0  0  0  0
   28.3729   18.5953   31.4967 H   0  0  0  0  0  0
   27.9526   16.9333   31.3478 H   0  0  0  0  0  0
   25.9039   16.3036   29.5282 H   0  0  0  0  0  0
   25.2818   17.6257   28.6363 H   0  0  0  0  0  0
   16.4905   22.2121   27.1996 H   0  0  0  0  0  0
   17.0759   22.2514   28.8451 H   0  0  0  0  0  0
   23.4066   21.9251   30.7474 H   0  0  0  0  0  0
   24.3528   22.2870   29.3142 H   0  0  0  0  0  0
   18.8254   22.8936   30.1449 H   0  0  0  0  0  0
   19.9462   19.8059   28.0827 H   0  0  0  0  0  0
   19.1353   20.5765   29.4375 H   0  0  0  0  0  0
   18.3531   20.7468   26.5015 H   0  0  0  0  0  0
   17.4499   20.0228   27.7912 H   0  0  0  0  0  0
   21.7915   19.6669   33.7786 H   0  0  0  0  0  0
   24.2635   20.9006   37.0742 H   0  0  0  0  0  0
   22.3123   20.7480   38.5848 H   0  0  0  0  0  0
   19.8480   19.5206   35.2971 H   0  0  0  0  0  0
   20.1193   20.0624   37.6944 H   0  0  0  0  0  0
  1  3  1  0  0  0
  1  4  1  0  0  0
  1 28  1  0  0  0
  2  7  1  0  0  0
  2 14  2  0  0  0
  2 15  2  0  0  0
  2 19  1  0  0  0
  3 10  1  0  0  0
  3 30  1  0  0  0
  3 39  1  0  0  0
  4 16  2  0  0  0
  4 24  1  0  0  0
  5  9  1  0  0  0
  5  7  1  0  0  0
  5 18  1  0  0  0
  5 40  1  0  0  0
  6  8  1  0  0  0
  6 17  2  0  0  0
  6 25  1  0  0  0
  7 41  1  0  0  0
  8 21  1  0  0  0
  8 20  1  0  0  0
  9 13  1  0  0  0
  9 22  2  0  0  0
 10 11  1  0  0  0
 10 32  1  0  0  0
 10 42  1  0  0  0
 11 12  1  0  0  0
 11 43  1  0  0  0
 12 23  2  0  0  0
 12 29  1  0  0  0
 13 29  1  0  0  0
 13 44  1  0  0  0
 16 45  1  0  0  0
 17 46  1  0  0  0
 18 26  1  0  0  0
 18 27  1  0  0  0
 18 47  1  0  0  0
 19 31  1  0  0  0
 19 48  1  0  0  0
 19 49  1  0  0  0
 20 26  1  0  0  0
 20 50  1  0  0  0
 20 51  1  0  0  0
 21 27  1  0  0  0
 21 52  1  0  0  0
 21 53  1  0  0  0
 24 54  1  0  0  0
 24 55  1  0  0  0
 25 56  1  0  0  0
 25 57  1  0  0  0
 26 58  1  0  0  0
 26 59  1  0  0  0
 27 60  1  0  0  0
 27 61  1  0  0  0
 28 33  1  0  0  0
 28 62  1  0  0  0
 28 63  1  0  0  0
 29 64  1  0  0  0
 29 65  1  0  0  0
 30 66  1  0  0  0
 31 34  2  0  0  0
 31 35  1  0  0  0
 32 33  1  0  0  0
 32 67  1  0  0  0
 32 68  1  0  0  0
 33 69  1  0  0  0
 33 70  1  0  0  0
 34 37  1  0  0  0
 34 71  1  0  0  0
 35 36  2  0  0  0
 35 72  1  0  0  0
 36 38  1  0  0  0
 36 73  1  0  0  0
 37 38  2  0  0  0
 37 74  1  0  0  0
 38 75  1  0  0  0
M  END
> <s_m_entry_id>
39287

> <s_m_entry_name>
dock_pv.43

> <s_m_Source_Path>
/home/csk/Desktop/cluster/DUD-E-result/try1

> <s_m_Source_File>
dock_pv.maegz

> <i_m_Source_File_Index>
43

> <chembl_id>
CHEMBL163251

> <chembl_pref_name>
None

> <i_lp_mmshare_version>
53161

> <r_lp_tautomer_probability>
1

> <s_lp_Force_Field>
OPLS_2005

> <r_lp_Energy>
13.869289

> <b_lp_Chiralities_Consistent>
1

> <s_lp_Variant>
CHEMBL209_lig62-1

> <s_i_glide_gridfile>
glide-grid_2ayw

> <i_i_glide_lignum>
123

> <i_i_glide_rotatable_bonds>
14

> <r_i_docking_score>
-7.20013438925969

> <r_i_glide_ligand_efficiency>
-0.189477220769992

> <r_i_glide_ligand_efficiency_sa>
-0.637017755604928

> <r_i_glide_ligand_efficiency_ln>
-1.55256078081889

> <r_i_glide_gscore>
-7.20013438925969

> <r_i_glide_lipo>
-1.99582950281321

> <r_i_glide_hbond>
-1.2398575942654

> <r_i_glide_metal>
0

> <r_i_glide_rewards>
-0.652526379937352

> <r_i_glide_evdw>
-44.5457534790039

> <r_i_glide_ecoul>
-10.6297578811646

> <r_i_glide_erotb>
0.611087366396102

> <r_i_glide_esite>
-0.10125692251495

> <r_i_glide_emodel>
-72.4921521677203

> <r_i_glide_energy>
-55.1755113601685

> <r_i_glide_einternal>
15.9291706085205

> <i_i_glide_confnum>
18

> <i_i_glide_posenum>
273

> <r_i_glide_eff_state_penalty>
0

> <s_user_duplicate_titles>
CHEMBL209_lig62

> <i_f3d_flags>
0

> <s_m_subgroup_title>
dock_pv

> <s_m_subgroupid>
dock_pv

> <b_m_subgroup_collapsed>
1

$$$$
CHEMBL209_lig1210
                    3D
 Schrodinger Suite 2021-1.
 39 40  0  0  1  0            999 V2000
   20.4401   20.1834   27.5894 C   0  0  0  0  0  0
   20.1231   21.4433   28.4100 C   0  0  0  0  0  0
   20.7273   21.7610   29.5838 C   0  0  0  0  0  0
   21.8292   21.0884   30.2532 C   0  0  0  0  0  0
   21.9898   20.9330   31.6259 C   0  0  0  0  0  0
   23.0965   20.1422   31.9663 C   0  0  0  0  0  0
   23.8358   19.7234   30.8627 C   0  0  0  0  0  0
   23.1638   20.3856   29.3937 S   0  0  0  0  0  0
   25.0042   18.8429   30.8357 C   0  0  0  0  0  0
   25.4400   18.2713   31.8389 O   0  0  0  0  0  0
   25.5392   18.7689   29.5812 O   0  0  0  0  0  0
   26.6114   17.9505   29.3281 C   0  0  0  0  0  0
   26.3528   16.7699   28.6348 C   0  0  0  0  0  0
   27.3865   15.9035   28.3069 C   0  0  0  0  0  0
   28.7165   16.1890   28.6569 C   0  0  0  0  0  0
   28.9509   17.3776   29.3685 C   0  0  0  0  0  0
   27.9313   18.2777   29.6970 C   0  0  0  0  0  0
   28.2846   19.5616   30.3534 N   0  3  0  0  0  0
   29.3328   19.6242   30.9907 O   0  0  0  0  0  0
   27.5543   20.5330   30.1909 O   0  5  0  0  0  0
   29.8124   15.2609   28.2800 C   0  0  0  0  0  0
   29.5530   14.1330   27.7912 N   0  0  0  0  0  0
   31.0845   15.7329   28.4914 N   0  0  0  0  0  0
   19.0659   22.3073   27.8962 C   0  0  0  0  0  0
   18.5112   23.1909   28.5483 O   0  0  0  0  0  0
   18.7530   22.0654   26.5911 O   0  0  0  0  0  0
   19.5530   19.7332   27.1530 H   0  0  0  0  0  0
   21.1450   20.4065   26.7882 H   0  0  0  0  0  0
   20.8646   19.3955   28.2103 H   0  0  0  0  0  0
   20.4093   22.6437   30.1255 H   0  0  0  0  0  0
   21.2963   21.3257   32.3545 H   0  0  0  0  0  0
   23.3413   19.8683   32.9829 H   0  0  0  0  0  0
   25.3403   16.5216   28.3488 H   0  0  0  0  0  0
   27.1362   15.0009   27.7671 H   0  0  0  0  0  0
   29.9526   17.6287   29.6799 H   0  0  0  0  0  0
   30.4089   13.6449   27.5486 H   0  0  0  0  0  0
   31.8440   15.1860   28.0802 H   0  0  0  0  0  0
   31.2622   16.7205   28.6461 H   0  0  0  0  0  0
   19.2712   21.3475   26.2197 H   0  0  0  0  0  0
  1  2  1  0  0  0
  1 27  1  0  0  0
  1 28  1  0  0  0
  1 29  1  0  0  0
  2  3  2  0  0  0
  2 24  1  0  0  0
  3  4  1  0  0  0
  3 30  1  0  0  0
  4  5  2  0  0  0
  4  8  1  0  0  0
  5  6  1  0  0  0
  5 31  1  0  0  0
  6  7  2  0  0  0
  6 32  1  0  0  0
  7  8  1  0  0  0
  7  9  1  0  0  0
  9 10  2  0  0  0
  9 11  1  0  0  0
 11 12  1  0  0  0
 12 13  2  0  0  0
 12 17  1  0  0  0
 13 14  1  0  0  0
 13 33  1  0  0  0
 14 15  2  0  0  0
 14 34  1  0  0  0
 15 16  1  0  0  0
 15 21  1  0  0  0
 16 17  2  0  0  0
 16 35  1  0  0  0
 17 18  1  0  0  0
 18 19  2  0  0  0
 18 20  1  0  0  0
 21 22  2  0  0  0
 21 23  1  0  0  0
 22 36  1  0  0  0
 23 37  1  0  0  0
 23 38  1  0  0  0
 24 25  2  0  0  0
 24 26  1  0  0  0
 26 39  1  0  0  0
M  CHG  2  18   1  20  -1
M  END
> <s_m_entry_id>
39288

> <s_m_entry_name>
dock_pv.44

> <s_m_Source_Path>
/home/csk/Desktop/cluster/DUD-E-result/try1

> <s_m_Source_File>
dock_pv.maegz

> <i_m_Source_File_Index>
44

> <chembl_id>
CHEMBL3642895

> <chembl_pref_name>
None

> <i_lp_mmshare_version>
53161

> <r_lp_tautomer_probability>
1

> <s_lp_Force_Field>
OPLS_2005

> <r_lp_Energy>
13.420569

> <b_lp_Chiralities_Consistent>
1

> <s_lp_Variant>
CHEMBL209_lig1210-1

> <s_i_glide_gridfile>
glide-grid_2ayw

> <i_i_glide_lignum>
1818

> <i_i_glide_rotatable_bonds>
8

> <r_i_docking_score>
-7.19897835502354

> <r_i_glide_ligand_efficiency>
-0.276883782885521

> <r_i_glide_ligand_efficiency_sa>
-0.820267117313279

> <r_i_glide_ligand_efficiency_ln>
-1.69065644490262

> <r_i_glide_gscore>
-7.19897835502354

> <r_i_glide_lipo>
-2.09020864937428

> <r_i_glide_hbond>
-0.61401283314301

> <r_i_glide_metal>
0

> <r_i_glide_rewards>
-1.15284644930418

> <r_i_glide_evdw>
-34.7567481994629

> <r_i_glide_ecoul>
-14.6467409133911

> <r_i_glide_erotb>
0.686549478093495

> <r_i_glide_esite>
-0.0936113543137482

> <r_i_glide_emodel>
-70.5278647055961

> <r_i_glide_energy>
-49.403489112854

> <r_i_glide_einternal>
2.30797863006592

> <i_i_glide_confnum>
4

> <i_i_glide_posenum>
249

> <r_i_glide_eff_state_penalty>
0

> <s_user_duplicate_titles>
CHEMBL209_lig1210

> <i_f3d_flags>
0

> <s_m_subgroup_title>
dock_pv

> <s_m_subgroupid>
dock_pv

> <b_m_subgroup_collapsed>
1

$$$$
CHEMBL209_lig880
                    3D
 Schrodinger Suite 2021-1.
 63 65  0  0  1  0            999 V2000
   21.7754   23.0159   23.7397 S   0  0  0  0  0  0
   22.2494   22.2171   26.4064 C   0  0  0  0  0  0
   22.3180   21.4107   28.6915 N   0  0  0  0  0  0
   22.2832   21.0771   27.3416 C   0  0  0  0  0  0
   21.9527   21.8578   25.0652 N   0  0  0  0  0  0
   29.3870   15.5854   28.3251 C   0  0  0  0  0  0
   28.5524   16.6869   28.6935 N   0  0  0  0  0  0
   22.3918   22.7442   29.1148 C   0  0  0  0  0  0
   22.4226   23.4880   26.8376 C   0  0  0  0  0  0
   22.4857   23.7715   28.2499 C   0  0  0  0  0  0
   20.5887   24.2307   24.3201 C   0  0  0  0  0  0
   22.4103   20.2561   29.6275 C   0  0  0  0  0  0
   23.0551   23.7158   23.5760 O   0  0  0  0  0  0
   21.1536   22.3116   22.6143 O   0  0  0  0  0  0
   23.8751   20.0121   30.0375 C   0  0  0  0  0  0
   28.9639   14.5332   27.7910 N   0  0  0  0  0  0
   22.3010   19.9099   26.9238 O   0  0  0  0  0  0
   24.1270   18.8629   30.6801 N   0  0  0  0  0  0
   27.2649   16.9372   28.0233 C   0  0  0  0  0  0
   28.9825   17.8077   29.5449 C   0  0  0  0  0  0
   24.7529   20.8439   29.7921 O   0  0  0  0  0  0
   30.7618   15.7330   28.5884 N   0  0  0  0  0  0
   19.5538   23.8431   25.1724 C   0  0  0  0  0  0
   20.7757   25.5773   24.0013 C   0  0  0  0  0  0
   25.4527   18.4845   31.1725 C   0  0  0  0  0  0
   18.7434   24.8096   25.7623 C   0  0  0  0  0  0
   19.9504   26.5411   24.5728 C   0  0  0  0  0  0
   27.9308   18.0232   30.6521 C   0  0  0  0  0  0
   26.1568   17.1550   29.0698 C   0  0  0  0  0  0
   18.9477   26.1596   25.4682 C   0  0  0  0  0  0
   26.5222   18.2731   30.0724 C   0  0  0  0  0  0
   22.3564   23.0116   30.6174 C   0  0  0  0  0  0
   18.0691   27.2192   26.1078 C   0  0  0  0  0  0
   21.3291   21.0475   24.9785 H   0  0  0  0  0  0
   22.4409   24.3211   26.1520 H   0  0  0  0  0  0
   22.5374   24.7946   28.5956 H   0  0  0  0  0  0
   21.9589   19.3452   29.2267 H   0  0  0  0  0  0
   21.8259   20.4679   30.5198 H   0  0  0  0  0  0
   29.7427   13.9106   27.6208 H   0  0  0  0  0  0
   23.3717   18.2092   30.8417 H   0  0  0  0  0  0
   26.9834   16.1156   27.3602 H   0  0  0  0  0  0
   27.3644   17.8222   27.3921 H   0  0  0  0  0  0
   29.9520   17.6247   30.0112 H   0  0  0  0  0  0
   29.0901   18.7018   28.9280 H   0  0  0  0  0  0
   31.4348   15.0822   28.1953 H   0  0  0  0  0  0
   31.1499   16.6484   28.7940 H   0  0  0  0  0  0
   19.4101   22.8009   25.4223 H   0  0  0  0  0  0
   21.5776   25.8773   23.3426 H   0  0  0  0  0  0
   25.3298   17.5469   31.7190 H   0  0  0  0  0  0
   25.8064   19.1851   31.9311 H   0  0  0  0  0  0
   17.9638   24.5096   26.4472 H   0  0  0  0  0  0
   20.1053   27.5839   24.3375 H   0  0  0  0  0  0
   27.9382   17.1729   31.3326 H   0  0  0  0  0  0
   28.2257   18.8632   31.2830 H   0  0  0  0  0  0
   25.2151   17.3937   28.5739 H   0  0  0  0  0  0
   25.9488   16.2107   29.5726 H   0  0  0  0  0  0
   26.6264   19.1877   29.4886 H   0  0  0  0  0  0
   22.3762   24.0790   30.8338 H   0  0  0  0  0  0
   21.4430   22.6156   31.0610 H   0  0  0  0  0  0
   23.2122   22.5702   31.1264 H   0  0  0  0  0  0
   17.1535   26.7961   26.5228 H   0  0  0  0  0  0
   18.6137   27.7407   26.8947 H   0  0  0  0  0  0
   17.7692   27.9581   25.3649 H   0  0  0  0  0  0
  1  5  1  0  0  0
  1 11  1  0  0  0
  1 13  2  0  0  0
  1 14  2  0  0  0
  2  5  1  0  0  0
  2  4  1  0  0  0
  2  9  2  0  0  0
  3  4  1  0  0  0
  3 12  1  0  0  0
  3  8  1  0  0  0
  4 17  2  0  0  0
  5 34  1  0  0  0
  6  7  1  0  0  0
  6 16  2  0  0  0
  6 22  1  0  0  0
  7 19  1  0  0  0
  7 20  1  0  0  0
  8 10  2  0  0  0
  8 32  1  0  0  0
  9 10  1  0  0  0
  9 35  1  0  0  0
 10 36  1  0  0  0
 11 23  1  0  0  0
 11 24  2  0  0  0
 12 15  1  0  0  0
 12 37  1  0  0  0
 12 38  1  0  0  0
 15 18  1  0  0  0
 15 21  2  0  0  0
 16 39  1  0  0  0
 18 25  1  0  0  0
 18 40  1  0  0  0
 19 29  1  0  0  0
 19 41  1  0  0  0
 19 42  1  0  0  0
 20 28  1  0  0  0
 20 43  1  0  0  0
 20 44  1  0  0  0
 22 45  1  0  0  0
 22 46  1  0  0  0
 23 26  2  0  0  0
 23 47  1  0  0  0
 24 27  1  0  0  0
 24 48  1  0  0  0
 25 31  1  0  0  0
 25 49  1  0  0  0
 25 50  1  0  0  0
 26 30  1  0  0  0
 26 51  1  0  0  0
 27 30  2  0  0  0
 27 52  1  0  0  0
 28 31  1  0  0  0
 28 53  1  0  0  0
 28 54  1  0  0  0
 29 31  1  0  0  0
 29 55  1  0  0  0
 29 56  1  0  0  0
 30 33  1  0  0  0
 31 57  1  0  0  0
 32 58  1  0  0  0
 32 59  1  0  0  0
 32 60  1  0  0  0
 33 61  1  0  0  0
 33 62  1  0  0  0
 33 63  1  0  0  0
M  END
> <s_m_entry_id>
39289

> <s_m_entry_name>
dock_pv.45

> <s_m_Source_Path>
/home/csk/Desktop/cluster/DUD-E-result/try1

> <s_m_Source_File>
dock_pv.maegz

> <i_m_Source_File_Index>
45

> <chembl_id>
CHEMBL36397

> <chembl_pref_name>
None

> <i_lp_mmshare_version>
53161

> <r_lp_tautomer_probability>
1

> <s_lp_Force_Field>
OPLS_2005

> <r_lp_Energy>
34.020151

> <b_lp_Chiralities_Consistent>
1

> <s_lp_Variant>
CHEMBL209_lig880-1

> <s_i_glide_gridfile>
glide-grid_2ayw

> <i_i_glide_lignum>
1324

> <i_i_glide_rotatable_bonds>
9

> <r_i_docking_score>
-7.19252751900515

> <r_i_glide_ligand_efficiency>
-0.217955379363792

> <r_i_glide_ligand_efficiency_sa>
-0.699099360901826

> <r_i_glide_ligand_efficiency_ln>
-1.59958087931234

> <r_i_glide_gscore>
-7.19252751900515

> <r_i_glide_lipo>
-2.037708621597

> <r_i_glide_hbond>
-1.17492970885602

> <r_i_glide_metal>
0

> <r_i_glide_rewards>
-0.162925646168709

> <r_i_glide_evdw>
-43.4473571777344

> <r_i_glide_ecoul>
-15.200101852417

> <r_i_glide_erotb>
0.718787438650278

> <r_i_glide_esite>
-0.0833678442844283

> <r_i_glide_emodel>
-78.9937171032917

> <r_i_glide_energy>
-58.6474590301514

> <r_i_glide_einternal>
5.67124605178833

> <i_i_glide_confnum>
15

> <i_i_glide_posenum>
365

> <r_i_glide_eff_state_penalty>
0

> <s_user_duplicate_titles>
CHEMBL209_lig880,52296

> <i_f3d_flags>
0

> <s_m_subgroup_title>
dock_pv

> <s_m_subgroupid>
dock_pv

> <b_m_subgroup_collapsed>
1

$$$$
CHEMBL209_lig344
                    3D
 Schrodinger Suite 2021-1.
 71 74  0  0  1  0            999 V2000
   22.8025   22.6824   27.4932 N   0  0  0  0  0  0
   22.4768   22.6226   28.8213 C   0  0  0  0  0  0
   21.8612   21.2808   29.3322 C   0  0  2  0  0  0
   24.1086   20.0735   29.5898 C   0  0  0  0  0  0
   22.7978   20.1329   29.2813 N   0  0  0  0  0  0
   22.4217   24.5929   25.9738 C   0  0  0  0  0  0
   23.3764   23.9520   26.9900 C   0  0  0  0  0  0
   26.2171   18.5378   29.9128 C   0  0  0  0  0  0
   22.7009   24.3297   24.6826 N   0  0  0  0  0  0
   24.7943   18.7294   29.2978 C   0  0  0  0  0  0
   22.5896   23.5710   29.6012 O   0  0  0  0  0  0
   24.7527   21.0311   30.0224 O   0  0  0  0  0  0
   21.4743   25.2680   26.3786 O   0  0  0  0  0  0
   22.0052   24.7118   23.5221 C   0  0  0  0  0  0
   27.0126   17.3905   29.2635 C   0  0  0  0  0  0
   26.2679   18.5143   31.4539 C   0  0  0  0  0  0
   22.3525   24.0321   22.3521 C   0  0  0  0  0  0
   22.6234   21.5756   26.5306 C   0  0  0  0  0  0
   21.7204   24.3137   21.1387 C   0  0  0  0  0  0
   21.1529   23.5295   18.8380 N   0  0  0  0  0  0
   20.4708   20.9388   28.7390 C   0  0  0  0  0  0
   20.4023   26.0160   22.2547 C   0  0  0  0  0  0
   21.0229   25.7130   23.4674 C   0  0  0  0  0  0
   22.1347   23.5117   19.9086 C   0  0  0  0  0  0
   25.1682   18.1121   32.2273 C   0  0  0  0  0  0
   27.4397   18.9210   32.1027 C   0  0  0  0  0  0
   26.3746   16.2445   28.7624 C   0  0  0  0  0  0
   28.4062   17.4957   29.1562 C   0  0  0  0  0  0
   20.7524   25.3252   21.0945 C   0  0  0  0  0  0
   21.1617   21.1824   26.2508 C   0  0  0  0  0  0
   20.4841   20.3249   27.3288 C   0  0  0  0  0  0
   27.5153   18.9345   33.4921 C   0  0  0  0  0  0
   27.1224   15.2169   28.1918 C   0  0  0  0  0  0
   29.1515   16.4660   28.5911 C   0  0  0  0  0  0
   25.2386   18.1330   33.6183 C   0  0  0  0  0  0
   26.4122   18.5431   34.2462 C   0  0  0  0  0  0
   28.5071   15.3282   28.1189 C   0  0  0  0  0  0
   21.6868   21.4390   30.3974 H   0  0  0  0  0  0
   22.3305   19.2386   29.2275 H   0  0  0  0  0  0
   23.6151   24.6823   27.7637 H   0  0  0  0  0  0
   24.3332   23.7390   26.5126 H   0  0  0  0  0  0
   26.7617   19.4402   29.6288 H   0  0  0  0  0  0
   23.4947   23.7328   24.5086 H   0  0  0  0  0  0
   24.8586   18.6404   28.2128 H   0  0  0  0  0  0
   24.1358   17.9228   29.6214 H   0  0  0  0  0  0
   23.1131   23.2632   22.3815 H   0  0  0  0  0  0
   23.1532   21.7917   25.6029 H   0  0  0  0  0  0
   23.1323   20.6957   26.9142 H   0  0  0  0  0  0
   21.4358   22.8996   18.0972 H   0  0  0  0  0  0
   20.2721   23.1717   19.2046 H   0  0  0  0  0  0
   19.9569   20.2378   29.3948 H   0  0  0  0  0  0
   19.8451   21.8327   28.7325 H   0  0  0  0  0  0
   19.6449   26.7852   22.2143 H   0  0  0  0  0  0
   20.7358   26.2770   24.3396 H   0  0  0  0  0  0
   23.0726   23.9187   19.5287 H   0  0  0  0  0  0
   22.3151   22.4728   20.1962 H   0  0  0  0  0  0
   24.2500   17.7738   31.7722 H   0  0  0  0  0  0
   28.3018   19.2318   31.5334 H   0  0  0  0  0  0
   25.3028   16.1318   28.8275 H   0  0  0  0  0  0
   28.9255   18.3689   29.5208 H   0  0  0  0  0  0
   20.2586   25.5728   20.1677 H   0  0  0  0  0  0
   20.5652   22.0700   26.0336 H   0  0  0  0  0  0
   21.1537   20.5932   25.3363 H   0  0  0  0  0  0
   19.4546   20.1324   27.0241 H   0  0  0  0  0  0
   20.9589   19.3428   27.3631 H   0  0  0  0  0  0
   28.4281   19.2424   33.9812 H   0  0  0  0  0  0
   26.6314   14.3305   27.8240 H   0  0  0  0  0  0
   30.2284   16.5367   28.5224 H   0  0  0  0  0  0
   24.3873   17.8236   34.2099 H   0  0  0  0  0  0
   26.4677   18.5567   35.3253 H   0  0  0  0  0  0
   29.0971   14.5302   27.6930 H   0  0  0  0  0  0
  1  2  1  0  0  0
  1  7  1  0  0  0
  1 18  1  0  0  0
  2  3  1  0  0  0
  2 11  2  0  0  0
  3  5  1  0  0  0
  3 21  1  0  0  0
  3 38  1  0  0  0
  4  5  1  0  0  0
  4 10  1  0  0  0
  4 12  2  0  0  0
  5 39  1  0  0  0
  6  7  1  0  0  0
  6  9  1  0  0  0
  6 13  2  0  0  0
  7 40  1  0  0  0
  7 41  1  0  0  0
  8 10  1  0  0  0
  8 15  1  0  0  0
  8 16  1  0  0  0
  8 42  1  0  0  0
  9 14  1  0  0  0
  9 43  1  0  0  0
 10 44  1  0  0  0
 10 45  1  0  0  0
 14 17  1  0  0  0
 14 23  2  0  0  0
 15 27  2  0  0  0
 15 28  1  0  0  0
 16 25  2  0  0  0
 16 26  1  0  0  0
 17 19  2  0  0  0
 17 46  1  0  0  0
 18 30  1  0  0  0
 18 47  1  0  0  0
 18 48  1  0  0  0
 19 24  1  0  0  0
 19 29  1  0  0  0
 20 24  1  0  0  0
 20 49  1  0  0  0
 20 50  1  0  0  0
 21 31  1  0  0  0
 21 51  1  0  0  0
 21 52  1  0  0  0
 22 23  1  0  0  0
 22 29  2  0  0  0
 22 53  1  0  0  0
 23 54  1  0  0  0
 24 55  1  0  0  0
 24 56  1  0  0  0
 25 35  1  0  0  0
 25 57  1  0  0  0
 26 32  2  0  0  0
 26 58  1  0  0  0
 27 33  1  0  0  0
 27 59  1  0  0  0
 28 34  2  0  0  0
 28 60  1  0  0  0
 29 61  1  0  0  0
 30 31  1  0  0  0
 30 62  1  0  0  0
 30 63  1  0  0  0
 31 64  1  0  0  0
 31 65  1  0  0  0
 32 36  1  0  0  0
 32 66  1  0  0  0
 33 37  2  0  0  0
 33 67  1  0  0  0
 34 37  1  0  0  0
 34 68  1  0  0  0
 35 36  2  0  0  0
 35 69  1  0  0  0
 36 70  1  0  0  0
 37 71  1  0  0  0
M  END
> <s_m_entry_id>
39290

> <s_m_entry_name>
dock_pv.46

> <s_m_Source_Path>
/home/csk/Desktop/cluster/DUD-E-result/try1

> <s_m_Source_File>
dock_pv.maegz

> <i_m_Source_File_Index>
46

> <chembl_id>
CHEMBL321466

> <chembl_pref_name>
None

> <i_lp_mmshare_version>
53161

> <r_lp_tautomer_probability>
1

> <s_lp_Force_Field>
OPLS_2005

> <r_lp_Energy>
37.172898

> <b_lp_Chiralities_Consistent>
1

> <s_lp_Variant>
CHEMBL209_lig344-1

> <s_i_glide_gridfile>
glide-grid_2ayw

> <i_i_glide_lignum>
651

> <i_i_glide_rotatable_bonds>
11

> <r_i_docking_score>
-7.18382083867408

> <r_i_glide_ligand_efficiency>
-0.194157319964164

> <r_i_glide_ligand_efficiency_sa>
-0.646975263462879

> <r_i_glide_ligand_efficiency_ln>
-1.5580023272534

> <r_i_glide_gscore>
-7.18382083867408

> <r_i_glide_lipo>
-3.69307689465746

> <r_i_glide_hbond>
-0.551669396152866

> <r_i_glide_metal>
0

> <r_i_glide_rewards>
-0.219952933938169

> <r_i_glide_evdw>
-50.067741394043

> <r_i_glide_ecoul>
-6.89403438568115

> <r_i_glide_erotb>
0.82082696915132

> <r_i_glide_esite>
-0.0024563555225844

> <r_i_glide_emodel>
-77.7910283390307

> <r_i_glide_energy>
-56.9617757797241

> <r_i_glide_einternal>
7.56529808044434

> <i_i_glide_confnum>
1

> <i_i_glide_posenum>
162

> <r_i_glide_eff_state_penalty>
0

> <s_user_duplicate_titles>
CHEMBL209_lig344

> <i_f3d_flags>
0

> <s_m_subgroup_title>
dock_pv

> <s_m_subgroupid>
dock_pv

> <b_m_subgroup_collapsed>
1

$$$$
CHEMBL209_lig1227
                    3D
 Schrodinger Suite 2021-1.
 52 53  0  0  1  0            999 V2000
   22.9762   24.1051   35.3708 C   0  0  0  0  0  0
   22.9967   22.9800   34.3126 C   0  0  2  0  0  0
   22.8519   23.5694   32.8815 C   0  0  0  0  0  0
   22.9218   22.5367   31.7681 C   0  0  0  0  0  0
   21.9348   22.1560   30.8625 C   0  0  0  0  0  0
   22.3244   21.1596   29.9639 C   0  0  0  0  0  0
   23.6280   20.7239   30.1585 C   0  0  0  0  0  0
   24.3672   21.6082   31.4694 S   0  0  0  0  0  0
   24.3530   19.7106   29.3909 C   0  0  0  0  0  0
   23.9533   19.3331   28.2886 O   0  0  0  0  0  0
   25.4923   19.2885   30.0392 O   0  0  0  0  0  0
   26.4128   18.3807   29.5353 C   0  0  0  0  0  0
   27.7078   18.4590   30.0503 C   0  0  0  0  0  0
   28.6986   17.5603   29.6537 C   0  0  0  0  0  0
   28.4285   16.5431   28.7230 C   0  0  0  0  0  0
   29.4764   15.5780   28.3226 C   0  0  0  0  0  0
   29.2090   14.3576   28.1910 N   0  0  0  0  0  0
   30.7102   16.1330   28.1043 N   0  0  0  0  0  0
   27.1258   16.4768   28.1910 C   0  0  0  0  0  0
   26.7872   15.5384   27.2737 F   0  0  0  0  0  0
   26.1377   17.3712   28.6012 C   0  0  0  0  0  0
   21.9147   21.9211   34.6178 C   0  0  0  0  0  0
   20.7344   22.2548   34.7272 O   0  0  0  0  0  0
   22.3276   20.6484   34.7318 N   0  0  0  0  0  0
   21.4517   19.5024   35.0048 C   0  0  1  0  0  0
   22.2118   18.1638   34.8364 C   0  0  0  0  0  0
   22.8852   17.8648   33.4989 C   0  0  0  0  0  0
   23.1529   18.6958   32.6374 O   0  0  0  0  0  0
   23.1529   16.5332   33.3898 O   0  0  0  0  0  0
   20.7903   19.5337   36.4049 C   0  0  0  0  0  0
   19.6079   19.3330   36.5857 O   0  0  0  0  0  0
   21.7178   19.7330   37.3896 O   0  0  0  0  0  0
   23.1131   23.7086   36.3784 H   0  0  0  0  0  0
   23.7761   24.8261   35.1984 H   0  0  0  0  0  0
   22.0318   24.6526   35.3630 H   0  0  0  0  0  0
   23.9776   22.5059   34.3842 H   0  0  0  0  0  0
   21.9133   24.1228   32.8118 H   0  0  0  0  0  0
   23.6363   24.3101   32.7197 H   0  0  0  0  0  0
   20.9474   22.5938   30.8577 H   0  0  0  0  0  0
   21.6703   20.7596   29.2017 H   0  0  0  0  0  0
   27.9470   19.2171   30.7817 H   0  0  0  0  0  0
   29.6810   17.6517   30.0965 H   0  0  0  0  0  0
   30.0288   13.8427   27.8984 H   0  0  0  0  0  0
   31.4539   15.5402   27.7459 H   0  0  0  0  0  0
   30.9497   17.0814   28.3893 H   0  0  0  0  0  0
   25.1531   17.2474   28.1830 H   0  0  0  0  0  0
   23.3034   20.4300   34.5981 H   0  0  0  0  0  0
   20.6372   19.5316   34.2807 H   0  0  0  0  0  0
   21.5090   17.3439   34.9912 H   0  0  0  0  0  0
   23.0014   18.1156   35.5834 H   0  0  0  0  0  0
   23.5065   16.2776   32.5282 H   0  0  0  0  0  0
   21.3507   19.5492   38.2630 H   0  0  0  0  0  0
  1  2  1  0  0  0
  1 33  1  0  0  0
  1 34  1  0  0  0
  1 35  1  0  0  0
  2  3  1  0  0  0
  2 22  1  0  0  0
  2 36  1  0  0  0
  3  4  1  0  0  0
  3 37  1  0  0  0
  3 38  1  0  0  0
  4  5  2  0  0  0
  4  8  1  0  0  0
  5  6  1  0  0  0
  5 39  1  0  0  0
  6  7  2  0  0  0
  6 40  1  0  0  0
  7  8  1  0  0  0
  7  9  1  0  0  0
  9 10  2  0  0  0
  9 11  1  0  0  0
 11 12  1  0  0  0
 12 13  2  0  0  0
 12 21  1  0  0  0
 13 14  1  0  0  0
 13 41  1  0  0  0
 14 15  2  0  0  0
 14 42  1  0  0  0
 15 16  1  0  0  0
 15 19  1  0  0  0
 16 17  2  0  0  0
 16 18  1  0  0  0
 17 43  1  0  0  0
 18 44  1  0  0  0
 18 45  1  0  0  0
 19 20  1  0  0  0
 19 21  2  0  0  0
 21 46  1  0  0  0
 22 23  2  0  0  0
 22 24  1  0  0  0
 24 25  1  0  0  0
 24 47  1  0  0  0
 25 26  1  0  0  0
 25 30  1  0  0  0
 25 48  1  0  0  0
 26 27  1  0  0  0
 26 49  1  0  0  0
 26 50  1  0  0  0
 27 28  2  0  0  0
 27 29  1  0  0  0
 29 51  1  0  0  0
 30 31  2  0  0  0
 30 32  1  0  0  0
 32 52  1  0  0  0
M  END
> <s_m_entry_id>
39291

> <s_m_entry_name>
dock_pv.47

> <s_m_Source_Path>
/home/csk/Desktop/cluster/DUD-E-result/try1

> <s_m_Source_File>
dock_pv.maegz

> <i_m_Source_File_Index>
47

> <chembl_id>
CHEMBL3642946

> <chembl_pref_name>
None

> <i_lp_mmshare_version>
53161

> <r_lp_tautomer_probability>
1

> <s_lp_Force_Field>
OPLS_2005

> <r_lp_Energy>
4.686357

> <b_lp_Chiralities_Consistent>
1

> <s_lp_Variant>
CHEMBL209_lig1227-1

> <s_i_glide_gridfile>
glide-grid_2ayw

> <i_i_glide_lignum>
1846

> <i_i_glide_rotatable_bonds>
14

> <r_i_docking_score>
-7.18352105000504

> <r_i_glide_ligand_efficiency>
-0.224485032812658

> <r_i_glide_ligand_efficiency_sa>
-0.712695553652519

> <r_i_glide_ligand_efficiency_ln>
-1.60858617848437

> <r_i_glide_gscore>
-7.18352105000504

> <r_i_glide_lipo>
-1.90050438884575

> <r_i_glide_hbond>
-0.570889724979553

> <r_i_glide_metal>
0

> <r_i_glide_rewards>
-1.23106993522022

> <r_i_glide_evdw>
-38.1603088378906

> <r_i_glide_ecoul>
-16.9208736419678

> <r_i_glide_erotb>
1.02396767747906

> <r_i_glide_esite>
-0.0588781902488856

> <r_i_glide_emodel>
-74.8404664388616

> <r_i_glide_energy>
-55.0811824798584

> <r_i_glide_einternal>
5.9327564239502

> <i_i_glide_confnum>
22

> <i_i_glide_posenum>
170

> <r_i_glide_eff_state_penalty>
0

> <s_user_duplicate_titles>
CHEMBL209_lig1227

> <i_f3d_flags>
0

> <s_m_subgroup_title>
dock_pv

> <s_m_subgroupid>
dock_pv

> <b_m_subgroup_collapsed>
1

$$$$
CHEMBL209_lig564
                    3D
 Schrodinger Suite 2021-1.
 56 57  0  0  1  0            999 V2000
   21.6452   21.3577   26.3075 C   0  0  0  0  0  0
   29.5070   15.3660   28.3005 C   0  0  0  0  0  0
   23.8937   20.4139   33.4301 C   0  0  0  0  0  0
   22.3047   21.9638   27.4957 C   0  0  0  0  0  0
   22.7078   21.1446   28.5650 C   0  0  0  0  0  0
   23.3445   21.6493   29.7014 C   0  0  0  0  0  0
   23.7641   20.6775   30.8132 C   0  0  2  0  0  0
   28.3723   16.3051   28.5449 C   0  0  0  0  0  0
   21.5525   20.1082   26.1910 N   0  0  0  0  0  0
   29.3043   14.1324   28.1867 N   0  0  0  0  0  0
   23.7644   21.3460   32.2208 C   0  0  0  0  0  0
   24.3628   20.8306   34.4908 O   0  0  0  0  0  0
   23.4914   19.1470   33.1852 O   0  0  0  0  0  0
   25.0868   19.9152   30.4800 C   0  0  0  0  0  0
   27.0565   15.8122   28.6012 C   0  0  0  0  0  0
   28.5481   17.6896   28.7253 C   0  0  0  0  0  0
   21.1509   22.2510   25.3917 N   0  0  0  0  0  0
   30.7507   15.9308   28.1919 N   0  0  0  0  0  0
   26.1737   18.0115   29.0676 C   0  0  0  0  0  0
   24.9649   18.9149   29.3026 C   0  0  0  0  0  0
   27.4664   18.5328   28.9783 C   0  0  0  0  0  0
   25.9793   16.6463   28.8813 C   0  0  0  0  0  0
   22.5484   23.3436   27.6229 C   0  0  0  0  0  0
   23.5535   23.0295   29.7934 C   0  0  0  0  0  0
   23.1557   23.8701   28.7595 C   0  0  0  0  0  0
   23.8001   18.0810   34.0744 C   0  0  0  0  0  0
   25.2920   17.7325   33.9473 C   0  0  0  0  0  0
   22.9160   16.8873   33.6980 C   0  0  0  0  0  0
   22.5211   20.0798   28.5246 H   0  0  0  0  0  0
   22.9637   19.9350   30.8503 H   0  0  0  0  0  0
   21.0074   19.8663   25.3724 H   0  0  0  0  0  0
   30.1727   13.6524   27.9900 H   0  0  0  0  0  0
   24.5709   22.0757   32.2839 H   0  0  0  0  0  0
   22.8384   21.9085   32.3515 H   0  0  0  0  0  0
   25.8834   20.6311   30.2820 H   0  0  0  0  0  0
   25.4154   19.3479   31.3511 H   0  0  0  0  0  0
   26.8536   14.7580   28.4724 H   0  0  0  0  0  0
   29.5327   18.1336   28.6767 H   0  0  0  0  0  0
   20.6181   21.8976   24.6081 H   0  0  0  0  0  0
   21.1994   23.2438   25.5513 H   0  0  0  0  0  0
   31.5216   15.3521   27.8669 H   0  0  0  0  0  0
   30.9484   16.8919   28.4467 H   0  0  0  0  0  0
   24.0893   18.2866   29.4830 H   0  0  0  0  0  0
   24.7657   19.4343   28.3654 H   0  0  0  0  0  0
   27.6424   19.5900   29.0958 H   0  0  0  0  0  0
   24.9938   16.2121   28.9627 H   0  0  0  0  0  0
   22.2715   24.0339   26.8441 H   0  0  0  0  0  0
   24.0312   23.4653   30.6580 H   0  0  0  0  0  0
   23.3246   24.9347   28.8334 H   0  0  0  0  0  0
   23.5741   18.3735   35.1037 H   0  0  0  0  0  0
   25.5534   16.9331   34.6335 H   0  0  0  0  0  0
   25.5417   17.4062   32.9362 H   0  0  0  0  0  0
   25.9340   18.5805   34.1901 H   0  0  0  0  0  0
   23.1525   16.0090   34.2997 H   0  0  0  0  0  0
   21.8609   17.1147   33.8494 H   0  0  0  0  0  0
   23.0482   16.6059   32.6500 H   0  0  0  0  0  0
  1  4  1  0  0  0
  1  9  2  0  0  0
  1 17  1  0  0  0
  2  8  1  0  0  0
  2 10  2  0  0  0
  2 18  1  0  0  0
  3 11  1  0  0  0
  3 12  2  0  0  0
  3 13  1  0  0  0
  4  5  2  0  0  0
  4 23  1  0  0  0
  5  6  1  0  0  0
  5 29  1  0  0  0
  6  7  1  0  0  0
  6 24  2  0  0  0
  7 11  1  0  0  0
  7 14  1  0  0  0
  7 30  1  0  0  0
  8 15  2  0  0  0
  8 16  1  0  0  0
  9 31  1  0  0  0
 10 32  1  0  0  0
 11 33  1  0  0  0
 11 34  1  0  0  0
 13 26  1  0  0  0
 14 20  1  0  0  0
 14 35  1  0  0  0
 14 36  1  0  0  0
 15 22  1  0  0  0
 15 37  1  0  0  0
 16 21  2  0  0  0
 16 38  1  0  0  0
 17 39  1  0  0  0
 17 40  1  0  0  0
 18 41  1  0  0  0
 18 42  1  0  0  0
 19 20  1  0  0  0
 19 21  1  0  0  0
 19 22  2  0  0  0
 20 43  1  0  0  0
 20 44  1  0  0  0
 21 45  1  0  0  0
 22 46  1  0  0  0
 23 25  2  0  0  0
 23 47  1  0  0  0
 24 25  1  0  0  0
 24 48  1  0  0  0
 25 49  1  0  0  0
 26 27  1  0  0  0
 26 28  1  0  0  0
 26 50  1  0  0  0
 27 51  1  0  0  0
 27 52  1  0  0  0
 27 53  1  0  0  0
 28 54  1  0  0  0
 28 55  1  0  0  0
 28 56  1  0  0  0
M  END
> <s_m_entry_id>
39292

> <s_m_entry_name>
dock_pv.48

> <s_m_Source_Path>
/home/csk/Desktop/cluster/DUD-E-result/try1

> <s_m_Source_File>
dock_pv.maegz

> <i_m_Source_File_Index>
48

> <chembl_id>
CHEMBL439642

> <chembl_pref_name>
None

> <i_lp_mmshare_version>
53161

> <r_lp_tautomer_probability>
1

> <s_lp_Force_Field>
OPLS_2005

> <r_lp_Energy>
2.541344

> <b_lp_Chiralities_Consistent>
1

> <s_lp_Variant>
CHEMBL209_lig564-1

> <s_i_glide_gridfile>
glide-grid_2ayw

> <i_i_glide_lignum>
906

> <i_i_glide_rotatable_bonds>
10

> <r_i_docking_score>
-7.18251287727292

> <r_i_glide_ligand_efficiency>
-0.256518317045461

> <r_i_glide_ligand_efficiency_sa>
-0.778940691759156

> <r_i_glide_ligand_efficiency_ln>
-1.65793485981631

> <r_i_glide_gscore>
-7.18251287727292

> <r_i_glide_lipo>
-2.3584687803878

> <r_i_glide_hbond>
-1.10715505103177

> <r_i_glide_metal>
0

> <r_i_glide_rewards>
-1.14214048234802

> <r_i_glide_evdw>
-38.0718307495117

> <r_i_glide_ecoul>
-10.2973880767822

> <r_i_glide_erotb>
0.938102268502974

> <r_i_glide_esite>
-0.0646510830153836

> <r_i_glide_emodel>
-66.5567730261953

> <r_i_glide_energy>
-48.3692188262939

> <r_i_glide_einternal>
4.18924188613892

> <i_i_glide_confnum>
20

> <i_i_glide_posenum>
222

> <r_i_glide_eff_state_penalty>
0

> <s_user_duplicate_titles>
CHEMBL209_lig564

> <i_f3d_flags>
0

> <s_m_subgroup_title>
dock_pv

> <s_m_subgroupid>
dock_pv

> <b_m_subgroup_collapsed>
1

$$$$
CHEMBL209_lig571
                    3D
 Schrodinger Suite 2021-1.
 47 48  0  0  1  0            999 V2000
   21.4695   21.2766   27.1141 C   0  0  0  0  0  0
   29.7491   15.2519   28.2927 C   0  0  0  0  0  0
   22.1336   21.4905   28.4354 C   0  0  0  0  0  0
   22.4507   20.3960   29.2631 C   0  0  0  0  0  0
   23.0976   20.5467   30.4986 C   0  0  0  0  0  0
   23.5261   18.2244   33.7097 C   0  0  0  0  0  0
   28.5988   16.1458   28.5920 C   0  0  0  0  0  0
   23.4634   19.2969   31.3189 C   0  0  2  0  0  0
   21.4111   20.1329   26.5910 N   0  0  0  0  0  0
   29.5531   14.1220   27.7910 N   0  0  0  0  0  0
   23.2192   19.4619   32.8494 C   0  0  0  0  0  0
   24.3801   18.2288   34.5912 O   0  0  0  0  0  0
   24.8874   18.7808   30.9750 C   0  0  0  0  0  0
   28.7511   17.4048   29.2004 C   0  0  0  0  0  0
   27.2924   15.7276   28.2771 C   0  0  0  0  0  0
   20.9352   22.4063   26.5443 N   0  0  0  0  0  0
   30.9975   15.7330   28.5910 N   0  0  0  0  0  0
   26.3684   17.7651   29.1566 C   0  0  0  0  0  0
   22.7530   17.1489   33.3908 O   0  0  0  0  0  0
   25.1540   18.6189   29.4651 C   0  0  0  0  0  0
   27.6498   18.2116   29.4728 C   0  0  0  0  0  0
   26.1916   16.5197   28.5623 C   0  0  0  0  0  0
   22.4781   22.7691   28.9152 C   0  0  0  0  0  0
   23.4288   21.8341   30.9298 C   0  0  0  0  0  0
   23.1158   22.9389   30.1433 C   0  0  0  0  0  0
   22.1967   19.3958   28.9392 H   0  0  0  0  0  0
   22.7556   18.5331   31.0029 H   0  0  0  0  0  0
   20.8937   20.1410   25.7209 H   0  0  0  0  0  0
   30.4323   13.6529   27.6044 H   0  0  0  0  0  0
   23.8419   20.2655   33.2416 H   0  0  0  0  0  0
   22.1853   19.7528   33.0402 H   0  0  0  0  0  0
   25.6377   19.4459   31.4054 H   0  0  0  0  0  0
   25.0359   17.8090   31.4501 H   0  0  0  0  0  0
   29.7230   17.7725   29.4870 H   0  0  0  0  0  0
   27.1091   14.7660   27.8187 H   0  0  0  0  0  0
   20.4429   22.3313   25.6671 H   0  0  0  0  0  0
   20.8777   23.2679   27.0620 H   0  0  0  0  0  0
   31.7858   15.1930   28.2392 H   0  0  0  0  0  0
   31.1526   16.7196   28.7732 H   0  0  0  0  0  0
   22.1790   17.2873   32.6336 H   0  0  0  0  0  0
   24.2859   18.1647   28.9916 H   0  0  0  0  0  0
   25.2697   19.5922   28.9915 H   0  0  0  0  0  0
   27.7934   19.1732   29.9431 H   0  0  0  0  0  0
   25.2033   16.1550   28.3215 H   0  0  0  0  0  0
   22.2765   23.6562   28.3337 H   0  0  0  0  0  0
   23.9407   21.9907   31.8671 H   0  0  0  0  0  0
   23.3760   23.9314   30.4816 H   0  0  0  0  0  0
  1  3  1  0  0  0
  1  9  2  0  0  0
  1 16  1  0  0  0
  2  7  1  0  0  0
  2 10  2  0  0  0
  2 17  1  0  0  0
  3  4  2  0  0  0
  3 23  1  0  0  0
  4  5  1  0  0  0
  4 26  1  0  0  0
  5  8  1  0  0  0
  5 24  2  0  0  0
  6 11  1  0  0  0
  6 12  2  0  0  0
  6 19  1  0  0  0
  7 15  2  0  0  0
  7 14  1  0  0  0
  8 11  1  0  0  0
  8 13  1  0  0  0
  8 27  1  0  0  0
  9 28  1  0  0  0
 10 29  1  0  0  0
 11 30  1  0  0  0
 11 31  1  0  0  0
 13 20  1  0  0  0
 13 32  1  0  0  0
 13 33  1  0  0  0
 14 21  2  0  0  0
 14 34  1  0  0  0
 15 22  1  0  0  0
 15 35  1  0  0  0
 16 36  1  0  0  0
 16 37  1  0  0  0
 17 38  1  0  0  0
 17 39  1  0  0  0
 18 20  1  0  0  0
 18 21  1  0  0  0
 18 22  2  0  0  0
 19 40  1  0  0  0
 20 41  1  0  0  0
 20 42  1  0  0  0
 21 43  1  0  0  0
 22 44  1  0  0  0
 23 25  2  0  0  0
 23 45  1  0  0  0
 24 25  1  0  0  0
 24 46  1  0  0  0
 25 47  1  0  0  0
M  END
> <s_m_entry_id>
39293

> <s_m_entry_name>
dock_pv.49

> <s_m_Source_Path>
/home/csk/Desktop/cluster/DUD-E-result/try1

> <s_m_Source_File>
dock_pv.maegz

> <i_m_Source_File_Index>
49

> <chembl_id>
CHEMBL347586

> <chembl_pref_name>
None

> <i_lp_mmshare_version>
53161

> <r_lp_tautomer_probability>
1

> <s_lp_Force_Field>
OPLS_2005

> <r_lp_Energy>
4.342976

> <b_lp_Chiralities_Consistent>
1

> <s_lp_Variant>
CHEMBL209_lig571-1

> <s_i_glide_gridfile>
glide-grid_2ayw

> <i_i_glide_lignum>
917

> <i_i_glide_rotatable_bonds>
9

> <r_i_docking_score>
-7.17775957112282

> <r_i_glide_ligand_efficiency>
-0.287110382844913

> <r_i_glide_ligand_efficiency_sa>
-0.839515851362847

> <r_i_glide_ligand_efficiency_ln>
-1.70134411845294

> <r_i_glide_gscore>
-7.17775957112282

> <r_i_glide_lipo>
-1.9223483203351

> <r_i_glide_hbond>
-0.807157329543436

> <r_i_glide_metal>
0

> <r_i_glide_rewards>
-1.50401635978492

> <r_i_glide_evdw>
-34.8941535949707

> <r_i_glide_ecoul>
-14.0721464157104

> <r_i_glide_erotb>
0.990850867587256

> <r_i_glide_esite>
-0.079558786941516

> <r_i_glide_emodel>
-65.6117160472164

> <r_i_glide_energy>
-48.9663000106812

> <r_i_glide_einternal>
5.79707622528076

> <i_i_glide_confnum>
4

> <i_i_glide_posenum>
252

> <r_i_glide_eff_state_penalty>
0

> <s_user_duplicate_titles>
CHEMBL209_lig571

> <i_f3d_flags>
0

> <s_m_subgroup_title>
dock_pv

> <s_m_subgroupid>
dock_pv

> <b_m_subgroup_collapsed>
1

$$$$
CHEMBL209_lig737
                    3D
 Schrodinger Suite 2021-1.
 56 58  0  0  1  0            999 V2000
   27.4094   19.3769   30.1908 N   0  0  0  0  0  0
   25.3578   18.6060   29.6448 N   0  0  0  0  0  0
   27.6138   18.1414   29.6002 C   0  0  0  0  0  0
   26.0441   19.5730   30.1910 C   0  0  0  0  0  0
   28.6623   20.2970   32.1940 C   0  0  1  0  0  0
   28.7530   17.3795   29.3141 C   0  0  0  0  0  0
   28.4148   20.3300   30.6566 C   0  0  0  0  0  0
   29.7719   21.3061   32.5434 C   0  0  0  0  0  0
   29.7366   15.2579   28.3078 C   0  0  0  0  0  0
   31.6916   18.5312   36.5940 C   0  0  0  0  0  0
   28.5812   16.1472   28.6441 C   0  0  0  0  0  0
   26.3101   17.7047   29.2559 C   0  0  0  0  0  0
   30.2309   18.5103   36.2832 C   0  0  0  0  0  0
   29.5530   14.1330   27.7910 N   0  0  0  0  0  0
   32.2503   17.5629   37.1753 N   0  0  0  0  0  0
   27.3737   20.4960   33.0527 C   0  0  0  0  0  0
   29.5721   19.5722   35.6303 C   0  0  0  0  0  0
   30.8574   20.9330   32.9910 O   0  0  0  0  0  0
   27.2750   15.7389   28.2994 C   0  0  0  0  0  0
   26.1393   16.4875   28.5956 C   0  0  0  0  0  0
   32.3530   19.6656   36.1910 N   0  0  0  0  0  0
   30.9891   15.7330   28.5910 N   0  0  0  0  0  0
   28.2156   19.5111   35.2948 C   0  0  0  0  0  0
   29.4141   22.5871   32.3101 O   0  0  0  0  0  0
   27.5449   20.6794   34.5825 C   0  0  0  0  0  0
   29.4435   17.3988   36.6344 C   0  0  0  0  0  0
   28.0883   17.3330   36.3184 C   0  0  0  0  0  0
   27.4758   18.3806   35.6389 C   0  0  0  0  0  0
   30.3168   23.6487   32.5843 C   0  0  0  0  0  0
   29.6560   24.9769   32.2053 C   0  0  0  0  0  0
   25.6292   20.4789   30.6082 H   0  0  0  0  0  0
   29.0672   19.3161   32.4446 H   0  0  0  0  0  0
   29.7280   17.7330   29.6114 H   0  0  0  0  0  0
   28.0858   21.3220   30.3396 H   0  0  0  0  0  0
   29.3381   20.1357   30.1057 H   0  0  0  0  0  0
   30.4373   13.6795   27.5902 H   0  0  0  0  0  0
   33.2345   17.7262   37.3183 H   0  0  0  0  0  0
   26.7112   19.6440   32.8936 H   0  0  0  0  0  0
   26.8305   21.3647   32.6771 H   0  0  0  0  0  0
   30.1098   20.4686   35.3668 H   0  0  0  0  0  0
   27.1182   14.7957   27.7943 H   0  0  0  0  0  0
   25.1530   16.1332   28.3286 H   0  0  0  0  0  0
   33.3532   19.7331   36.3012 H   0  0  0  0  0  0
   31.8770   20.3666   35.6450 H   0  0  0  0  0  0
   31.7722   15.1964   28.2230 H   0  0  0  0  0  0
   31.1506   16.7187   28.7715 H   0  0  0  0  0  0
   26.5640   20.8315   35.0358 H   0  0  0  0  0  0
   28.0859   21.6014   34.8009 H   0  0  0  0  0  0
   29.8823   16.5549   37.1498 H   0  0  0  0  0  0
   27.5250   16.4542   36.5916 H   0  0  0  0  0  0
   26.4262   18.3157   35.3906 H   0  0  0  0  0  0
   30.5809   23.6509   33.6433 H   0  0  0  0  0  0
   31.2385   23.5146   32.0152 H   0  0  0  0  0  0
   30.3248   25.8138   32.4063 H   0  0  0  0  0  0
   29.4009   25.0017   31.1455 H   0  0  0  0  0  0
   28.7406   25.1381   32.7756 H   0  0  0  0  0  0
  1  3  1  0  0  0
  1  4  1  0  0  0
  1  7  1  0  0  0
  2  4  2  0  0  0
  2 12  1  0  0  0
  3  6  1  0  0  0
  3 12  2  0  0  0
  4 31  1  0  0  0
  5  7  1  0  0  0
  5  8  1  0  0  0
  5 16  1  0  0  0
  5 32  1  0  0  0
  6 11  2  0  0  0
  6 33  1  0  0  0
  7 34  1  0  0  0
  7 35  1  0  0  0
  8 18  2  0  0  0
  8 24  1  0  0  0
  9 11  1  0  0  0
  9 14  2  0  0  0
  9 22  1  0  0  0
 10 13  1  0  0  0
 10 15  2  0  0  0
 10 21  1  0  0  0
 11 19  1  0  0  0
 12 20  1  0  0  0
 13 17  2  0  0  0
 13 26  1  0  0  0
 14 36  1  0  0  0
 15 37  1  0  0  0
 16 25  1  0  0  0
 16 38  1  0  0  0
 16 39  1  0  0  0
 17 23  1  0  0  0
 17 40  1  0  0  0
 19 20  2  0  0  0
 19 41  1  0  0  0
 20 42  1  0  0  0
 21 43  1  0  0  0
 21 44  1  0  0  0
 22 45  1  0  0  0
 22 46  1  0  0  0
 23 25  1  0  0  0
 23 28  2  0  0  0
 24 29  1  0  0  0
 25 47  1  0  0  0
 25 48  1  0  0  0
 26 27  2  0  0  0
 26 49  1  0  0  0
 27 28  1  0  0  0
 27 50  1  0  0  0
 28 51  1  0  0  0
 29 30  1  0  0  0
 29 52  1  0  0  0
 29 53  1  0  0  0
 30 54  1  0  0  0
 30 55  1  0  0  0
 30 56  1  0  0  0
M  END
> <s_m_entry_id>
39294

> <s_m_entry_name>
dock_pv.50

> <s_m_Source_Path>
/home/csk/Desktop/cluster/DUD-E-result/try1

> <s_m_Source_File>
dock_pv.maegz

> <i_m_Source_File_Index>
50

> <chembl_id>
CHEMBL337785

> <chembl_pref_name>
None

> <i_lp_mmshare_version>
53161

> <r_lp_tautomer_probability>
1

> <s_lp_Force_Field>
OPLS_2005

> <r_lp_Energy>
0.056382

> <b_lp_Chiralities_Consistent>
1

> <s_lp_Variant>
CHEMBL209_lig737-2

> <s_i_glide_gridfile>
glide-grid_2ayw

> <i_i_glide_lignum>
1146

> <i_i_glide_rotatable_bonds>
10

> <r_i_docking_score>
-7.16777110074243

> <r_i_glide_ligand_efficiency>
-0.238925703358081

> <r_i_glide_ligand_efficiency_sa>
-0.742397711140438

> <r_i_glide_ligand_efficiency_ln>
-1.62859569321007

> <r_i_glide_gscore>
-7.16777110074243

> <r_i_glide_lipo>
-2.47071118170643

> <r_i_glide_hbond>
-0.997193099530657

> <r_i_glide_metal>
0

> <r_i_glide_rewards>
-1.05154335744507

> <r_i_glide_evdw>
-35.8732643127441

> <r_i_glide_ecoul>
-10.7200002670288

> <r_i_glide_erotb>
0.833030733150213

> <r_i_glide_esite>
-0.0796909395189625

> <r_i_glide_emodel>
-65.4942976193497

> <r_i_glide_energy>
-46.5932645797729

> <r_i_glide_einternal>
3.52263236045837

> <i_i_glide_confnum>
35

> <i_i_glide_posenum>
14

> <r_i_glide_eff_state_penalty>
0

> <s_user_duplicate_titles>
CHEMBL209_lig737

> <i_f3d_flags>
0

> <s_m_subgroup_title>
dock_pv

> <s_m_subgroupid>
dock_pv

> <b_m_subgroup_collapsed>
1

$$$$
CHEMBL209_lig1194
                    3D
 Schrodinger Suite 2021-1.
 39 40  0  0  1  0            999 V2000
   19.9862   20.2770   27.5474 C   0  0  0  0  0  0
   20.6500   21.6715   27.6256 C   0  0  1  0  0  0
   21.0068   22.0503   29.0955 C   0  0  0  0  0  0
   22.0065   21.1374   29.7896 C   0  0  0  0  0  0
   21.9793   21.1300   31.1476 O   0  0  0  0  0  0
   22.9471   20.2747   31.5695 C   0  0  0  0  0  0
   23.6312   19.7330   30.4904 C   0  0  0  0  0  0
   23.0116   20.2837   29.3601 C   0  0  0  0  0  0
   24.7530   18.8027   30.5374 C   0  0  0  0  0  0
   25.1605   18.2760   31.5765 O   0  0  0  0  0  0
   25.2726   18.6316   29.2887 O   0  0  0  0  0  0
   26.3656   17.8204   29.1035 C   0  0  0  0  0  0
   26.1804   16.5472   28.5719 C   0  0  0  0  0  0
   27.2773   15.7307   28.3174 C   0  0  0  0  0  0
   28.5944   16.1516   28.5910 C   0  0  0  0  0  0
   28.7530   17.4376   29.1393 C   0  0  0  0  0  0
   27.6612   18.2697   29.3779 C   0  0  0  0  0  0
   27.8676   19.5137   29.8706 F   0  0  0  0  0  0
   29.7449   15.2542   28.2945 C   0  0  0  0  0  0
   29.5530   14.1257   27.7910 N   0  0  0  0  0  0
   30.9941   15.7330   28.5910 N   0  0  0  0  0  0
   21.8169   21.8548   26.6241 C   0  0  0  0  0  0
   22.8658   22.4264   26.9114 O   0  0  0  0  0  0
   21.5530   21.3330   25.3910 O   0  0  0  0  0  0
   19.4882   20.1330   26.5910 H   0  0  0  0  0  0
   20.7054   19.4665   27.6771 H   0  0  0  0  0  0
   19.2226   20.1548   28.3171 H   0  0  0  0  0  0
   19.8976   22.3952   27.3085 H   0  0  0  0  0  0
   21.3687   23.0791   29.1358 H   0  0  0  0  0  0
   20.0806   22.0691   29.6722 H   0  0  0  0  0  0
   23.0457   20.1581   32.6391 H   0  0  0  0  0  0
   23.2806   20.0892   28.3326 H   0  0  0  0  0  0
   25.1841   16.1903   28.3510 H   0  0  0  0  0  0
   27.0845   14.7509   27.9031 H   0  0  0  0  0  0
   29.7287   17.8204   29.3874 H   0  0  0  0  0  0
   30.4336   13.6588   27.6037 H   0  0  0  0  0  0
   31.7821   15.1917   28.2401 H   0  0  0  0  0  0
   31.1530   16.7183   28.7760 H   0  0  0  0  0  0
   20.6766   20.9397   25.3045 H   0  0  0  0  0  0
  1  2  1  0  0  0
  1 25  1  0  0  0
  1 26  1  0  0  0
  1 27  1  0  0  0
  2  3  1  0  0  0
  2 22  1  0  0  0
  2 28  1  0  0  0
  3  4  1  0  0  0
  3 29  1  0  0  0
  3 30  1  0  0  0
  4  5  1  0  0  0
  4  8  2  0  0  0
  5  6  1  0  0  0
  6  7  2  0  0  0
  6 31  1  0  0  0
  7  8  1  0  0  0
  7  9  1  0  0  0
  8 32  1  0  0  0
  9 10  2  0  0  0
  9 11  1  0  0  0
 11 12  1  0  0  0
 12 13  2  0  0  0
 12 17  1  0  0  0
 13 14  1  0  0  0
 13 33  1  0  0  0
 14 15  2  0  0  0
 14 34  1  0  0  0
 15 16  1  0  0  0
 15 19  1  0  0  0
 16 17  2  0  0  0
 16 35  1  0  0  0
 17 18  1  0  0  0
 19 20  2  0  0  0
 19 21  1  0  0  0
 20 36  1  0  0  0
 21 37  1  0  0  0
 21 38  1  0  0  0
 22 23  2  0  0  0
 22 24  1  0  0  0
 24 39  1  0  0  0
M  END
> <s_m_entry_id>
39295

> <s_m_entry_name>
dock_pv.51

> <s_m_Source_Path>
/home/csk/Desktop/cluster/DUD-E-result/try1

> <s_m_Source_File>
dock_pv.maegz

> <i_m_Source_File_Index>
51

> <chembl_id>
CHEMBL3642928

> <chembl_pref_name>
None

> <i_lp_mmshare_version>
53161

> <r_lp_tautomer_probability>
1

> <s_lp_Force_Field>
OPLS_2005

> <r_lp_Energy>
9.056193

> <b_lp_Chiralities_Consistent>
1

> <s_lp_Variant>
CHEMBL209_lig1194-2

> <s_i_glide_gridfile>
glide-grid_2ayw

> <i_i_glide_lignum>
1792

> <i_i_glide_rotatable_bonds>
8

> <r_i_docking_score>
-7.15970550520352

> <r_i_glide_ligand_efficiency>
-0.298321062716813

> <r_i_glide_ligand_efficiency_sa>
-0.860506848122368

> <r_i_glide_ligand_efficiency_ln>
-1.71364606487305

> <r_i_glide_gscore>
-7.15970550520352

> <r_i_glide_lipo>
-1.99334372871612

> <r_i_glide_hbond>
-0.676003465695806

> <r_i_glide_metal>
0

> <r_i_glide_rewards>
-1.55998645543189

> <r_i_glide_evdw>
-33.3607711791992

> <r_i_glide_ecoul>
-14.5784502029419

> <r_i_glide_erotb>
1.01249570843922

> <r_i_glide_esite>
-0.0880614743976865

> <r_i_glide_emodel>
-66.9820683103143

> <r_i_glide_energy>
-47.9392213821411

> <r_i_glide_einternal>
2.2627739906311

> <i_i_glide_confnum>
17

> <i_i_glide_posenum>
5

> <r_i_glide_eff_state_penalty>
0

> <s_user_duplicate_titles>
CHEMBL209_lig1194

> <i_f3d_flags>
0

> <s_m_subgroup_title>
dock_pv

> <s_m_subgroupid>
dock_pv

> <b_m_subgroup_collapsed>
1

$$$$
CHEMBL209_lig1232
                    3D
 Schrodinger Suite 2021-1.
 50 51  0  0  1  0            999 V2000
   20.0263   23.1840   32.5036 C   0  0  0  0  0  0
   20.8391   23.5817   31.2430 C   0  0  1  0  0  0
   22.3724   23.4262   31.4500 C   0  0  0  0  0  0
   22.8629   21.9975   31.6296 C   0  0  0  0  0  0
   22.7179   21.1474   32.7237 C   0  0  0  0  0  0
   23.3576   19.9139   32.5896 C   0  0  0  0  0  0
   24.0421   19.7771   31.3900 C   0  0  0  0  0  0
   23.7965   21.1896   30.3952 S   0  0  0  0  0  0
   24.9050   18.6640   30.9909 C   0  0  0  0  0  0
   25.1554   17.7330   31.7602 O   0  0  0  0  0  0
   25.4093   18.8011   29.7235 O   0  0  0  0  0  0
   26.4373   17.9715   29.3298 C   0  0  0  0  0  0
   26.1696   16.7836   28.6489 C   0  0  0  0  0  0
   27.2090   15.9278   28.2888 C   0  0  0  0  0  0
   28.5514   16.2285   28.5910 C   0  0  0  0  0  0
   28.7955   17.4450   29.2558 C   0  0  0  0  0  0
   27.7633   18.3090   29.6124 C   0  0  0  0  0  0
   28.0554   19.4656   30.2528 F   0  0  0  0  0  0
   29.6432   15.2770   28.2361 C   0  0  0  0  0  0
   29.3853   14.1330   27.7911 N   0  0  0  0  0  0
   30.9210   15.7330   28.4297 N   0  0  0  0  0  0
   20.3483   22.9450   29.9195 C   0  0  0  0  0  0
   20.9683   23.1641   28.8788 O   0  0  0  0  0  0
   19.2402   22.1865   29.9537 N   0  0  0  0  0  0
   18.6579   21.4953   28.8019 C   0  0  1  0  0  0
   18.9691   19.9882   28.8916 C   0  0  0  0  0  0
   20.3213   19.7330   28.5688 O   0  0  0  0  0  0
   17.1514   21.7994   28.7008 C   0  0  0  0  0  0
   16.6615   22.4023   27.7684 O   0  0  0  0  0  0
   16.4686   21.3330   29.7910 O   0  0  0  0  0  0
   18.9813   23.4866   32.4191 H   0  0  0  0  0  0
   20.0401   22.1074   32.6778 H   0  0  0  0  0  0
   20.4242   23.6657   33.3976 H   0  0  0  0  0  0
   20.6634   24.6495   31.1027 H   0  0  0  0  0  0
   22.8972   23.9023   30.6191 H   0  0  0  0  0  0
   22.6690   24.0207   32.3152 H   0  0  0  0  0  0
   22.1757   21.4265   33.6148 H   0  0  0  0  0  0
   23.3545   19.1571   33.3618 H   0  0  0  0  0  0
   25.1530   16.5055   28.4212 H   0  0  0  0  0  0
   26.9521   15.0088   27.7807 H   0  0  0  0  0  0
   29.7961   17.7330   29.5378 H   0  0  0  0  0  0
   30.2381   13.6296   27.5776 H   0  0  0  0  0  0
   31.6795   15.1678   28.0455 H   0  0  0  0  0  0
   31.1188   16.7150   28.5910 H   0  0  0  0  0  0
   18.7677   22.0606   30.8353 H   0  0  0  0  0  0
   19.0962   21.8702   27.8740 H   0  0  0  0  0  0
   18.7530   19.5939   29.8806 H   0  0  0  0  0  0
   18.3530   19.4303   28.1910 H   0  0  0  0  0  0
   20.5355   18.8314   28.8352 H   0  0  0  0  0  0
   16.9763   20.7728   30.3874 H   0  0  0  0  0  0
  1  2  1  0  0  0
  1 31  1  0  0  0
  1 32  1  0  0  0
  1 33  1  0  0  0
  2  3  1  0  0  0
  2 22  1  0  0  0
  2 34  1  0  0  0
  3  4  1  0  0  0
  3 35  1  0  0  0
  3 36  1  0  0  0
  4  5  2  0  0  0
  4  8  1  0  0  0
  5  6  1  0  0  0
  5 37  1  0  0  0
  6  7  2  0  0  0
  6 38  1  0  0  0
  7  8  1  0  0  0
  7  9  1  0  0  0
  9 10  2  0  0  0
  9 11  1  0  0  0
 11 12  1  0  0  0
 12 13  2  0  0  0
 12 17  1  0  0  0
 13 14  1  0  0  0
 13 39  1  0  0  0
 14 15  2  0  0  0
 14 40  1  0  0  0
 15 16  1  0  0  0
 15 19  1  0  0  0
 16 17  2  0  0  0
 16 41  1  0  0  0
 17 18  1  0  0  0
 19 20  2  0  0  0
 19 21  1  0  0  0
 20 42  1  0  0  0
 21 43  1  0  0  0
 21 44  1  0  0  0
 22 23  2  0  0  0
 22 24  1  0  0  0
 24 25  1  0  0  0
 24 45  1  0  0  0
 25 26  1  0  0  0
 25 28  1  0  0  0
 25 46  1  0  0  0
 26 27  1  0  0  0
 26 47  1  0  0  0
 26 48  1  0  0  0
 27 49  1  0  0  0
 28 29  2  0  0  0
 28 30  1  0  0  0
 30 50  1  0  0  0
M  END
> <s_m_entry_id>
39296

> <s_m_entry_name>
dock_pv.52

> <s_m_Source_Path>
/home/csk/Desktop/cluster/DUD-E-result/try1

> <s_m_Source_File>
dock_pv.maegz

> <i_m_Source_File_Index>
52

> <chembl_id>
CHEMBL3642951

> <chembl_pref_name>
None

> <i_lp_mmshare_version>
53161

> <r_lp_tautomer_probability>
1

> <s_lp_Force_Field>
OPLS_2005

> <r_lp_Energy>
1.774016

> <b_lp_Chiralities_Consistent>
1

> <s_lp_Variant>
CHEMBL209_lig1232-2

> <s_i_glide_gridfile>
glide-grid_2ayw

> <i_i_glide_lignum>
1858

> <i_i_glide_rotatable_bonds>
13

> <r_i_docking_score>
-7.15335426467932

> <r_i_glide_ligand_efficiency>
-0.238445142155977

> <r_i_glide_ligand_efficiency_sa>
-0.740904495753854

> <r_i_glide_ligand_efficiency_ln>
-1.62532003097252

> <r_i_glide_gscore>
-7.15335426467932

> <r_i_glide_lipo>
-2.03116658504874

> <r_i_glide_hbond>
-0.873167053135161

> <r_i_glide_metal>
0

> <r_i_glide_rewards>
-0.844294832407619

> <r_i_glide_evdw>
-36.3477783203125

> <r_i_glide_ecoul>
-16.868236541748

> <r_i_glide_erotb>
1.04210672115845

> <r_i_glide_esite>
-0.0992081179684198

> <r_i_glide_emodel>
-71.5568639563752

> <r_i_glide_energy>
-53.2160148620605

> <r_i_glide_einternal>
10.3635854721069

> <i_i_glide_confnum>
8

> <i_i_glide_posenum>
329

> <r_i_glide_eff_state_penalty>
0

> <s_user_duplicate_titles>
CHEMBL209_lig1232

> <i_f3d_flags>
0

> <s_m_subgroup_title>
dock_pv

> <s_m_subgroupid>
dock_pv

> <b_m_subgroup_collapsed>
1

$$$$
CHEMBL209_lig567
                    3D
 Schrodinger Suite 2021-1.
 53 54  0  0  1  0            999 V2000
   21.8884   21.2101   27.1525 S   0  0  0  0  0  0
   29.7805   15.2665   28.2859 C   0  0  0  0  0  0
   22.5262   21.8476   28.6833 N   0  0  0  0  0  0
   28.6751   16.2255   28.5338 C   0  0  0  0  0  0
   28.8045   17.3152   29.4151 C   0  0  0  0  0  0
   27.7832   18.2579   29.5847 C   0  0  0  0  0  0
   21.6777   22.3727   26.2866 O   0  0  0  0  0  0
   22.7522   20.1043   26.7239 O   0  0  0  0  0  0
   29.5664   21.3152   31.3607 C   0  0  0  0  0  0
   27.9327   19.4478   30.5442 C   0  0  2  0  0  0
   29.5528   14.1342   27.7934 N   0  0  0  0  0  0
   29.3824   20.0086   30.5808 C   0  0  0  0  0  0
   30.4725   21.4295   32.1893 O   0  0  0  0  0  0
   27.3807   19.1593   31.9775 C   0  0  0  0  0  0
   31.0332   15.7329   28.5902 N   0  0  0  0  0  0
   23.2738   21.0899   29.5954 C   0  0  0  0  0  0
   20.2061   20.5330   27.6497 C   0  0  0  0  0  0
   24.9099   19.6105   31.3106 C   0  0  0  0  0  0
   25.8929   18.7501   32.0996 C   0  0  0  0  0  0
   28.6612   22.2611   31.0414 O   0  0  0  0  0  0
   23.1105   19.7112   29.7111 C   0  0  0  0  0  0
   24.2069   21.7384   30.4048 C   0  0  0  0  0  0
   23.9104   18.9761   30.5764 C   0  0  0  0  0  0
   25.0270   21.0029   31.2590 C   0  0  0  0  0  0
   27.4490   16.0800   27.8612 C   0  0  0  0  0  0
   26.6154   18.1165   28.8311 C   0  0  0  0  0  0
   26.4335   17.0194   27.9990 C   0  0  0  0  0  0
   28.7008   23.5326   31.6731 C   0  0  0  0  0  0
   22.5972   22.8521   28.7353 H   0  0  0  0  0  0
   29.7152   17.4267   29.9842 H   0  0  0  0  0  0
   27.3343   20.2461   30.1034 H   0  0  0  0  0  0
   30.4189   13.6356   27.6246 H   0  0  0  0  0  0
   30.0502   19.2682   31.0211 H   0  0  0  0  0  0
   29.7440   20.1713   29.5647 H   0  0  0  0  0  0
   27.9896   18.3821   32.4415 H   0  0  0  0  0  0
   27.5196   20.0377   32.6077 H   0  0  0  0  0  0
   31.8170   15.1871   28.2374 H   0  0  0  0  0  0
   31.1908   16.7241   28.7481 H   0  0  0  0  0  0
   19.7195   20.1376   26.7568 H   0  0  0  0  0  0
   20.3277   19.7467   28.3918 H   0  0  0  0  0  0
   19.6147   21.3477   28.0644 H   0  0  0  0  0  0
   25.8044   17.7143   31.7696 H   0  0  0  0  0  0
   25.5915   18.7512   33.1480 H   0  0  0  0  0  0
   22.3748   19.1863   29.1236 H   0  0  0  0  0  0
   24.3212   22.8118   30.3538 H   0  0  0  0  0  0
   23.7862   17.9025   30.6287 H   0  0  0  0  0  0
   25.7770   21.5113   31.8468 H   0  0  0  0  0  0
   27.2870   15.2556   27.1813 H   0  0  0  0  0  0
   25.8379   18.8607   28.8822 H   0  0  0  0  0  0
   25.5195   16.9118   27.4343 H   0  0  0  0  0  0
   27.8599   24.1401   31.3382 H   0  0  0  0  0  0
   28.6388   23.4363   32.7587 H   0  0  0  0  0  0
   29.6218   24.0615   31.4256 H   0  0  0  0  0  0
  1  3  1  0  0  0
  1  7  2  0  0  0
  1  8  2  0  0  0
  1 17  1  0  0  0
  2  4  1  0  0  0
  2 11  2  0  0  0
  2 15  1  0  0  0
  3 16  1  0  0  0
  3 29  1  0  0  0
  4  5  2  0  0  0
  4 25  1  0  0  0
  5  6  1  0  0  0
  5 30  1  0  0  0
  6 10  1  0  0  0
  6 26  2  0  0  0
  9 12  1  0  0  0
  9 13  2  0  0  0
  9 20  1  0  0  0
 10 14  1  0  0  0
 10 12  1  0  0  0
 10 31  1  0  0  0
 11 32  1  0  0  0
 12 33  1  0  0  0
 12 34  1  0  0  0
 14 19  1  0  0  0
 14 35  1  0  0  0
 14 36  1  0  0  0
 15 37  1  0  0  0
 15 38  1  0  0  0
 16 21  2  0  0  0
 16 22  1  0  0  0
 17 39  1  0  0  0
 17 40  1  0  0  0
 17 41  1  0  0  0
 18 24  1  0  0  0
 18 19  1  0  0  0
 18 23  2  0  0  0
 19 42  1  0  0  0
 19 43  1  0  0  0
 20 28  1  0  0  0
 21 23  1  0  0  0
 21 44  1  0  0  0
 22 24  2  0  0  0
 22 45  1  0  0  0
 23 46  1  0  0  0
 24 47  1  0  0  0
 25 27  2  0  0  0
 25 48  1  0  0  0
 26 27  1  0  0  0
 26 49  1  0  0  0
 27 50  1  0  0  0
 28 51  1  0  0  0
 28 52  1  0  0  0
 28 53  1  0  0  0
M  END
> <s_m_entry_id>
39297

> <s_m_entry_name>
dock_pv.53

> <s_m_Source_Path>
/home/csk/Desktop/cluster/DUD-E-result/try1

> <s_m_Source_File>
dock_pv.maegz

> <i_m_Source_File_Index>
53

> <chembl_id>
CHEMBL436026

> <chembl_pref_name>
None

> <i_lp_mmshare_version>
53161

> <r_lp_tautomer_probability>
1

> <s_lp_Force_Field>
OPLS_2005

> <r_lp_Energy>
3.377687

> <b_lp_Chiralities_Consistent>
1

> <s_lp_Variant>
CHEMBL209_lig567-2

> <s_i_glide_gridfile>
glide-grid_2ayw

> <i_i_glide_lignum>
912

> <i_i_glide_rotatable_bonds>
10

> <r_i_docking_score>
-7.14956319301825

> <r_i_glide_ligand_efficiency>
-0.255341542607795

> <r_i_glide_ligand_efficiency_sa>
-0.775367311483322

> <r_i_glide_ligand_efficiency_ln>
-1.65032910524557

> <r_i_glide_gscore>
-7.14956319301825

> <r_i_glide_lipo>
-2.21892554200743

> <r_i_glide_hbond>
-0.73361059665582

> <r_i_glide_metal>
0

> <r_i_glide_rewards>
-1.00057161050626

> <r_i_glide_evdw>
-37.3117332458496

> <r_i_glide_ecoul>
-13.7924308776855

> <r_i_glide_erotb>
0.844167208694093

> <r_i_glide_esite>
-0.106171358597527

> <r_i_glide_emodel>
-65.1950758978226

> <r_i_glide_energy>
-51.1041641235352

> <r_i_glide_einternal>
5.55043649673462

> <i_i_glide_confnum>
91

> <i_i_glide_posenum>
289

> <r_i_glide_eff_state_penalty>
0

> <s_user_duplicate_titles>
CHEMBL209_lig567,261411

> <i_f3d_flags>
0

> <s_m_subgroup_title>
dock_pv

> <s_m_subgroupid>
dock_pv

> <b_m_subgroup_collapsed>
1

$$$$
CHEMBL209_lig234
                    3D
 Schrodinger Suite 2021-1.
 64 67  0  0  1  0            999 V2000
   23.5637   20.6291   32.0654 N   0  0  0  0  0  0
   21.3018   21.6155   27.1392 N   0  0  0  0  0  0
   28.2975   18.9919   30.5734 S   0  0  0  0  0  0
   24.5706   20.8112   31.1470 C   0  0  0  0  0  0
   22.5632   21.6621   32.4653 C   0  0  1  0  0  0
   25.4564   19.5781   30.7721 C   0  0  1  0  0  0
   22.0103   22.6810   31.4341 C   0  0  0  0  0  0
   20.3911   22.3726   28.0232 C   0  0  1  0  0  0
   21.6933   20.2630   27.4112 C   0  0  0  0  0  0
   26.8818   20.0302   30.7649 N   0  0  3  0  0  0
   23.5424   19.4483   32.9597 C   0  0  1  0  0  0
   21.6993   22.2619   30.1900 N   0  0  0  0  0  0
   21.9520   19.3971   33.7936 S   0  0  0  0  0  0
   21.2169   23.1401   29.1086 C   0  0  1  0  0  0
   21.3381   20.8650   32.9687 C   0  0  0  0  0  0
   29.4647   19.8147   30.9067 O   0  0  0  0  0  0
   28.0395   17.7345   31.2811 O   0  0  0  0  0  0
   22.7530   19.7331   26.9911 N   0  0  0  0  0  0
   24.7556   21.8947   30.5902 O   0  0  0  0  0  0
   28.3639   18.6442   28.7162 C   0  0  0  0  0  0
   25.2752   18.3105   31.6442 C   0  0  0  0  0  0
   21.8655   23.8491   31.7917 O   0  0  0  0  0  0
   23.8639   18.1703   32.1852 C   0  0  0  0  0  0
   20.7907   19.5152   28.1913 N   0  0  0  0  0  0
   22.2114   22.5219   26.4160 C   0  0  0  0  0  0
   19.4942   23.2342   27.3433 O   0  0  0  0  0  0
   28.0160   17.2010   28.4228 C   0  0  0  0  0  0
   22.3365   24.0028   28.4645 C   0  0  0  0  0  0
   23.1528   23.2114   27.4238 C   0  0  0  0  0  0
   29.0342   16.2507   28.3193 C   0  0  0  0  0  0
   26.6766   16.8160   28.3621 C   0  0  0  0  0  0
   26.3534   15.4699   28.2553 C   0  0  0  0  0  0
   28.7089   14.9057   28.1901 C   0  0  0  0  0  0
   27.3702   14.5197   28.1875 C   0  0  0  0  0  0
   24.2646   19.5792   33.7689 H   0  0  0  0  0  0
   22.9901   22.2003   33.3124 H   0  0  0  0  0  0
   25.1437   19.3606   29.7504 H   0  0  0  0  0  0
   19.7113   21.6986   28.5453 H   0  0  0  0  0  0
   27.0433   21.0369   30.6874 H   0  0  0  0  0  0
   21.9687   21.3251   29.9245 H   0  0  0  0  0  0
   20.5160   23.8283   29.5899 H   0  0  0  0  0  0
   20.7840   21.4459   33.7074 H   0  0  0  0  0  0
   20.6239   20.5817   32.1929 H   0  0  0  0  0  0
   22.8406   18.7736   27.2905 H   0  0  0  0  0  0
   27.6901   19.3319   28.2102 H   0  0  0  0  0  0
   29.3799   18.8706   28.3905 H   0  0  0  0  0  0
   25.5289   17.4176   31.0715 H   0  0  0  0  0  0
   25.9552   18.3343   32.4985 H   0  0  0  0  0  0
   23.7955   17.2952   32.8340 H   0  0  0  0  0  0
   23.1531   18.0102   31.3747 H   0  0  0  0  0  0
   20.9537   18.5517   28.4468 H   0  0  0  0  0  0
   19.8940   19.8749   28.4750 H   0  0  0  0  0  0
   22.7815   21.9856   25.6540 H   0  0  0  0  0  0
   21.6237   23.2678   25.8781 H   0  0  0  0  0  0
   18.9201   22.6959   26.7927 H   0  0  0  0  0  0
   22.9974   24.4156   29.2286 H   0  0  0  0  0  0
   21.8797   24.8673   27.9806 H   0  0  0  0  0  0
   23.7962   22.4743   27.9068 H   0  0  0  0  0  0
   23.8267   23.8851   26.8933 H   0  0  0  0  0  0
   30.0742   16.5430   28.3715 H   0  0  0  0  0  0
   25.8853   17.5460   28.4435 H   0  0  0  0  0  0
   25.3163   15.1713   28.2533 H   0  0  0  0  0  0
   29.4935   14.1637   28.1328 H   0  0  0  0  0  0
   27.1215   13.4700   28.1339 H   0  0  0  0  0  0
  1  4  1  0  0  0
  1  5  1  0  0  0
  1 11  1  0  0  0
  2  8  1  0  0  0
  2  9  1  0  0  0
  2 25  1  0  0  0
  3 10  1  0  0  0
  3 16  2  0  0  0
  3 17  2  0  0  0
  3 20  1  0  0  0
  4  6  1  0  0  0
  4 19  2  0  0  0
  5  7  1  0  0  0
  5 15  1  0  0  0
  5 36  1  0  0  0
  6 10  1  0  0  0
  6 21  1  0  0  0
  6 37  1  0  0  0
  7 12  1  0  0  0
  7 22  2  0  0  0
  8 14  1  0  0  0
  8 26  1  0  0  0
  8 38  1  0  0  0
  9 18  2  0  0  0
  9 24  1  0  0  0
 10 39  1  0  0  0
 11 13  1  0  0  0
 11 23  1  0  0  0
 11 35  1  0  0  0
 12 14  1  0  0  0
 12 40  1  0  0  0
 13 15  1  0  0  0
 14 28  1  0  0  0
 14 41  1  0  0  0
 15 42  1  0  0  0
 15 43  1  0  0  0
 18 44  1  0  0  0
 20 27  1  0  0  0
 20 45  1  0  0  0
 20 46  1  0  0  0
 21 23  1  0  0  0
 21 47  1  0  0  0
 21 48  1  0  0  0
 23 49  1  0  0  0
 23 50  1  0  0  0
 24 51  1  0  0  0
 24 52  1  0  0  0
 25 29  1  0  0  0
 25 53  1  0  0  0
 25 54  1  0  0  0
 26 55  1  0  0  0
 27 30  2  0  0  0
 27 31  1  0  0  0
 28 29  1  0  0  0
 28 56  1  0  0  0
 28 57  1  0  0  0
 29 58  1  0  0  0
 29 59  1  0  0  0
 30 33  1  0  0  0
 30 60  1  0  0  0
 31 32  2  0  0  0
 31 61  1  0  0  0
 32 34  1  0  0  0
 32 62  1  0  0  0
 33 34  2  0  0  0
 33 63  1  0  0  0
 34 64  1  0  0  0
M  END
> <s_m_entry_id>
39298

> <s_m_entry_name>
dock_pv.54

> <s_m_Source_Path>
/home/csk/Desktop/cluster/DUD-E-result/try1

> <s_m_Source_File>
dock_pv.maegz

> <i_m_Source_File_Index>
54

> <chembl_id>
CHEMBL112727

> <chembl_pref_name>
None

> <i_lp_mmshare_version>
53161

> <r_lp_tautomer_probability>
1

> <s_lp_Force_Field>
OPLS_2005

> <r_lp_Energy>
35.182898

> <b_lp_Chiralities_Consistent>
1

> <s_lp_Variant>
CHEMBL209_lig234-4

> <s_i_glide_gridfile>
glide-grid_2ayw

> <i_i_glide_lignum>
407

> <i_i_glide_rotatable_bonds>
9

> <r_i_docking_score>
-7.1487403699748

> <r_i_glide_ligand_efficiency>
-0.210257069705141

> <r_i_glide_ligand_efficiency_sa>
-0.681151283518136

> <r_i_glide_ligand_efficiency_ln>
-1.5793572631029

> <r_i_glide_gscore>
-7.1487403699748

> <r_i_glide_lipo>
-2.41734418466687

> <r_i_glide_hbond>
-0.895827121525613

> <r_i_glide_metal>
0

> <r_i_glide_rewards>
-0.374353109620302

> <r_i_glide_evdw>
-48.1727561950684

> <r_i_glide_ecoul>
-10.0406064987183

> <r_i_glide_erotb>
0.471443433984591

> <r_i_glide_esite>
-0.0179306035854465

> <r_i_glide_emodel>
-78.3102303966066

> <r_i_glide_energy>
-58.2133626937866

> <r_i_glide_einternal>
7.58115768432617

> <i_i_glide_confnum>
18

> <i_i_glide_posenum>
346

> <r_i_glide_eff_state_penalty>
0

> <s_user_duplicate_titles>
CHEMBL209_lig234,186001

> <i_f3d_flags>
0

> <s_m_subgroup_title>
dock_pv

> <s_m_subgroupid>
dock_pv

> <b_m_subgroup_collapsed>
1

$$$$
CHEMBL209_lig335
                    3D
 Schrodinger Suite 2021-1.
 61 63  0  0  1  0            999 V2000
   29.1683   21.2161   33.1561 N   0  0  0  0  0  0
   30.1335   22.9329   31.8178 C   0  0  0  0  0  0
   30.3540   20.9852   33.8527 C   0  0  0  0  0  0
   28.9520   22.1437   32.1466 C   0  0  0  0  0  0
   28.5270   16.7246   28.5871 N   0  0  0  0  0  0
   31.1824   24.4112   29.6664 S   0  0  0  0  0  0
   31.4169   21.7909   33.4933 N   0  0  0  0  0  0
   31.2640   22.7218   32.5125 C   0  0  0  0  0  0
   28.8775   17.8452   29.4749 C   0  0  2  0  0  0
   29.3669   15.6004   28.2968 C   0  0  0  0  0  0
   29.9611   23.9432   30.8501 N   0  0  0  0  0  0
   27.9683   20.4543   33.6337 C   0  0  0  0  0  0
   27.5225   19.2842   32.7281 C   0  0  0  0  0  0
   27.7864   18.0381   30.5702 C   0  0  1  0  0  0
   28.0793   19.1200   31.5145 N   0  0  0  0  0  0
   31.2140   25.8762   29.6576 O   0  0  0  0  0  0
   32.4096   23.6490   29.9199 O   0  0  0  0  0  0
   30.4696   20.1075   34.7140 O   0  0  0  0  0  0
   28.9448   14.5333   27.7932 N   0  0  0  0  0  0
   27.8661   22.3125   31.5809 O   0  0  0  0  0  0
   30.4505   23.8449   28.0267 C   0  0  0  0  0  0
   26.6581   18.5252   33.1605 O   0  0  0  0  0  0
   30.7403   15.7330   28.5890 N   0  0  0  0  0  0
   27.2344   16.9194   27.9116 C   0  0  0  0  0  0
   29.1507   19.0621   28.8051 O   0  0  0  0  0  0
   32.6980   21.6342   34.1934 C   0  0  0  0  0  0
   31.4461   24.0213   26.8964 C   0  0  0  0  0  0
   26.3369   18.0414   30.0118 C   0  0  0  0  0  0
   26.1056   16.9516   28.9489 C   0  0  0  0  0  0
   31.6926   25.2972   26.3859 C   0  0  0  0  0  0
   32.1485   22.9192   26.4051 C   0  0  0  0  0  0
   33.0969   23.0891   25.4006 C   0  0  0  0  0  0
   32.6503   25.4705   25.3922 C   0  0  0  0  0  0
   33.3512   24.3676   24.9107 C   0  0  0  0  0  0
   32.1669   23.2979   32.3591 H   0  0  0  0  0  0
   29.8003   17.6092   30.0081 H   0  0  0  0  0  0
   29.0124   24.2908   30.6904 H   0  0  0  0  0  0
   27.1302   21.1364   33.7856 H   0  0  0  0  0  0
   28.1388   20.0265   34.6216 H   0  0  0  0  0  0
   27.8734   17.1232   31.1575 H   0  0  0  0  0  0
   28.8213   19.7435   31.2377 H   0  0  0  0  0  0
   29.7140   13.8876   27.6696 H   0  0  0  0  0  0
   30.1530   22.8025   28.1420 H   0  0  0  0  0  0
   29.5523   24.4356   27.8450 H   0  0  0  0  0  0
   31.4079   15.0558   28.2337 H   0  0  0  0  0  0
   31.1471   16.6441   28.7704 H   0  0  0  0  0  0
   27.2648   17.8778   27.3953 H   0  0  0  0  0  0
   27.0355   16.1588   27.1545 H   0  0  0  0  0  0
   30.0469   18.9953   28.4553 H   0  0  0  0  0  0
   32.9829   22.5836   34.6460 H   0  0  0  0  0  0
   32.6840   20.8964   34.9977 H   0  0  0  0  0  0
   33.4793   21.3470   33.4880 H   0  0  0  0  0  0
   26.1479   19.0069   29.5396 H   0  0  0  0  0  0
   25.6058   17.9197   30.8122 H   0  0  0  0  0  0
   25.1551   17.1355   28.4473 H   0  0  0  0  0  0
   25.9981   15.9606   29.3914 H   0  0  0  0  0  0
   31.1608   26.1543   26.7732 H   0  0  0  0  0  0
   31.9585   21.9294   26.7973 H   0  0  0  0  0  0
   33.6367   22.2414   25.0081 H   0  0  0  0  0  0
   32.8449   26.4577   24.9980 H   0  0  0  0  0  0
   34.0787   24.4975   24.1244 H   0  0  0  0  0  0
  1  3  1  0  0  0
  1  4  1  0  0  0
  1 12  1  0  0  0
  2  4  1  0  0  0
  2  8  2  0  0  0
  2 11  1  0  0  0
  3  7  1  0  0  0
  3 18  2  0  0  0
  4 20  2  0  0  0
  5  9  1  0  0  0
  5 10  1  0  0  0
  5 24  1  0  0  0
  6 11  1  0  0  0
  6 16  2  0  0  0
  6 17  2  0  0  0
  6 21  1  0  0  0
  7 26  1  0  0  0
  7  8  1  0  0  0
  8 35  1  0  0  0
  9 14  1  0  0  0
  9 25  1  0  0  0
  9 36  1  0  0  0
 10 19  2  0  0  0
 10 23  1  0  0  0
 11 37  1  0  0  0
 12 13  1  0  0  0
 12 38  1  0  0  0
 12 39  1  0  0  0
 13 15  1  0  0  0
 13 22  2  0  0  0
 14 15  1  0  0  0
 14 28  1  0  0  0
 14 40  1  0  0  0
 15 41  1  0  0  0
 19 42  1  0  0  0
 21 27  1  0  0  0
 21 43  1  0  0  0
 21 44  1  0  0  0
 23 45  1  0  0  0
 23 46  1  0  0  0
 24 29  1  0  0  0
 24 47  1  0  0  0
 24 48  1  0  0  0
 25 49  1  0  0  0
 26 50  1  0  0  0
 26 51  1  0  0  0
 26 52  1  0  0  0
 27 30  2  0  0  0
 27 31  1  0  0  0
 28 29  1  0  0  0
 28 53  1  0  0  0
 28 54  1  0  0  0
 29 55  1  0  0  0
 29 56  1  0  0  0
 30 33  1  0  0  0
 30 57  1  0  0  0
 31 32  2  0  0  0
 31 58  1  0  0  0
 32 34  1  0  0  0
 32 59  1  0  0  0
 33 34  2  0  0  0
 33 60  1  0  0  0
 34 61  1  0  0  0
M  END
> <s_m_entry_id>
39299

> <s_m_entry_name>
dock_pv.55

> <s_m_Source_Path>
/home/csk/Desktop/cluster/DUD-E-result/try1

> <s_m_Source_File>
dock_pv.maegz

> <i_m_Source_File_Index>
55

> <chembl_id>
CHEMBL40071

> <chembl_pref_name>
None

> <i_lp_mmshare_version>
53161

> <r_lp_tautomer_probability>
1

> <s_lp_Force_Field>
OPLS_2005

> <r_lp_Energy>
21.018917

> <b_lp_Chiralities_Consistent>
1

> <s_lp_Variant>
CHEMBL209_lig335-1

> <s_i_glide_gridfile>
glide-grid_2ayw

> <i_i_glide_lignum>
637

> <i_i_glide_rotatable_bonds>
10

> <r_i_docking_score>
-7.12756490009531

> <r_i_glide_ligand_efficiency>
-0.209634261767509

> <r_i_glide_ligand_efficiency_sa>
-0.679133627575826

> <r_i_glide_ligand_efficiency_ln>
-1.57467900785471

> <r_i_glide_gscore>
-7.12756490009531

> <r_i_glide_lipo>
-2.07635474995368

> <r_i_glide_hbond>
-1.01092266621154

> <r_i_glide_metal>
0

> <r_i_glide_rewards>
-0.712558308491377

> <r_i_glide_evdw>
-42.5267562866211

> <r_i_glide_ecoul>
-11.4945392608643

> <r_i_glide_erotb>
0.585457689300641

> <r_i_glide_esite>
-0.0626681612786682

> <r_i_glide_emodel>
-68.8275194445077

> <r_i_glide_energy>
-54.0212955474854

> <r_i_glide_einternal>
15.1808404922485

> <i_i_glide_confnum>
37

> <i_i_glide_posenum>
223

> <r_i_glide_eff_state_penalty>
0

> <s_user_duplicate_titles>
CHEMBL209_lig335

> <i_f3d_flags>
0

> <s_m_subgroup_title>
dock_pv

> <s_m_subgroupid>
dock_pv

> <b_m_subgroup_collapsed>
1

$$$$
CHEMBL209_lig1299
                    3D
 Schrodinger Suite 2021-1.
 52 54  0  0  1  0            999 V2000
   18.5072   21.4466   27.1982 C   0  0  0  0  0  0
   19.9399   21.8303   27.6566 C   0  0  0  0  0  0
   19.8695   23.2159   28.3583 C   0  0  0  0  0  0
   20.3986   20.7239   28.6701 C   0  0  0  0  0  0
   21.7216   20.9484   29.3926 C   0  0  0  0  0  0
   22.0792   21.9111   30.3388 C   0  0  0  0  0  0
   23.3856   21.8003   30.8207 C   0  0  0  0  0  0
   24.0489   20.6929   30.3193 C   0  0  0  0  0  0
   23.0648   19.8652   29.1489 S   0  0  0  0  0  0
   25.4041   20.2401   30.5904 C   0  0  0  0  0  0
   26.3399   21.0161   30.7778 O   0  0  0  0  0  0
   25.4687   18.8856   30.6202 O   0  0  0  0  0  0
   26.5080   18.2116   30.0190 C   0  0  0  0  0  0
   26.1658   17.3158   29.0077 C   0  0  0  0  0  0
   27.1285   16.5052   28.4199 C   0  0  0  0  0  0
   28.4759   16.5831   28.8040 C   0  0  0  0  0  0
   28.8188   17.5234   29.7910 C   0  0  0  0  0  0
   27.8489   18.3013   30.4222 C   0  0  0  0  0  0
   28.2225   19.1087   31.4414 F   0  0  0  0  0  0
   29.4663   15.6563   28.2181 C   0  0  0  0  0  0
   29.1103   14.5328   27.7910 N   0  0  0  0  0  0
   30.7530   16.1145   28.1916 N   0  0  0  0  0  0
   20.8639   21.9012   26.3959 C   0  0  0  0  0  0
   21.7500   21.0617   26.2181 O   0  0  0  0  0  0
   20.5813   22.8988   25.5255 N   0  0  0  0  0  0
   21.1442   23.1961   24.2716 C   0  0  0  0  0  0
   22.2406   22.5353   23.6935 C   0  0  0  0  0  0
   22.6993   22.9293   22.4350 C   0  0  0  0  0  0
   22.0425   23.9699   21.7789 C   0  0  0  0  0  0
   20.9813   24.6229   22.3142 N   0  0  0  0  0  0
   20.5543   24.2343   23.5422 C   0  0  0  0  0  0
   17.8409   21.2753   28.0449 H   0  0  0  0  0  0
   18.0451   22.2256   26.5917 H   0  0  0  0  0  0
   18.5086   20.5338   26.6013 H   0  0  0  0  0  0
   19.3399   23.1555   29.3104 H   0  0  0  0  0  0
   20.8599   23.6261   28.5605 H   0  0  0  0  0  0
   19.3440   23.9581   27.7564 H   0  0  0  0  0  0
   19.6222   20.5860   29.4240 H   0  0  0  0  0  0
   20.4277   19.7614   28.1542 H   0  0  0  0  0  0
   21.4052   22.6866   30.6712 H   0  0  0  0  0  0
   23.8158   22.4804   31.5429 H   0  0  0  0  0  0
   25.1396   17.2187   28.6955 H   0  0  0  0  0  0
   26.8101   15.8011   27.6623 H   0  0  0  0  0  0
   29.8377   17.6112   30.1413 H   0  0  0  0  0  0
   29.9196   14.0392   27.4337 H   0  0  0  0  0  0
   31.4749   15.5268   27.7835 H   0  0  0  0  0  0
   31.0200   17.0446   28.5202 H   0  0  0  0  0  0
   19.8248   23.5043   25.7995 H   0  0  0  0  0  0
   22.7533   21.7339   24.1976 H   0  0  0  0  0  0
   23.5424   22.4320   21.9794 H   0  0  0  0  0  0
   22.3688   24.2986   20.8025 H   0  0  0  0  0  0
   19.7062   24.7801   23.9304 H   0  0  0  0  0  0
  1  2  1  0  0  0
  1 32  1  0  0  0
  1 33  1  0  0  0
  1 34  1  0  0  0
  2  3  1  0  0  0
  2  4  1  0  0  0
  2 23  1  0  0  0
  3 35  1  0  0  0
  3 36  1  0  0  0
  3 37  1  0  0  0
  4  5  1  0  0  0
  4 38  1  0  0  0
  4 39  1  0  0  0
  5  6  2  0  0  0
  5  9  1  0  0  0
  6  7  1  0  0  0
  6 40  1  0  0  0
  7  8  2  0  0  0
  7 41  1  0  0  0
  8  9  1  0  0  0
  8 10  1  0  0  0
 10 11  2  0  0  0
 10 12  1  0  0  0
 12 13  1  0  0  0
 13 14  2  0  0  0
 13 18  1  0  0  0
 14 15  1  0  0  0
 14 42  1  0  0  0
 15 16  2  0  0  0
 15 43  1  0  0  0
 16 17  1  0  0  0
 16 20  1  0  0  0
 17 18  2  0  0  0
 17 44  1  0  0  0
 18 19  1  0  0  0
 20 21  2  0  0  0
 20 22  1  0  0  0
 21 45  1  0  0  0
 22 46  1  0  0  0
 22 47  1  0  0  0
 23 24  2  0  0  0
 23 25  1  0  0  0
 25 26  1  0  0  0
 25 48  1  0  0  0
 26 27  2  0  0  0
 26 31  1  0  0  0
 27 28  1  0  0  0
 27 49  1  0  0  0
 28 29  2  0  0  0
 28 50  1  0  0  0
 29 30  1  0  0  0
 29 51  1  0  0  0
 30 31  2  0  0  0
 31 52  1  0  0  0
M  END
> <s_m_entry_id>
39300

> <s_m_entry_name>
dock_pv.56

> <s_m_Source_Path>
/home/csk/Desktop/cluster/DUD-E-result/try1

> <s_m_Source_File>
dock_pv.maegz

> <i_m_Source_File_Index>
56

> <chembl_id>
CHEMBL3672852

> <chembl_pref_name>
None

> <i_lp_mmshare_version>
53161

> <r_lp_tautomer_probability>
1

> <s_lp_Force_Field>
OPLS_2005

> <r_lp_Energy>
19.277624

> <b_lp_Chiralities_Consistent>
1

> <s_lp_Variant>
CHEMBL209_lig1299-1

> <s_i_glide_gridfile>
glide-grid_2ayw

> <i_i_glide_lignum>
1941

> <i_i_glide_rotatable_bonds>
9

> <r_i_docking_score>
-7.12133886164262

> <r_i_glide_ligand_efficiency>
-0.229720608440085

> <r_i_glide_ligand_efficiency_sa>
-0.721639873983227

> <r_i_glide_ligand_efficiency_ln>
-1.60608015612655

> <r_i_glide_gscore>
-7.12133886164262

> <r_i_glide_lipo>
-3.01313624209459

> <r_i_glide_hbond>
-1.0669501655287

> <r_i_glide_metal>
0

> <r_i_glide_rewards>
0.278844048997211

> <r_i_glide_evdw>
-42.1250114440918

> <r_i_glide_ecoul>
-12.3824291229248

> <r_i_glide_erotb>
0.720340190827014

> <r_i_glide_esite>
-0.0768217532002497

> <r_i_glide_emodel>
-68.306270053414

> <r_i_glide_energy>
-54.5074405670166

> <r_i_glide_einternal>
12.8019418716431

> <i_i_glide_confnum>
2

> <i_i_glide_posenum>
32

> <r_i_glide_eff_state_penalty>
0

> <s_user_duplicate_titles>
CHEMBL209_lig1299

> <i_f3d_flags>
0

> <s_m_subgroup_title>
dock_pv

> <s_m_subgroupid>
dock_pv

> <b_m_subgroup_collapsed>
1

$$$$
CHEMBL209_lig995
                    3D
 Schrodinger Suite 2021-1.
 51 53  0  0  1  0            999 V2000
   25.3669   18.9357   30.5214 N   0  0  0  0  0  0
   26.5524   18.8351   29.8878 C   0  0  0  0  0  0
   24.7081   20.1151   31.1074 C   0  0  1  0  0  0
   24.0095   20.9976   30.0282 C   0  0  0  0  0  0
   29.7351   15.2271   28.1910 C   0  0  0  0  0  0
   26.8242   17.4741   29.2903 C   0  0  0  0  0  0
   28.3765   15.7486   28.4845 C   0  0  0  0  0  0
   23.6072   20.4088   28.8847 N   0  0  0  0  0  0
   28.1259   17.0521   28.9689 C   0  0  0  0  0  0
   29.9131   14.0279   27.8748 N   0  0  0  0  0  0
   27.3561   19.7609   29.7911 O   0  0  0  0  0  0
   23.8959   22.2052   30.2357 O   0  0  0  0  0  0
   23.7843   19.7039   32.2615 C   0  0  0  0  0  0
   30.7517   16.1328   28.1915 N   0  0  0  0  0  0
   22.9453   21.0954   27.7708 C   0  0  0  0  0  0
   21.4166   21.1218   27.8223 C   0  0  0  0  0  0
   25.7665   16.5846   29.0743 C   0  0  0  0  0  0
   27.2700   14.8996   28.2934 C   0  0  0  0  0  0
   25.9841   15.3119   28.5924 C   0  0  0  0  0  0
   23.6963   18.3751   32.7259 C   0  0  0  0  0  0
   23.0236   20.6822   32.9232 C   0  0  0  0  0  0
   20.7313   22.1626   27.1868 C   0  0  0  0  0  0
   20.6936   20.1461   28.5183 C   0  0  0  0  0  0
   22.1869   20.3473   33.9850 C   0  0  0  0  0  0
   22.8626   18.0392   33.7890 C   0  0  0  0  0  0
   19.3050   20.2168   28.5910 C   0  0  0  0  0  0
   19.3406   22.2259   27.2444 C   0  0  0  0  0  0
   18.6337   21.2549   27.9501 C   0  0  0  0  0  0
   22.1079   19.0261   34.4130 C   0  0  0  0  0  0
   24.7967   18.1045   30.5369 H   0  0  0  0  0  0
   25.5037   20.7163   31.5544 H   0  0  0  0  0  0
   23.7270   19.4116   28.7966 H   0  0  0  0  0  0
   28.9489   17.7330   29.1391 H   0  0  0  0  0  0
   30.8809   13.8499   27.6167 H   0  0  0  0  0  0
   31.6576   15.8084   27.8744 H   0  0  0  0  0  0
   30.6940   17.0707   28.5725 H   0  0  0  0  0  0
   23.3119   22.1229   27.6992 H   0  0  0  0  0  0
   23.2357   20.6044   26.8421 H   0  0  0  0  0  0
   24.7518   16.8307   29.3323 H   0  0  0  0  0  0
   27.3979   13.8778   27.9648 H   0  0  0  0  0  0
   25.1573   14.6186   28.5909 H   0  0  0  0  0  0
   24.2628   17.5722   32.2783 H   0  0  0  0  0  0
   23.0762   21.7171   32.6190 H   0  0  0  0  0  0
   21.2730   22.9254   26.6465 H   0  0  0  0  0  0
   21.2042   19.3310   29.0058 H   0  0  0  0  0  0
   21.6051   21.1123   34.4778 H   0  0  0  0  0  0
   22.8004   17.0137   34.1240 H   0  0  0  0  0  0
   18.7518   19.4643   29.1352 H   0  0  0  0  0  0
   18.8140   23.0279   26.7491 H   0  0  0  0  0  0
   17.5559   21.3032   27.9998 H   0  0  0  0  0  0
   21.4618   18.7639   35.2381 H   0  0  0  0  0  0
  1  2  1  0  0  0
  1  3  1  0  0  0
  1 30  1  0  0  0
  2  6  1  0  0  0
  2 11  2  0  0  0
  3  4  1  0  0  0
  3 13  1  0  0  0
  3 31  1  0  0  0
  4  8  1  0  0  0
  4 12  2  0  0  0
  5  7  1  0  0  0
  5 10  2  0  0  0
  5 14  1  0  0  0
  6  9  1  0  0  0
  6 17  2  0  0  0
  7  9  2  0  0  0
  7 18  1  0  0  0
  8 15  1  0  0  0
  8 32  1  0  0  0
  9 33  1  0  0  0
 10 34  1  0  0  0
 13 20  2  0  0  0
 13 21  1  0  0  0
 14 35  1  0  0  0
 14 36  1  0  0  0
 15 16  1  0  0  0
 15 37  1  0  0  0
 15 38  1  0  0  0
 16 22  2  0  0  0
 16 23  1  0  0  0
 17 19  1  0  0  0
 17 39  1  0  0  0
 18 19  2  0  0  0
 18 40  1  0  0  0
 19 41  1  0  0  0
 20 25  1  0  0  0
 20 42  1  0  0  0
 21 24  2  0  0  0
 21 43  1  0  0  0
 22 27  1  0  0  0
 22 44  1  0  0  0
 23 26  2  0  0  0
 23 45  1  0  0  0
 24 29  1  0  0  0
 24 46  1  0  0  0
 25 29  2  0  0  0
 25 47  1  0  0  0
 26 28  1  0  0  0
 26 48  1  0  0  0
 27 28  2  0  0  0
 27 49  1  0  0  0
 28 50  1  0  0  0
 29 51  1  0  0  0
M  END
> <s_m_entry_id>
39301

> <s_m_entry_name>
dock_pv.57

> <s_m_Source_Path>
/home/csk/Desktop/cluster/DUD-E-result/try1

> <s_m_Source_File>
dock_pv.maegz

> <i_m_Source_File_Index>
57

> <chembl_id>
CHEMBL164376

> <chembl_pref_name>
None

> <i_lp_mmshare_version>
53161

> <r_lp_tautomer_probability>
1

> <s_lp_Force_Field>
OPLS_2005

> <r_lp_Energy>
9.238886

> <b_lp_Chiralities_Consistent>
1

> <s_lp_Variant>
CHEMBL209_lig995-1

> <s_i_glide_gridfile>
glide-grid_2ayw

> <i_i_glide_lignum>
1515

> <i_i_glide_rotatable_bonds>
9

> <r_i_docking_score>
-7.10519383799494

> <r_i_glide_ligand_efficiency>
-0.245006684068791

> <r_i_glide_ligand_efficiency_sa>
-0.752738157025146

> <r_i_glide_ligand_efficiency_ln>
-1.62690921673079

> <r_i_glide_gscore>
-7.10519383799494

> <r_i_glide_lipo>
-3.12752795382694

> <r_i_glide_hbond>
-0.48504183312169

> <r_i_glide_metal>
0

> <r_i_glide_rewards>
-0.972662246505801

> <r_i_glide_evdw>
-37.9825477600098

> <r_i_glide_ecoul>
-8.8638277053833

> <r_i_glide_erotb>
0.781975444242131

> <r_i_glide_esite>
-0.0732357049746537

> <r_i_glide_emodel>
-62.6259006111569

> <r_i_glide_energy>
-46.8463754653931

> <r_i_glide_einternal>
2.63663649559021

> <i_i_glide_confnum>
16

> <i_i_glide_posenum>
400

> <r_i_glide_eff_state_penalty>
0

> <s_user_duplicate_titles>
CHEMBL209_lig995

> <i_f3d_flags>
0

> <s_m_subgroup_title>
dock_pv

> <s_m_subgroupid>
dock_pv

> <b_m_subgroup_collapsed>
1

$$$$
CHEMBL209_lig1221
                    3D
 Schrodinger Suite 2021-1.
 39 40  0  0  1  0            999 V2000
   18.5627   21.5344   27.2222 C   0  0  0  0  0  0
   20.0533   21.3362   27.5727 C   0  0  2  0  0  0
   20.2461   21.5210   29.1086 C   0  0  0  0  0  0
   21.6737   21.4257   29.6253 C   0  0  0  0  0  0
   22.3409   22.2869   30.4934 C   0  0  0  0  0  0
   23.6569   21.9202   30.7839 C   0  0  0  0  0  0
   24.0496   20.7487   30.1522 C   0  0  0  0  0  0
   22.7483   20.1327   29.1666 S   0  0  0  0  0  0
   25.3626   20.1054   30.1910 C   0  0  0  0  0  0
   26.3614   20.7031   30.5945 O   0  0  0  0  0  0
   25.3155   18.8231   29.7119 O   0  0  0  0  0  0
   26.4251   18.0609   29.3897 C   0  0  0  0  0  0
   27.6754   18.1304   30.0222 C   0  0  0  0  0  0
   28.7198   17.3012   29.6165 C   0  0  0  0  0  0
   28.5358   16.3470   28.6026 C   0  0  0  0  0  0
   29.6300   15.4603   28.1934 C   0  0  0  0  0  0
   29.4800   14.2127   28.1908 N   0  0  0  0  0  0
   30.7563   16.1329   27.8097 N   0  0  0  0  0  0
   27.2799   16.2745   27.9805 C   0  0  0  0  0  0
   27.0388   15.3797   26.9910 F   0  0  0  0  0  0
   26.2495   17.1261   28.3700 C   0  0  0  0  0  0
   20.9582   22.2401   26.7026 C   0  0  0  0  0  0
   21.4547   23.2896   27.1066 O   0  0  0  0  0  0
   21.1519   21.7341   25.4495 O   0  0  0  0  0  0
   18.3567   21.3335   26.1745 H   0  0  0  0  0  0
   17.9310   20.8582   27.7993 H   0  0  0  0  0  0
   18.2319   22.5531   27.4293 H   0  0  0  0  0  0
   20.3143   20.3016   27.3381 H   0  0  0  0  0  0
   19.8279   22.4836   29.4069 H   0  0  0  0  0  0
   19.6424   20.7750   29.6284 H   0  0  0  0  0  0
   21.8779   23.1718   30.9071 H   0  0  0  0  0  0
   24.3037   22.4933   31.4332 H   0  0  0  0  0  0
   27.8561   18.8174   30.8358 H   0  0  0  0  0  0
   29.6728   17.3819   30.1206 H   0  0  0  0  0  0
   30.3165   13.7552   27.8530 H   0  0  0  0  0  0
   31.5308   15.5842   27.4432 H   0  0  0  0  0  0
   30.9409   17.0820   28.1206 H   0  0  0  0  0  0
   25.2941   17.0474   27.8736 H   0  0  0  0  0  0
   20.5599   21.0008   25.2382 H   0  0  0  0  0  0
  1  2  1  0  0  0
  1 25  1  0  0  0
  1 26  1  0  0  0
  1 27  1  0  0  0
  2  3  1  0  0  0
  2 22  1  0  0  0
  2 28  1  0  0  0
  3  4  1  0  0  0
  3 29  1  0  0  0
  3 30  1  0  0  0
  4  5  2  0  0  0
  4  8  1  0  0  0
  5  6  1  0  0  0
  5 31  1  0  0  0
  6  7  2  0  0  0
  6 32  1  0  0  0
  7  8  1  0  0  0
  7  9  1  0  0  0
  9 10  2  0  0  0
  9 11  1  0  0  0
 11 12  1  0  0  0
 12 13  2  0  0  0
 12 21  1  0  0  0
 13 14  1  0  0  0
 13 33  1  0  0  0
 14 15  2  0  0  0
 14 34  1  0  0  0
 15 16  1  0  0  0
 15 19  1  0  0  0
 16 17  2  0  0  0
 16 18  1  0  0  0
 17 35  1  0  0  0
 18 36  1  0  0  0
 18 37  1  0  0  0
 19 20  1  0  0  0
 19 21  2  0  0  0
 21 38  1  0  0  0
 22 23  2  0  0  0
 22 24  1  0  0  0
 24 39  1  0  0  0
M  END
> <s_m_entry_id>
39302

> <s_m_entry_name>
dock_pv.58

> <s_m_Source_Path>
/home/csk/Desktop/cluster/DUD-E-result/try1

> <s_m_Source_File>
dock_pv.maegz

> <i_m_Source_File_Index>
58

> <chembl_id>
CHEMBL3642906

> <chembl_pref_name>
None

> <i_lp_mmshare_version>
53161

> <r_lp_tautomer_probability>
1

> <s_lp_Force_Field>
OPLS_2005

> <r_lp_Energy>
11.476649

> <b_lp_Chiralities_Consistent>
1

> <s_lp_Variant>
CHEMBL209_lig1221-1

> <s_i_glide_gridfile>
glide-grid_2ayw

> <i_i_glide_lignum>
1839

> <i_i_glide_rotatable_bonds>
8

> <r_i_docking_score>
-7.07050270263443

> <r_i_glide_ligand_efficiency>
-0.294604279276435

> <r_i_glide_ligand_efficiency_sa>
-0.849785789494101

> <r_i_glide_ligand_efficiency_ln>
-1.69229574096837

> <r_i_glide_gscore>
-7.07050270263443

> <r_i_glide_lipo>
-2.0208636320533

> <r_i_glide_hbond>
-0.778239484257755

> <r_i_glide_metal>
0

> <r_i_glide_rewards>
-1.48601243668456

> <r_i_glide_evdw>
-33.4890670776367

> <r_i_glide_ecoul>
-12.9748802185059

> <r_i_glide_erotb>
0.931602055083724

> <r_i_glide_esite>
-0.0963038180648231

> <r_i_glide_emodel>
-63.4574037820405

> <r_i_glide_energy>
-46.4639472961426

> <r_i_glide_einternal>
5.17954158782959

> <i_i_glide_confnum>
7

> <i_i_glide_posenum>
12

> <r_i_glide_eff_state_penalty>
0

> <s_user_duplicate_titles>
CHEMBL209_lig1221

> <i_f3d_flags>
0

> <s_m_subgroup_title>
dock_pv

> <s_m_subgroupid>
dock_pv

> <b_m_subgroup_collapsed>
1

$$$$
CHEMBL209_lig1033
                    3D
 Schrodinger Suite 2021-1.
 51 54  0  0  1  0            999 V2000
   29.5530   13.9448   28.1910 N   0  0  0  0  0  0
   29.7534   15.1583   28.4404 C   0  0  0  0  0  0
   30.9859   15.7330   28.5910 N   0  0  0  0  0  0
   28.6036   16.0725   28.5780 C   0  0  0  0  0  0
   28.5908   17.1360   29.4951 C   0  0  0  0  0  0
   27.4416   17.9523   29.6575 C   0  0  0  0  0  0
   27.3866   19.0091   30.6003 C   0  0  0  0  0  0
   26.2544   19.8207   30.6867 C   0  0  0  0  0  0
   25.1468   19.6083   29.8575 C   0  0  0  0  0  0
   25.1712   18.5378   28.9589 C   0  0  0  0  0  0
   26.3030   17.7067   28.8390 C   0  0  0  0  0  0
   26.3368   16.6537   27.9041 C   0  0  0  0  0  0
   27.4638   15.8574   27.7910 C   0  0  0  0  0  0
   24.0245   20.6155   29.7910 C   0  0  0  0  0  0
   24.2586   21.8079   29.9930 O   0  0  0  0  0  0
   22.8230   20.1532   29.3827 N   0  0  0  0  0  0
   21.9777   20.8150   28.4779 C   0  0  0  0  0  0
   20.5958   20.6755   28.6134 C   0  0  0  0  0  0
   19.7366   21.2433   27.6755 C   0  0  0  0  0  0
   20.2560   21.9214   26.5744 C   0  0  0  0  0  0
   21.6436   22.0343   26.3942 C   0  0  0  0  0  0
   22.2531   22.6121   25.2966 O   0  0  0  0  0  0
   21.4825   22.9189   24.1328 C   0  0  0  0  0  0
   20.8159   24.3061   24.2446 C   0  0  0  0  0  0
   21.5581   25.2177   23.2609 C   0  0  0  0  0  0
   22.0540   24.2705   22.1723 C   0  0  0  0  0  0
   22.4612   23.0161   22.9464 C   0  0  0  0  0  0
   22.4901   21.5051   27.3682 C   0  0  0  0  0  0
   28.5738   13.7068   28.1910 H   0  0  0  0  0  0
   31.7750   15.1717   28.2774 H   0  0  0  0  0  0
   31.1060   16.7396   28.6333 H   0  0  0  0  0  0
   29.4495   17.3275   30.1245 H   0  0  0  0  0  0
   28.2414   19.1997   31.2336 H   0  0  0  0  0  0
   26.2616   20.6487   31.3824 H   0  0  0  0  0  0
   24.3530   18.3787   28.2738 H   0  0  0  0  0  0
   25.4806   16.4680   27.2712 H   0  0  0  0  0  0
   27.4376   15.0626   27.0595 H   0  0  0  0  0  0
   22.6055   19.1818   29.5502 H   0  0  0  0  0  0
   20.1719   20.1330   29.4409 H   0  0  0  0  0  0
   18.6678   21.1369   27.7898 H   0  0  0  0  0  0
   19.5655   22.3261   25.8511 H   0  0  0  0  0  0
   20.7560   22.1329   23.9199 H   0  0  0  0  0  0
   19.7567   24.2401   23.9930 H   0  0  0  0  0  0
   20.8983   24.7180   25.2514 H   0  0  0  0  0  0
   20.9207   26.0091   22.8644 H   0  0  0  0  0  0
   22.4073   25.6945   23.7545 H   0  0  0  0  0  0
   21.2463   24.0405   21.4742 H   0  0  0  0  0  0
   22.8803   24.6909   21.5969 H   0  0  0  0  0  0
   23.4926   23.1103   23.2927 H   0  0  0  0  0  0
   22.4157   22.1330   22.3091 H   0  0  0  0  0  0
   23.5562   21.5918   27.2233 H   0  0  0  0  0  0
  1  2  2  0  0  0
  1 29  1  0  0  0
  2  3  1  0  0  0
  2  4  1  0  0  0
  3 30  1  0  0  0
  3 31  1  0  0  0
  4  5  2  0  0  0
  4 13  1  0  0  0
  5  6  1  0  0  0
  5 32  1  0  0  0
  6  7  2  0  0  0
  6 11  1  0  0  0
  7  8  1  0  0  0
  7 33  1  0  0  0
  8  9  2  0  0  0
  8 34  1  0  0  0
  9 10  1  0  0  0
  9 14  1  0  0  0
 10 11  2  0  0  0
 10 35  1  0  0  0
 11 12  1  0  0  0
 12 13  2  0  0  0
 12 36  1  0  0  0
 13 37  1  0  0  0
 14 15  2  0  0  0
 14 16  1  0  0  0
 16 17  1  0  0  0
 16 38  1  0  0  0
 17 18  2  0  0  0
 17 28  1  0  0  0
 18 19  1  0  0  0
 18 39  1  0  0  0
 19 20  2  0  0  0
 19 40  1  0  0  0
 20 21  1  0  0  0
 20 41  1  0  0  0
 21 22  1  0  0  0
 21 28  2  0  0  0
 22 23  1  0  0  0
 23 24  1  0  0  0
 23 27  1  0  0  0
 23 42  1  0  0  0
 24 25  1  0  0  0
 24 43  1  0  0  0
 24 44  1  0  0  0
 25 26  1  0  0  0
 25 45  1  0  0  0
 25 46  1  0  0  0
 26 27  1  0  0  0
 26 47  1  0  0  0
 26 48  1  0  0  0
 27 49  1  0  0  0
 27 50  1  0  0  0
 28 51  1  0  0  0
M  END
> <s_m_entry_id>
39303

> <s_m_entry_name>
dock_pv.59

> <s_m_Source_Path>
/home/csk/Desktop/cluster/DUD-E-result/try1

> <s_m_Source_File>
dock_pv.maegz

> <i_m_Source_File_Index>
59

> <chembl_id>
CHEMBL111575

> <chembl_pref_name>
None

> <i_lp_mmshare_version>
53161

> <r_lp_tautomer_probability>
1

> <s_lp_Force_Field>
OPLS_2005

> <r_lp_Energy>
39.609885

> <b_lp_Chiralities_Consistent>
1

> <s_lp_Variant>
CHEMBL209_lig1033-1

> <s_i_glide_gridfile>
glide-grid_2ayw

> <i_i_glide_lignum>
1564

> <i_i_glide_rotatable_bonds>
6

> <r_i_docking_score>
-7.05039899854517

> <r_i_glide_ligand_efficiency>
-0.251799964233756

> <r_i_glide_ligand_efficiency_sa>
-0.764612993661628

> <r_i_glide_ligand_efficiency_ln>
-1.62743909757391

> <r_i_glide_gscore>
-7.05039899854517

> <r_i_glide_lipo>
-3.33358973936261

> <r_i_glide_hbond>
-0.688084484170688

> <r_i_glide_metal>
0

> <r_i_glide_rewards>
-0.295709933661718

> <r_i_glide_evdw>
-42.1057319641113

> <r_i_glide_ecoul>
-8.15813827514648

> <r_i_glide_erotb>
0.692842396112127

> <r_i_glide_esite>
-0.0968498979847424

> <r_i_glide_emodel>
-59.9584808074664

> <r_i_glide_energy>
-50.2638702392578

> <r_i_glide_einternal>
17.0478916168213

> <i_i_glide_confnum>
82

> <i_i_glide_posenum>
103

> <r_i_glide_eff_state_penalty>
0

> <s_user_duplicate_titles>
CHEMBL209_lig1033,181505

> <i_f3d_flags>
0

> <s_m_subgroup_title>
dock_pv

> <s_m_subgroupid>
dock_pv

> <b_m_subgroup_collapsed>
1

$$$$
CHEMBL209_lig1134
                    3D
 Schrodinger Suite 2021-1.
 19 19  0  0  1  0            999 V2000
   28.3533   14.7864   27.7912 N   0  0  0  0  0  0
   30.3285   15.9807   28.1909 N   0  0  0  0  0  0
   25.9534   19.9974   30.5911 N   0  0  0  0  0  0
   28.2068   16.9245   28.8186 C   0  0  0  0  0  0
   28.9671   15.7982   28.2231 C   0  0  0  0  0  0
   28.7530   17.7329   29.8308 C   0  0  0  0  0  0
   26.8909   17.1942   28.4000 C   0  0  0  0  0  0
   26.7047   18.9873   29.9949 C   0  0  0  0  0  0
   28.0101   18.7552   30.4151 C   0  0  0  0  0  0
   26.1440   18.2119   28.9855 C   0  0  0  0  0  0
   27.3597   14.8611   27.9488 H   0  0  0  0  0  0
   30.9037   15.2911   27.7193 H   0  0  0  0  0  0
   30.7600   16.8464   28.4911 H   0  0  0  0  0  0
   24.9545   19.9797   30.4431 H   0  0  0  0  0  0
   26.3145   20.3900   31.4483 H   0  0  0  0  0  0
   29.7574   17.5640   30.1939 H   0  0  0  0  0  0
   26.4253   16.6123   27.6163 H   0  0  0  0  0  0
   28.4519   19.3517   31.1994 H   0  0  0  0  0  0
   25.1323   18.3880   28.6511 H   0  0  0  0  0  0
  1  5  2  0  0  0
  1 11  1  0  0  0
  2  5  1  0  0  0
  2 12  1  0  0  0
  2 13  1  0  0  0
  3  8  1  0  0  0
  3 14  1  0  0  0
  3 15  1  0  0  0
  4  5  1  0  0  0
  4  6  2  0  0  0
  4  7  1  0  0  0
  6  9  1  0  0  0
  6 16  1  0  0  0
  7 10  2  0  0  0
  7 17  1  0  0  0
  8  9  2  0  0  0
  8 10  1  0  0  0
  9 18  1  0  0  0
 10 19  1  0  0  0
M  END
> <s_m_entry_id>
39304

> <s_m_entry_name>
dock_pv.60

> <s_m_Source_Path>
/home/csk/Desktop/cluster/DUD-E-result/try1

> <s_m_Source_File>
dock_pv.maegz

> <i_m_Source_File_Index>
60

> <chembl_id>
CHEMBL1562872

> <chembl_pref_name>
None

> <i_lp_mmshare_version>
53161

> <r_lp_tautomer_probability>
1

> <s_lp_Force_Field>
OPLS_2005

> <r_lp_Energy>
6.631832

> <b_lp_Chiralities_Consistent>
1

> <s_lp_Variant>
CHEMBL209_lig1134-1

> <s_i_glide_gridfile>
glide-grid_2ayw

> <i_i_glide_lignum>
1693

> <i_i_glide_rotatable_bonds>
1

> <r_i_docking_score>
-7.04808782350499

> <r_i_glide_ligand_efficiency>
-0.704808782350499

> <r_i_glide_ligand_efficiency_sa>
-1.51846448936958

> <r_i_glide_ligand_efficiency_ln>
-2.13411240741578

> <r_i_glide_gscore>
-7.04808782350499

> <r_i_glide_lipo>
-1.42036351777137

> <r_i_glide_hbond>
-0.626510619288465

> <r_i_glide_metal>
0

> <r_i_glide_rewards>
-2.7

> <r_i_glide_evdw>
-21.2617855072021

> <r_i_glide_ecoul>
-7.96498680114746

> <r_i_glide_erotb>
0

> <r_i_glide_esite>
-0.0433763909129304

> <r_i_glide_emodel>
-41.5786904388027

> <r_i_glide_energy>
-29.2267723083496

> <r_i_glide_einternal>
0.12810181081295

> <i_i_glide_confnum>
1

> <i_i_glide_posenum>
291

> <r_i_glide_eff_state_penalty>
0

> <s_user_duplicate_titles>
CHEMBL209_lig1134

> <i_f3d_flags>
0

> <s_m_subgroup_title>
dock_pv

> <s_m_subgroupid>
dock_pv

> <b_m_subgroup_collapsed>
1

$$$$
CHEMBL209_lig180
                    3D
 Schrodinger Suite 2021-1.
 65 67  0  0  1  0            999 V2000
   28.5807   16.6086   28.5550 N   0  0  0  0  0  0
   22.9042   20.1272   33.7127 S   0  0  0  0  0  0
   26.2347   20.9821   33.8753 C   0  0  0  0  0  0
   27.5751   20.7093   33.8029 N   0  0  0  0  0  0
   28.9244   17.7948   29.3506 C   0  0  2  0  0  0
   29.4774   15.5274   28.2843 C   0  0  0  0  0  0
   25.4607   20.2405   35.0101 C   0  0  1  0  0  0
   24.0286   20.6698   34.9663 N   0  0  1  0  0  0
   27.9719   20.3639   31.3747 C   0  0  0  0  0  0
   27.8592   18.0162   30.4579 C   0  0  1  0  0  0
   28.1974   19.0405   31.4499 N   0  0  0  0  0  0
   28.3250   21.1978   32.6200 C   0  0  0  0  0  0
   22.1451   21.3033   33.2786 O   0  0  0  0  0  0
   23.6211   19.3032   32.7357 O   0  0  0  0  0  0
   29.1245   14.4345   27.7910 N   0  0  0  0  0  0
   21.7360   19.0098   34.6799 C   0  0  0  0  0  0
   25.6637   21.7417   33.0845 O   0  0  0  0  0  0
   27.5052   20.9289   30.3886 O   0  0  0  0  0  0
   30.8334   15.7330   28.5908 N   0  0  0  0  0  0
   27.2809   16.7406   27.8760 C   0  0  0  0  0  0
   29.1530   18.9649   28.5912 O   0  0  0  0  0  0
   28.3591   20.0419   34.8572 C   0  0  0  0  0  0
   25.5691   18.6903   35.0111 C   0  0  0  0  0  0
   20.8549   19.8002   35.6353 C   0  0  0  0  0  0
   26.4045   18.0232   29.9114 C   0  0  0  0  0  0
   26.1507   16.8808   28.9066 C   0  0  0  0  0  0
   21.2922   20.0608   36.9354 C   0  0  0  0  0  0
   19.6328   20.3135   35.1932 C   0  0  0  0  0  0
   28.1445   18.5274   35.0017 C   0  0  0  0  0  0
   26.8288   18.1350   35.6842 C   0  0  0  0  0  0
   18.8453   21.0740   36.0529 C   0  0  0  0  0  0
   20.5085   20.8301   37.7910 C   0  0  0  0  0  0
   19.2877   21.3328   37.3464 C   0  0  0  0  0  0
   29.8608   17.6231   29.8850 H   0  0  0  0  0  0
   25.8379   20.6293   35.9566 H   0  0  0  0  0  0
   23.8585   21.6258   35.2904 H   0  0  0  0  0  0
   27.9072   17.1094   31.0600 H   0  0  0  0  0  0
   28.6776   18.7051   32.2715 H   0  0  0  0  0  0
   29.3999   21.1307   32.7869 H   0  0  0  0  0  0
   28.1117   22.2526   32.4369 H   0  0  0  0  0  0
   29.9272   13.8311   27.6679 H   0  0  0  0  0  0
   21.1533   18.4706   33.9380 H   0  0  0  0  0  0
   22.3399   18.2728   35.2054 H   0  0  0  0  0  0
   31.5344   15.0872   28.2411 H   0  0  0  0  0  0
   31.1924   16.6636   28.7698 H   0  0  0  0  0  0
   27.3064   17.6321   27.2499 H   0  0  0  0  0  0
   27.0790   15.8969   27.2121 H   0  0  0  0  0  0
   30.0637   18.9338   28.2772 H   0  0  0  0  0  0
   29.4129   20.3100   34.7792 H   0  0  0  0  0  0
   28.0741   20.4956   35.8065 H   0  0  0  0  0  0
   25.5230   18.2999   33.9945 H   0  0  0  0  0  0
   24.7039   18.2607   35.5189 H   0  0  0  0  0  0
   26.2231   18.9618   29.3852 H   0  0  0  0  0  0
   25.6826   17.9692   30.7285 H   0  0  0  0  0  0
   25.2131   17.0705   28.3847 H   0  0  0  0  0  0
   25.9982   15.9165   29.3909 H   0  0  0  0  0  0
   22.2399   19.6755   37.2825 H   0  0  0  0  0  0
   19.2988   20.1344   34.1813 H   0  0  0  0  0  0
   28.2356   18.0368   34.0336 H   0  0  0  0  0  0
   28.9576   18.1269   35.6076 H   0  0  0  0  0  0
   26.7647   17.0481   35.7070 H   0  0  0  0  0  0
   26.8506   18.4544   36.7277 H   0  0  0  0  0  0
   17.8997   21.4728   35.7112 H   0  0  0  0  0  0
   20.8464   21.0298   38.7983 H   0  0  0  0  0  0
   18.6780   21.9267   38.0133 H   0  0  0  0  0  0
  1  5  1  0  0  0
  1  6  1  0  0  0
  1 20  1  0  0  0
  2  8  1  0  0  0
  2 13  2  0  0  0
  2 14  2  0  0  0
  2 16  1  0  0  0
  3  4  1  0  0  0
  3  7  1  0  0  0
  3 17  2  0  0  0
  4 12  1  0  0  0
  4 22  1  0  0  0
  5 10  1  0  0  0
  5 21  1  0  0  0
  5 34  1  0  0  0
  6 15  2  0  0  0
  6 19  1  0  0  0
  7  8  1  0  0  0
  7 23  1  0  0  0
  7 35  1  0  0  0
  8 36  1  0  0  0
  9 11  1  0  0  0
  9 12  1  0  0  0
  9 18  2  0  0  0
 10 11  1  0  0  0
 10 25  1  0  0  0
 10 37  1  0  0  0
 11 38  1  0  0  0
 12 39  1  0  0  0
 12 40  1  0  0  0
 15 41  1  0  0  0
 16 24  1  0  0  0
 16 42  1  0  0  0
 16 43  1  0  0  0
 19 44  1  0  0  0
 19 45  1  0  0  0
 20 26  1  0  0  0
 20 46  1  0  0  0
 20 47  1  0  0  0
 21 48  1  0  0  0
 22 29  1  0  0  0
 22 49  1  0  0  0
 22 50  1  0  0  0
 23 30  1  0  0  0
 23 51  1  0  0  0
 23 52  1  0  0  0
 24 27  2  0  0  0
 24 28  1  0  0  0
 25 26  1  0  0  0
 25 53  1  0  0  0
 25 54  1  0  0  0
 26 55  1  0  0  0
 26 56  1  0  0  0
 27 32  1  0  0  0
 27 57  1  0  0  0
 28 31  2  0  0  0
 28 58  1  0  0  0
 29 30  1  0  0  0
 29 59  1  0  0  0
 29 60  1  0  0  0
 30 61  1  0  0  0
 30 62  1  0  0  0
 31 33  1  0  0  0
 31 63  1  0  0  0
 32 33  2  0  0  0
 32 64  1  0  0  0
 33 65  1  0  0  0
M  END
> <s_m_entry_id>
39305

> <s_m_entry_name>
dock_pv.61

> <s_m_Source_Path>
/home/csk/Desktop/cluster/DUD-E-result/try1

> <s_m_Source_File>
dock_pv.maegz

> <i_m_Source_File_Index>
61

> <chembl_id>
CHEMBL82032

> <chembl_pref_name>
None

> <i_lp_mmshare_version>
53161

> <r_lp_tautomer_probability>
1

> <s_lp_Force_Field>
OPLS_2005

> <r_lp_Energy>
24.564255

> <b_lp_Chiralities_Consistent>
1

> <s_lp_Variant>
CHEMBL209_lig180-1

> <s_i_glide_gridfile>
glide-grid_2ayw

> <i_i_glide_lignum>
323

> <i_i_glide_rotatable_bonds>
10

> <r_i_docking_score>
-7.0314179838346

> <r_i_glide_ligand_efficiency>
-0.213073272237412

> <r_i_glide_ligand_efficiency_sa>
-0.683439834709495

> <r_i_glide_ligand_efficiency_ln>
-1.56375095287094

> <r_i_glide_gscore>
-7.0314179838346

> <r_i_glide_lipo>
-1.86811133608191

> <r_i_glide_hbond>
-0.975528091807407

> <r_i_glide_metal>
0

> <r_i_glide_rewards>
-0.794264374110871

> <r_i_glide_evdw>
-32.9221496582031

> <r_i_glide_ecoul>
-15.3276414871216

> <r_i_glide_erotb>
0.614657365029489

> <r_i_glide_esite>
-0.0629178408855072

> <r_i_glide_emodel>
-62.9542809988511

> <r_i_glide_energy>
-48.2497911453247

> <r_i_glide_einternal>
12.1622104644775

> <i_i_glide_confnum>
185

> <i_i_glide_posenum>
182

> <r_i_glide_eff_state_penalty>
0

> <s_user_duplicate_titles>
CHEMBL209_lig180,CHEMBL209_lig346

> <i_f3d_flags>
0

> <s_m_subgroup_title>
dock_pv

> <s_m_subgroupid>
dock_pv

> <b_m_subgroup_collapsed>
1

$$$$
CHEMBL209_lig867
                    3D
 Schrodinger Suite 2021-1.
 34 36  0  0  1  0            999 V2000
   27.1398   18.0358   29.5803 C   0  0  0  0  0  0
   27.0611   19.3376   30.1882 C   0  0  0  0  0  0
   28.3580   17.4028   29.1743 C   0  0  0  0  0  0
   28.2469   20.2246   30.3616 C   0  0  0  0  0  0
   29.6153   15.3778   28.2468 C   0  0  0  0  0  0
   28.3736   16.1173   28.5918 C   0  0  0  0  0  0
   25.9287   17.3100   29.3915 C   0  0  0  0  0  0
   29.5885   14.1332   28.0431 N   0  0  0  0  0  0
   25.8165   19.8582   30.6009 C   0  0  0  0  0  0
   29.9530   21.6085   29.8640 O   0  0  0  0  0  0
   29.1523   20.6243   29.3915 C   0  0  0  0  0  0
   28.6398   20.8993   31.5263 C   0  0  0  0  0  0
   29.6671   21.7534   31.1787 C   0  0  0  0  0  0
   27.1440   15.4922   28.3553 C   0  0  0  0  0  0
   24.6653   19.0822   30.4623 C   0  0  0  0  0  0
   25.9496   16.0606   28.7466 C   0  0  0  0  0  0
   24.7185   17.8316   29.8774 C   0  0  0  0  0  0
   30.7526   16.1318   28.1624 N   0  0  0  0  0  0
   25.7721   21.1496   31.1089 O   0  0  0  0  0  0
   24.5873   21.6287   31.7374 C   0  0  0  0  0  0
   29.2888   17.9152   29.3660 H   0  0  0  0  0  0
   30.5067   13.7880   27.7868 H   0  0  0  0  0  0
   29.2687   20.3859   28.3449 H   0  0  0  0  0  0
   28.1716   20.8206   32.4967 H   0  0  0  0  0  0
   30.2423   22.4902   31.7198 H   0  0  0  0  0  0
   27.0965   14.5129   27.8995 H   0  0  0  0  0  0
   23.7000   19.4374   30.7892 H   0  0  0  0  0  0
   25.0256   15.5202   28.5957 H   0  0  0  0  0  0
   23.8187   17.2424   29.7922 H   0  0  0  0  0  0
   31.5931   15.6607   27.8417 H   0  0  0  0  0  0
   30.8461   17.0820   28.5139 H   0  0  0  0  0  0
   24.7814   22.6119   32.1632 H   0  0  0  0  0  0
   23.7699   21.7375   31.0234 H   0  0  0  0  0  0
   24.2683   20.9736   32.5500 H   0  0  0  0  0  0
  1  2  2  0  0  0
  1  3  1  0  0  0
  1  7  1  0  0  0
  2  4  1  0  0  0
  2  9  1  0  0  0
  3  6  2  0  0  0
  3 21  1  0  0  0
  4 11  2  0  0  0
  4 12  1  0  0  0
  5  6  1  0  0  0
  5  8  2  0  0  0
  5 18  1  0  0  0
  6 14  1  0  0  0
  7 16  1  0  0  0
  7 17  2  0  0  0
  8 22  1  0  0  0
  9 19  1  0  0  0
  9 15  2  0  0  0
 10 11  1  0  0  0
 10 13  1  0  0  0
 11 23  1  0  0  0
 12 13  2  0  0  0
 12 24  1  0  0  0
 13 25  1  0  0  0
 14 16  2  0  0  0
 14 26  1  0  0  0
 15 17  1  0  0  0
 15 27  1  0  0  0
 16 28  1  0  0  0
 17 29  1  0  0  0
 18 30  1  0  0  0
 18 31  1  0  0  0
 19 20  1  0  0  0
 20 32  1  0  0  0
 20 33  1  0  0  0
 20 34  1  0  0  0
M  END
> <s_m_entry_id>
39307

> <s_m_entry_name>
dock_pv.63

> <s_m_Source_Path>
/home/csk/Desktop/cluster/DUD-E-result/try1

> <s_m_Source_File>
dock_pv.maegz

> <i_m_Source_File_Index>
63

> <chembl_id>
CHEMBL104904

> <chembl_pref_name>
None

> <i_lp_mmshare_version>
53161

> <r_lp_tautomer_probability>
1

> <s_lp_Force_Field>
OPLS_2005

> <r_lp_Energy>
31.064182

> <b_lp_Chiralities_Consistent>
1

> <s_lp_Variant>
CHEMBL209_lig867-1

> <s_i_glide_gridfile>
glide-grid_2ayw

> <i_i_glide_lignum>
1309

> <i_i_glide_rotatable_bonds>
3

> <r_i_docking_score>
-7.02753907661773

> <r_i_glide_ligand_efficiency>
-0.351376953830886

> <r_i_glide_ligand_efficiency_sa>
-0.953783792591586

> <r_i_glide_ligand_efficiency_ln>
-1.75876124712608

> <r_i_glide_gscore>
-7.02753907661773

> <r_i_glide_lipo>
-2.10163970379675

> <r_i_glide_hbond>
-0.652544933957533

> <r_i_glide_metal>
0

> <r_i_glide_rewards>
-1.72074431843129

> <r_i_glide_evdw>
-26.9312496185303

> <r_i_glide_ecoul>
-9.32583713531494

> <r_i_glide_erotb>
0.251173212942532

> <r_i_glide_esite>
-0.0583452821509312

> <r_i_glide_emodel>
-50.0860998023302

> <r_i_glide_energy>
-36.2570867538452

> <r_i_glide_einternal>
0.573154091835022

> <i_i_glide_confnum>
2

> <i_i_glide_posenum>
349

> <r_i_glide_eff_state_penalty>
0

> <s_user_duplicate_titles>
CHEMBL209_lig867

> <i_f3d_flags>
0

> <s_m_subgroup_title>
dock_pv

> <s_m_subgroupid>
dock_pv

> <b_m_subgroup_collapsed>
1

$$$$
CHEMBL209_lig1245
                    3D
 Schrodinger Suite 2021-1.
 45 46  0  0  1  0            999 V2000
   18.9066   20.9988   29.1290 C   0  0  0  0  0  0
   19.9961   21.6948   28.2876 C   0  0  2  0  0  0
   20.5222   20.7348   27.1803 C   0  0  0  0  0  0
   21.6097   21.2590   26.2011 C   0  0  0  0  0  0
   21.3329   22.6215   25.5733 C   0  0  0  0  0  0
   21.9394   23.6448   25.8753 O   0  0  0  0  0  0
   20.3529   22.5330   24.6401 O   0  0  0  0  0  0
   21.0771   22.3637   29.1849 C   0  0  0  0  0  0
   21.9522   21.4129   29.9838 C   0  0  0  0  0  0
   21.9055   21.0636   31.3332 C   0  0  0  0  0  0
   22.8747   20.1326   31.7307 C   0  0  0  0  0  0
   23.7133   19.7425   30.6957 C   0  0  0  0  0  0
   23.2914   20.5995   29.2412 S   0  0  0  0  0  0
   24.8136   18.7754   30.7132 C   0  0  0  0  0  0
   25.1540   18.1558   31.7246 O   0  0  0  0  0  0
   25.3912   18.6718   29.4807 O   0  0  0  0  0  0
   26.4557   17.8365   29.2679 C   0  0  0  0  0  0
   26.2455   16.6355   28.5957 C   0  0  0  0  0  0
   27.3222   15.8094   28.2942 C   0  0  0  0  0  0
   28.6404   16.1566   28.6503 C   0  0  0  0  0  0
   28.8221   17.3726   29.3359 C   0  0  0  0  0  0
   27.7517   18.2107   29.6307 C   0  0  0  0  0  0
   27.9800   19.3891   30.2575 F   0  0  0  0  0  0
   29.7712   15.2543   28.3093 C   0  0  0  0  0  0
   29.5531   14.1329   27.7910 N   0  0  0  0  0  0
   31.0261   15.7330   28.5908 N   0  0  0  0  0  0
   19.2986   20.1335   29.6628 H   0  0  0  0  0  0
   18.4794   21.6752   29.8701 H   0  0  0  0  0  0
   18.0858   20.6465   28.5024 H   0  0  0  0  0  0
   19.4906   22.5135   27.7723 H   0  0  0  0  0  0
   19.6681   20.3967   26.5912 H   0  0  0  0  0  0
   20.8964   19.8230   27.6486 H   0  0  0  0  0  0
   21.7697   20.5335   25.4031 H   0  0  0  0  0  0
   22.5707   21.3385   26.7019 H   0  0  0  0  0  0
   20.0119   21.6271   24.5901 H   0  0  0  0  0  0
   21.7081   23.0056   28.5697 H   0  0  0  0  0  0
   20.5789   23.0493   29.8717 H   0  0  0  0  0  0
   21.1669   21.4630   32.0126 H   0  0  0  0  0  0
   22.9515   19.7450   32.7368 H   0  0  0  0  0  0
   25.2470   16.3438   28.3031 H   0  0  0  0  0  0
   27.1138   14.8857   27.7728 H   0  0  0  0  0  0
   29.8016   17.6932   29.6572 H   0  0  0  0  0  0
   30.4239   13.6582   27.5790 H   0  0  0  0  0  0
   31.8083   15.1933   28.2235 H   0  0  0  0  0  0
   31.1881   16.7213   28.7582 H   0  0  0  0  0  0
  1  2  1  0  0  0
  1 27  1  0  0  0
  1 28  1  0  0  0
  1 29  1  0  0  0
  2  3  1  0  0  0
  2  8  1  0  0  0
  2 30  1  0  0  0
  3  4  1  0  0  0
  3 31  1  0  0  0
  3 32  1  0  0  0
  4  5  1  0  0  0
  4 33  1  0  0  0
  4 34  1  0  0  0
  5  6  2  0  0  0
  5  7  1  0  0  0
  7 35  1  0  0  0
  8  9  1  0  0  0
  8 36  1  0  0  0
  8 37  1  0  0  0
  9 10  2  0  0  0
  9 13  1  0  0  0
 10 11  1  0  0  0
 10 38  1  0  0  0
 11 12  2  0  0  0
 11 39  1  0  0  0
 12 13  1  0  0  0
 12 14  1  0  0  0
 14 15  2  0  0  0
 14 16  1  0  0  0
 16 17  1  0  0  0
 17 18  2  0  0  0
 17 22  1  0  0  0
 18 19  1  0  0  0
 18 40  1  0  0  0
 19 20  2  0  0  0
 19 41  1  0  0  0
 20 21  1  0  0  0
 20 24  1  0  0  0
 21 22  2  0  0  0
 21 42  1  0  0  0
 22 23  1  0  0  0
 24 25  2  0  0  0
 24 26  1  0  0  0
 25 43  1  0  0  0
 26 44  1  0  0  0
 26 45  1  0  0  0
M  END
> <s_m_entry_id>
39308

> <s_m_entry_name>
dock_pv.64

> <s_m_Source_Path>
/home/csk/Desktop/cluster/DUD-E-result/try1

> <s_m_Source_File>
dock_pv.maegz

> <i_m_Source_File_Index>
64

> <chembl_id>
CHEMBL3642964

> <chembl_pref_name>
None

> <i_lp_mmshare_version>
53161

> <r_lp_tautomer_probability>
1

> <s_lp_Force_Field>
OPLS_2005

> <r_lp_Energy>
6.845324

> <b_lp_Chiralities_Consistent>
1

> <s_lp_Variant>
CHEMBL209_lig1245-1

> <s_i_glide_gridfile>
glide-grid_2ayw

> <i_i_glide_lignum>
1878

> <i_i_glide_rotatable_bonds>
10

> <r_i_docking_score>
-7.02533681520861

> <r_i_glide_ligand_efficiency>
-0.270205262123408

> <r_i_glide_ligand_efficiency_sa>
-0.800482025834231

> <r_i_glide_ligand_efficiency_ln>
-1.64987729904145

> <r_i_glide_gscore>
-7.02533681520861

> <r_i_glide_lipo>
-2.14431212938772

> <r_i_glide_hbond>
-0.677160000540541

> <r_i_glide_metal>
0

> <r_i_glide_rewards>
-1.22167591197555

> <r_i_glide_evdw>
-34.5300559997559

> <r_i_glide_ecoul>
-14.9562931060791

> <r_i_glide_erotb>
1.08261739354203

> <r_i_glide_esite>
-0.0948594009471687

> <r_i_glide_emodel>
-68.7493799582492

> <r_i_glide_energy>
-49.486349105835

> <r_i_glide_einternal>
3.63167357444763

> <i_i_glide_confnum>
15

> <i_i_glide_posenum>
102

> <r_i_glide_eff_state_penalty>
0

> <s_user_duplicate_titles>
CHEMBL209_lig1245

> <i_f3d_flags>
0

> <s_m_subgroup_title>
dock_pv

> <s_m_subgroupid>
dock_pv

> <b_m_subgroup_collapsed>
1

$$$$
CHEMBL209_lig1010
                    3D
 Schrodinger Suite 2021-1.
 56 58  0  0  1  0            999 V2000
   24.6590   19.8853   30.4174 N   0  0  0  0  0  0
   25.9616   20.1640   30.5860 C   0  0  0  0  0  0
   23.5344   20.8177   30.5824 C   0  0  1  0  0  0
   22.7685   20.8246   29.2408 C   0  0  0  0  0  0
   27.0743   15.9238   27.9994 C   0  0  0  0  0  0
   26.9258   19.0754   30.1858 C   0  0  0  0  0  0
   27.4576   17.0342   28.9084 C   0  0  0  0  0  0
   21.9695   19.7735   28.9904 N   0  0  0  0  0  0
   26.5516   18.0339   29.3170 C   0  0  0  0  0  0
   27.8183   14.9329   27.7962 N   0  0  0  0  0  0
   26.3658   21.2547   30.9931 O   0  0  0  0  0  0
   22.9481   21.7516   28.4512 O   0  0  0  0  0  0
   22.6954   20.5367   31.8257 C   0  0  0  0  0  0
   25.8632   16.0802   27.3912 N   0  0  0  0  0  0
   21.0892   19.6541   27.8349 C   0  0  0  0  0  0
   19.9519   20.6627   27.8244 C   0  0  0  0  0  0
   17.7988   22.4302   27.6690 C   0  0  0  0  0  0
   16.7530   24.5353   26.7998 N   0  0  0  0  0  0
   18.8085   20.4379   28.5924 C   0  0  0  0  0  0
   20.0261   21.7754   26.9892 C   0  0  0  0  0  0
   18.9585   22.6607   26.9158 C   0  0  0  0  0  0
   17.7361   21.3201   28.5144 C   0  0  0  0  0  0
   28.2445   19.1246   30.6385 C   0  0  0  0  0  0
   28.7696   17.1251   29.3916 C   0  0  0  0  0  0
   29.1531   18.1580   30.2362 C   0  0  0  0  0  0
   16.5629   23.3189   27.5724 C   0  0  0  0  0  0
   21.5257   21.2812   32.0407 C   0  0  0  0  0  0
   23.0828   19.5958   32.7957 C   0  0  0  0  0  0
   22.3096   19.3913   33.9345 C   0  0  0  0  0  0
   20.7500   21.0751   33.1778 C   0  0  0  0  0  0
   21.1477   20.1335   34.1217 C   0  0  0  0  0  0
   24.4007   18.9319   30.2206 H   0  0  0  0  0  0
   23.9462   21.8235   30.7020 H   0  0  0  0  0  0
   21.8606   19.0643   29.7059 H   0  0  0  0  0  0
   25.5388   18.0049   28.9461 H   0  0  0  0  0  0
   27.3411   14.2819   27.1965 H   0  0  0  0  0  0
   25.5837   15.4296   26.6750 H   0  0  0  0  0  0
   25.1399   16.6825   27.7593 H   0  0  0  0  0  0
   21.6643   19.7107   26.9079 H   0  0  0  0  0  0
   20.6500   18.6558   27.8515 H   0  0  0  0  0  0
   17.4062   25.1446   27.2753 H   0  0  0  0  0  0
   17.1530   24.3252   25.8960 H   0  0  0  0  0  0
   18.7432   19.5717   29.2366 H   0  0  0  0  0  0
   20.9072   21.9498   26.3884 H   0  0  0  0  0  0
   19.0432   23.5058   26.2502 H   0  0  0  0  0  0
   16.8500   21.1252   29.1020 H   0  0  0  0  0  0
   28.5795   19.9133   31.2982 H   0  0  0  0  0  0
   29.5176   16.3957   29.1097 H   0  0  0  0  0  0
   30.1728   18.2023   30.5906 H   0  0  0  0  0  0
   15.7705   22.7338   27.1058 H   0  0  0  0  0  0
   16.2320   23.5899   28.5763 H   0  0  0  0  0  0
   21.2112   22.0245   31.3221 H   0  0  0  0  0  0
   23.9840   19.0119   32.6855 H   0  0  0  0  0  0
   22.6137   18.6635   34.6726 H   0  0  0  0  0  0
   19.8473   21.6490   33.3294 H   0  0  0  0  0  0
   20.5494   19.9760   35.0069 H   0  0  0  0  0  0
  1  2  1  0  0  0
  1  3  1  0  0  0
  1 32  1  0  0  0
  2  6  1  0  0  0
  2 11  2  0  0  0
  3  4  1  0  0  0
  3 13  1  0  0  0
  3 33  1  0  0  0
  4  8  1  0  0  0
  4 12  2  0  0  0
  5  7  1  0  0  0
  5 10  2  0  0  0
  5 14  1  0  0  0
  6  9  1  0  0  0
  6 23  2  0  0  0
  7  9  2  0  0  0
  7 24  1  0  0  0
  8 15  1  0  0  0
  8 34  1  0  0  0
  9 35  1  0  0  0
 10 36  1  0  0  0
 13 27  2  0  0  0
 13 28  1  0  0  0
 14 37  1  0  0  0
 14 38  1  0  0  0
 15 16  1  0  0  0
 15 39  1  0  0  0
 15 40  1  0  0  0
 16 19  2  0  0  0
 16 20  1  0  0  0
 17 21  1  0  0  0
 17 26  1  0  0  0
 17 22  2  0  0  0
 18 26  1  0  0  0
 18 41  1  0  0  0
 18 42  1  0  0  0
 19 22  1  0  0  0
 19 43  1  0  0  0
 20 21  2  0  0  0
 20 44  1  0  0  0
 21 45  1  0  0  0
 22 46  1  0  0  0
 23 25  1  0  0  0
 23 47  1  0  0  0
 24 25  2  0  0  0
 24 48  1  0  0  0
 25 49  1  0  0  0
 26 50  1  0  0  0
 26 51  1  0  0  0
 27 30  1  0  0  0
 27 52  1  0  0  0
 28 29  2  0  0  0
 28 53  1  0  0  0
 29 31  1  0  0  0
 29 54  1  0  0  0
 30 31  2  0  0  0
 30 55  1  0  0  0
 31 56  1  0  0  0
M  END
> <s_m_entry_id>
39309

> <s_m_entry_name>
dock_pv.65

> <s_m_Source_Path>
/home/csk/Desktop/cluster/DUD-E-result/try1

> <s_m_Source_File>
dock_pv.maegz

> <i_m_Source_File_Index>
65

> <chembl_id>
CHEMBL348963

> <chembl_pref_name>
None

> <i_lp_mmshare_version>
53161

> <r_lp_tautomer_probability>
1

> <s_lp_Force_Field>
OPLS_2005

> <r_lp_Energy>
8.662793

> <b_lp_Chiralities_Consistent>
1

> <s_lp_Variant>
CHEMBL209_lig1010-1

> <s_i_glide_gridfile>
glide-grid_2ayw

> <i_i_glide_lignum>
1536

> <i_i_glide_rotatable_bonds>
10

> <r_i_docking_score>
-7.00947621073953

> <r_i_glide_ligand_efficiency>
-0.226112135830307

> <r_i_glide_ligand_efficiency_sa>
-0.710304287955164

> <r_i_glide_ligand_efficiency_ln>
-1.58085170016936

> <r_i_glide_gscore>
-7.00947621073953

> <r_i_glide_lipo>
-2.44461329247269

> <r_i_glide_hbond>
-0.848308262035086

> <r_i_glide_metal>
0

> <r_i_glide_rewards>
-1.09446802365198

> <r_i_glide_evdw>
-42.0886764526367

> <r_i_glide_ecoul>
-8.59458446502686

> <r_i_glide_erotb>
0.800733197992019

> <r_i_glide_esite>
-0.0291983381859288

> <r_i_glide_emodel>
-65.7543623629388

> <r_i_glide_energy>
-50.6832609176636

> <r_i_glide_einternal>
4.14023590087891

> <i_i_glide_confnum>
24

> <i_i_glide_posenum>
350

> <r_i_glide_eff_state_penalty>
0

> <s_user_duplicate_titles>
CHEMBL209_lig1010

> <i_f3d_flags>
0

> <s_m_subgroup_title>
dock_pv

> <s_m_subgroupid>
dock_pv

> <b_m_subgroup_collapsed>
1

$$$$
CHEMBL209_lig983
                    3D
 Schrodinger Suite 2021-1.
 53 55  0  0  1  0            999 V2000
   27.3780   20.8500   32.5327 C   0  0  2  0  0  0
   25.7165   21.3753   34.0973 N   0  0  0  0  0  0
   27.1294   20.1056   31.1827 C   0  0  0  0  0  0
   26.2244   21.6422   32.8069 O   0  0  0  0  0  0
   26.3655   20.4501   34.6673 C   0  0  0  0  0  0
   28.5004   21.9291   32.4391 C   0  0  0  0  0  0
   27.4451   19.9162   33.7651 C   0  0  0  0  0  0
   27.7079   17.5659   38.5747 C   0  0  0  0  0  0
   29.7787   15.2657   28.2928 C   0  0  0  0  0  0
   27.8668   19.0003   30.9178 N   0  0  0  0  0  0
   26.0991   19.9240   36.0244 C   0  0  0  0  0  0
   29.9524   21.4453   32.4989 C   0  0  0  0  0  0
   26.7530   18.5332   37.9522 C   0  0  0  0  0  0
   26.9966   19.0529   36.6625 C   0  0  0  0  0  0
   28.6661   16.2066   28.5932 C   0  0  0  0  0  0
   29.5530   14.1333   27.7913 N   0  0  0  0  0  0
   28.8313   17.3364   38.0514 N   0  0  0  0  0  0
   26.2897   20.5573   30.4007 O   0  0  0  0  0  0
   27.6947   18.0727   29.8655 C   0  0  0  0  0  0
   28.7789   17.2482   29.5400 C   0  0  0  0  0  0
   30.2734   20.2959   32.1977 O   0  0  0  0  0  0
   27.2513   16.9562   39.7199 N   0  0  0  0  0  0
   31.0319   15.7330   28.5909 N   0  0  0  0  0  0
   30.7834   22.4019   32.9524 O   0  0  0  0  0  0
   24.9290   20.2913   36.7026 C   0  0  0  0  0  0
   25.5633   18.9349   38.5915 C   0  0  0  0  0  0
   27.4278   16.0527   27.9470 C   0  0  0  0  0  0
   24.6628   19.7990   37.9757 C   0  0  0  0  0  0
   26.3528   16.8864   28.2322 C   0  0  0  0  0  0
   26.4760   17.8803   29.1967 C   0  0  0  0  0  0
   32.1656   22.1334   33.1408 C   0  0  0  0  0  0
   28.3807   22.5055   31.5212 H   0  0  0  0  0  0
   28.3673   22.6404   33.2553 H   0  0  0  0  0  0
   27.2474   18.8679   33.5335 H   0  0  0  0  0  0
   28.4139   19.9757   34.2598 H   0  0  0  0  0  0
   28.6638   18.8363   31.5187 H   0  0  0  0  0  0
   27.8980   18.7544   36.1453 H   0  0  0  0  0  0
   30.4215   13.6432   27.6068 H   0  0  0  0  0  0
   29.3605   16.6509   38.5708 H   0  0  0  0  0  0
   29.7080   17.3857   30.0763 H   0  0  0  0  0  0
   27.8163   16.2551   40.1725 H   0  0  0  0  0  0
   26.2882   17.0525   40.0061 H   0  0  0  0  0  0
   31.8153   15.1864   28.2374 H   0  0  0  0  0  0
   31.1853   16.7242   28.7451 H   0  0  0  0  0  0
   24.2091   20.9573   36.2477 H   0  0  0  0  0  0
   25.3047   18.5771   39.5776 H   0  0  0  0  0  0
   27.2851   15.2773   27.2068 H   0  0  0  0  0  0
   23.7530   20.0812   38.4871 H   0  0  0  0  0  0
   25.4135   16.7412   27.7208 H   0  0  0  0  0  0
   25.6020   18.4681   29.4309 H   0  0  0  0  0  0
   32.6458   22.9944   33.6070 H   0  0  0  0  0  0
   32.3190   21.2694   33.7920 H   0  0  0  0  0  0
   32.6630   21.9447   32.1894 H   0  0  0  0  0  0
  1  3  1  0  0  0
  1  4  1  0  0  0
  1  6  1  0  0  0
  1  7  1  0  0  0
  2  4  1  0  0  0
  2  5  2  0  0  0
  3 10  1  0  0  0
  3 18  2  0  0  0
  5  7  1  0  0  0
  5 11  1  0  0  0
  6 12  1  0  0  0
  6 32  1  0  0  0
  6 33  1  0  0  0
  7 34  1  0  0  0
  7 35  1  0  0  0
  8 13  1  0  0  0
  8 17  2  0  0  0
  8 22  1  0  0  0
  9 15  1  0  0  0
  9 16  2  0  0  0
  9 23  1  0  0  0
 10 19  1  0  0  0
 10 36  1  0  0  0
 11 14  2  0  0  0
 11 25  1  0  0  0
 12 21  2  0  0  0
 12 24  1  0  0  0
 13 14  1  0  0  0
 13 26  2  0  0  0
 14 37  1  0  0  0
 15 20  2  0  0  0
 15 27  1  0  0  0
 16 38  1  0  0  0
 17 39  1  0  0  0
 19 20  1  0  0  0
 19 30  2  0  0  0
 20 40  1  0  0  0
 22 41  1  0  0  0
 22 42  1  0  0  0
 23 43  1  0  0  0
 23 44  1  0  0  0
 24 31  1  0  0  0
 25 28  2  0  0  0
 25 45  1  0  0  0
 26 28  1  0  0  0
 26 46  1  0  0  0
 27 29  2  0  0  0
 27 47  1  0  0  0
 28 48  1  0  0  0
 29 30  1  0  0  0
 29 49  1  0  0  0
 30 50  1  0  0  0
 31 51  1  0  0  0
 31 52  1  0  0  0
 31 53  1  0  0  0
M  END
> <s_m_entry_id>
39310

> <s_m_entry_name>
dock_pv.66

> <s_m_Source_Path>
/home/csk/Desktop/cluster/DUD-E-result/try1

> <s_m_Source_File>
dock_pv.maegz

> <i_m_Source_File_Index>
66

> <chembl_id>
CHEMBL93445

> <chembl_pref_name>
None

> <i_lp_mmshare_version>
53161

> <r_lp_tautomer_probability>
1

> <s_lp_Force_Field>
OPLS_2005

> <r_lp_Energy>
16.620412

> <b_lp_Chiralities_Consistent>
1

> <s_lp_Variant>
CHEMBL209_lig983-1

> <s_i_glide_gridfile>
glide-grid_2ayw

> <i_i_glide_lignum>
1493

> <i_i_glide_rotatable_bonds>
9

> <r_i_docking_score>
-7.00872283970788

> <r_i_glide_ligand_efficiency>
-0.226087833538964

> <r_i_glide_ligand_efficiency_sa>
-0.710227945207416

> <r_i_glide_ligand_efficiency_ln>
-1.58068179191367

> <r_i_glide_gscore>
-7.00872283970788

> <r_i_glide_lipo>
-1.83693674476594

> <r_i_glide_hbond>
-1.22292261346695

> <r_i_glide_metal>
0

> <r_i_glide_rewards>
-0.60309599223965

> <r_i_glide_evdw>
-32.4996604919434

> <r_i_glide_ecoul>
-15.3761653900146

> <r_i_glide_erotb>
0.666071917167468

> <r_i_glide_esite>
-0.0804315733034409

> <r_i_glide_emodel>
-58.7996750708559

> <r_i_glide_energy>
-47.875825881958

> <r_i_glide_einternal>
18.0780086517334

> <i_i_glide_confnum>
19

> <i_i_glide_posenum>
137

> <r_i_glide_eff_state_penalty>
0

> <s_user_duplicate_titles>
CHEMBL209_lig983,155623

> <i_f3d_flags>
0

> <s_m_subgroup_title>
dock_pv

> <s_m_subgroupid>
dock_pv

> <b_m_subgroup_collapsed>
1

$$$$
CHEMBL209_lig692
                    3D
 Schrodinger Suite 2021-1.
 59 61  0  0  1  0            999 V2000
   21.5041   21.0438   27.9450 N   0  0  0  0  0  0
   22.6364   20.2420   27.9940 C   0  0  0  0  0  0
   22.6685   20.5348   30.4524 N   0  0  0  0  0  0
   23.1751   20.0335   29.3772 C   0  0  0  0  0  0
   20.9747   21.5870   29.1206 C   0  0  0  0  0  0
   21.2767   24.6232   20.2125 N   0  0  0  0  0  0
   21.5653   21.3330   30.3201 C   0  0  0  0  0  0
   20.9485   21.3075   26.5894 C   0  0  0  0  0  0
   21.1380   24.8387   21.5484 C   0  0  0  0  0  0
   24.2989   19.2163   29.4617 N   0  0  0  0  0  0
   21.5812   23.9199   22.5199 C   0  0  0  0  0  0
   21.5574   22.5736   25.9496 C   0  0  0  0  0  0
   21.8627   23.4730   19.8058 C   0  0  0  0  0  0
   23.1508   19.7333   26.9913 O   0  0  0  0  0  0
   21.0283   22.9340   24.7700 N   0  0  0  0  0  0
   21.3814   24.1459   24.0188 C   0  0  0  0  0  0
   24.8540   18.6293   30.6847 C   0  0  0  0  0  0
   22.4539   23.2116   26.5045 O   0  0  0  0  0  0
   22.2125   22.7560   22.0650 C   0  0  0  0  0  0
   27.0324   17.5856   29.6324 C   0  0  0  0  0  0
   26.4029   18.5201   30.6900 C   0  0  1  0  0  0
   21.9531   23.2498   18.4376 N   0  0  0  0  0  0
   22.3529   22.5243   20.6971 C   0  0  0  0  0  0
   19.7382   22.4696   29.0050 C   0  0  0  0  0  0
   20.4718   26.1553   21.9097 C   0  0  0  0  0  0
   28.4290   17.4730   29.5613 C   0  0  0  0  0  0
   26.2505   16.7977   28.7718 C   0  0  0  0  0  0
   27.0408   19.9301   30.7180 C   0  0  0  0  0  0
   29.0289   16.6147   28.6441 C   0  0  0  0  0  0
   26.8490   15.9403   27.8529 C   0  0  0  0  0  0
   28.2358   15.8523   27.7944 C   0  0  0  0  0  0
   21.1606   21.7509   31.2318 H   0  0  0  0  0  0
   21.1013   20.4557   25.9240 H   0  0  0  0  0  0
   19.8640   21.3947   26.6383 H   0  0  0  0  0  0
   24.6614   18.8338   28.5985 H   0  0  0  0  0  0
   20.2775   22.3721   24.3934 H   0  0  0  0  0  0
   20.5812   24.8628   24.1989 H   0  0  0  0  0  0
   22.2879   24.6189   24.4050 H   0  0  0  0  0  0
   24.4114   17.6408   30.8233 H   0  0  0  0  0  0
   24.5461   19.2054   31.5603 H   0  0  0  0  0  0
   22.5911   22.0329   22.7725 H   0  0  0  0  0  0
   26.6539   18.0530   31.6444 H   0  0  0  0  0  0
   22.3555   22.3906   18.0929 H   0  0  0  0  0  0
   21.5760   23.9473   17.8145 H   0  0  0  0  0  0
   22.8299   21.6225   20.3423 H   0  0  0  0  0  0
   19.4387   22.8658   29.9761 H   0  0  0  0  0  0
   19.9256   23.3223   28.3519 H   0  0  0  0  0  0
   18.8944   21.9018   28.6116 H   0  0  0  0  0  0
   21.1328   26.7535   22.5385 H   0  0  0  0  0  0
   20.2244   26.7488   21.0266 H   0  0  0  0  0  0
   19.5451   25.9745   22.4534 H   0  0  0  0  0  0
   29.0665   18.0356   30.2268 H   0  0  0  0  0  0
   25.1721   16.8183   28.8088 H   0  0  0  0  0  0
   28.1113   19.9012   30.9162 H   0  0  0  0  0  0
   26.8930   20.4530   29.7755 H   0  0  0  0  0  0
   26.5974   20.5454   31.5009 H   0  0  0  0  0  0
   30.1067   16.5336   28.5968 H   0  0  0  0  0  0
   26.2370   15.3450   27.1920 H   0  0  0  0  0  0
   28.7102   15.1921   27.0855 H   0  0  0  0  0  0
  1  2  1  0  0  0
  1  5  1  0  0  0
  1  8  1  0  0  0
  2  4  1  0  0  0
  2 14  2  0  0  0
  3  7  1  0  0  0
  3  4  2  0  0  0
  4 10  1  0  0  0
  5  7  2  0  0  0
  5 24  1  0  0  0
  6  9  1  0  0  0
  6 13  2  0  0  0
  7 32  1  0  0  0
  8 12  1  0  0  0
  8 33  1  0  0  0
  8 34  1  0  0  0
  9 11  2  0  0  0
  9 25  1  0  0  0
 10 17  1  0  0  0
 10 35  1  0  0  0
 11 16  1  0  0  0
 11 19  1  0  0  0
 12 15  1  0  0  0
 12 18  2  0  0  0
 13 23  1  0  0  0
 13 22  1  0  0  0
 15 16  1  0  0  0
 15 36  1  0  0  0
 16 37  1  0  0  0
 16 38  1  0  0  0
 17 21  1  0  0  0
 17 39  1  0  0  0
 17 40  1  0  0  0
 19 23  2  0  0  0
 19 41  1  0  0  0
 20 21  1  0  0  0
 20 26  2  0  0  0
 20 27  1  0  0  0
 21 28  1  0  0  0
 21 42  1  0  0  0
 22 43  1  0  0  0
 22 44  1  0  0  0
 23 45  1  0  0  0
 24 46  1  0  0  0
 24 47  1  0  0  0
 24 48  1  0  0  0
 25 49  1  0  0  0
 25 50  1  0  0  0
 25 51  1  0  0  0
 26 29  1  0  0  0
 26 52  1  0  0  0
 27 30  2  0  0  0
 27 53  1  0  0  0
 28 54  1  0  0  0
 28 55  1  0  0  0
 28 56  1  0  0  0
 29 31  2  0  0  0
 29 57  1  0  0  0
 30 31  1  0  0  0
 30 58  1  0  0  0
 31 59  1  0  0  0
M  END
> <s_m_entry_id>
39311

> <s_m_entry_name>
dock_pv.67

> <s_m_Source_Path>
/home/csk/Desktop/cluster/DUD-E-result/try1

> <s_m_Source_File>
dock_pv.maegz

> <i_m_Source_File_Index>
67

> <chembl_id>
CHEMBL142566

> <chembl_pref_name>
None

> <i_lp_mmshare_version>
53161

> <r_lp_tautomer_probability>
0.999999772200052

> <s_lp_Force_Field>
OPLS_2005

> <r_lp_Energy>
25.926663

> <b_lp_Chiralities_Consistent>
1

> <s_lp_Variant>
CHEMBL209_lig692-1

> <s_i_glide_gridfile>
glide-grid_2ayw

> <i_i_glide_lignum>
1091

> <i_i_glide_rotatable_bonds>
9

> <r_i_docking_score>
-7.00260837696181

> <r_i_glide_ligand_efficiency>
-0.22589059280522

> <r_i_glide_ligand_efficiency_sa>
-0.709608336983277

> <r_i_glide_ligand_efficiency_ln>
-1.57930279317866

> <r_i_glide_gscore>
-7.00260837696181

> <r_i_glide_lipo>
-3.5112565699714

> <r_i_glide_hbond>
-0.32765924451376

> <r_i_glide_metal>
0

> <r_i_glide_rewards>
-0.826197097382357

> <r_i_glide_evdw>
-47.394947052002

> <r_i_glide_ecoul>
-5.75484848022461

> <r_i_glide_erotb>
0.895479159539502

> <r_i_glide_esite>
0

> <r_i_glide_emodel>
-70.6212483536922

> <r_i_glide_energy>
-53.1497955322266

> <r_i_glide_einternal>
5.44740962982178

> <i_i_glide_confnum>
19

> <i_i_glide_posenum>
369

> <r_i_glide_eff_state_penalty>
0

> <s_user_duplicate_titles>
CHEMBL209_lig692

> <i_f3d_flags>
0

> <s_m_subgroup_title>
dock_pv

> <s_m_subgroupid>
dock_pv

> <b_m_subgroup_collapsed>
1

$$$$
CHEMBL209_lig333
                    3D
 Schrodinger Suite 2021-1.
 60 62  0  0  1  0            999 V2000
   24.2634   19.7694   31.7544 N   0  0  0  0  0  0
   18.2771   22.3388   28.5503 N   0  0  0  0  0  0
   26.4360   20.3454   32.5690 C   0  0  0  0  0  0
   25.3981   20.5413   31.5481 C   0  0  0  0  0  0
   28.8315   20.4677   31.0551 S   0  0  0  0  0  0
   19.2092   21.4185   29.2382 C   0  0  2  0  0  0
   17.2213   23.0644   29.2007 C   0  0  0  0  0  0
   24.9317   19.0151   33.8693 N   0  0  0  0  0  0
   24.0423   19.0786   32.9418 C   0  0  0  0  0  0
   27.7229   20.9173   32.3776 N   0  0  0  0  0  0
   26.1331   19.6191   33.6699 C   0  0  0  0  0  0
   22.3917   20.7614   30.3034 C   0  0  0  0  0  0
   20.6590   21.5252   28.6515 C   0  0  1  0  0  0
   23.3564   19.5927   30.5796 C   0  0  0  0  0  0
   21.6352   20.5849   29.2098 N   0  0  0  0  0  0
   28.2724   20.9336   29.7905 O   0  0  0  0  0  0
   30.1548   20.9253   31.4931 O   0  0  0  0  0  0
   16.3360   23.7337   28.6027 N   0  0  0  0  0  0
   25.5479   21.2989   30.5858 O   0  0  0  0  0  0
   28.8714   18.5796   30.9930 C   0  0  0  0  0  0
   22.3330   21.7574   31.0236 O   0  0  0  0  0  0
   17.2083   23.0109   30.6089 N   0  0  0  0  0  0
   18.2241   22.0860   27.1013 C   0  0  0  0  0  0
   18.7544   20.0763   29.2759 O   0  0  0  0  0  0
   27.9710   17.9231   29.9567 C   0  0  0  0  0  0
   22.7381   18.3401   33.1840 C   0  0  0  0  0  0
   20.6626   21.4401   27.1073 C   0  0  0  0  0  0
   19.5990   22.3461   26.4754 C   0  0  0  0  0  0
   28.5108   17.4317   28.7667 C   0  0  0  0  0  0
   26.6203   17.7330   30.2330 C   0  0  0  0  0  0
   25.8038   17.0561   29.3333 C   0  0  0  0  0  0
   27.7058   16.7167   27.8840 C   0  0  0  0  0  0
   26.3528   16.5438   28.1608 C   0  0  0  0  0  0
   19.3103   21.7104   30.2830 H   0  0  0  0  0  0
   28.2370   21.0151   33.2568 H   0  0  0  0  0  0
   26.8737   19.4721   34.4427 H   0  0  0  0  0  0
   21.0073   22.5373   28.8803 H   0  0  0  0  0  0
   22.7876   18.6655   30.6463 H   0  0  0  0  0  0
   23.9604   19.4521   29.6795 H   0  0  0  0  0  0
   21.5808   19.6517   28.8327 H   0  0  0  0  0  0
   15.7204   24.1741   29.2679 H   0  0  0  0  0  0
   29.9104   18.3070   30.8026 H   0  0  0  0  0  0
   28.6168   18.2403   31.9896 H   0  0  0  0  0  0
   16.4847   23.4538   31.1529 H   0  0  0  0  0  0
   17.8423   22.4335   31.1358 H   0  0  0  0  0  0
   17.9539   21.0381   26.9612 H   0  0  0  0  0  0
   17.4648   22.6846   26.5929 H   0  0  0  0  0  0
   18.1185   19.9685   29.9926 H   0  0  0  0  0  0
   22.6315   18.0287   34.2240 H   0  0  0  0  0  0
   21.8800   18.9683   32.9554 H   0  0  0  0  0  0
   22.6848   17.4398   32.5745 H   0  0  0  0  0  0
   20.4487   20.4134   26.7998 H   0  0  0  0  0  0
   21.6447   21.6987   26.7112 H   0  0  0  0  0  0
   19.5586   22.1613   25.4005 H   0  0  0  0  0  0
   19.8645   23.3988   26.5842 H   0  0  0  0  0  0
   29.5589   17.5616   28.5478 H   0  0  0  0  0  0
   26.2112   18.0318   31.1819 H   0  0  0  0  0  0
   24.7616   16.8865   29.5670 H   0  0  0  0  0  0
   28.1304   16.2871   26.9917 H   0  0  0  0  0  0
   25.7265   15.9951   27.4694 H   0  0  0  0  0  0
  1  4  1  0  0  0
  1  9  1  0  0  0
  1 14  1  0  0  0
  2  6  1  0  0  0
  2  7  1  0  0  0
  2 23  1  0  0  0
  3  4  1  0  0  0
  3 10  1  0  0  0
  3 11  2  0  0  0
  4 19  2  0  0  0
  5 10  1  0  0  0
  5 16  2  0  0  0
  5 17  2  0  0  0
  5 20  1  0  0  0
  6 13  1  0  0  0
  6 24  1  0  0  0
  6 34  1  0  0  0
  7 18  2  0  0  0
  7 22  1  0  0  0
  8  9  2  0  0  0
  8 11  1  0  0  0
  9 26  1  0  0  0
 10 35  1  0  0  0
 11 36  1  0  0  0
 12 14  1  0  0  0
 12 15  1  0  0  0
 12 21  2  0  0  0
 13 15  1  0  0  0
 13 27  1  0  0  0
 13 37  1  0  0  0
 14 38  1  0  0  0
 14 39  1  0  0  0
 15 40  1  0  0  0
 18 41  1  0  0  0
 20 25  1  0  0  0
 20 42  1  0  0  0
 20 43  1  0  0  0
 22 44  1  0  0  0
 22 45  1  0  0  0
 23 28  1  0  0  0
 23 46  1  0  0  0
 23 47  1  0  0  0
 24 48  1  0  0  0
 25 29  1  0  0  0
 25 30  2  0  0  0
 26 49  1  0  0  0
 26 50  1  0  0  0
 26 51  1  0  0  0
 27 28  1  0  0  0
 27 52  1  0  0  0
 27 53  1  0  0  0
 28 54  1  0  0  0
 28 55  1  0  0  0
 29 32  2  0  0  0
 29 56  1  0  0  0
 30 31  1  0  0  0
 30 57  1  0  0  0
 31 33  2  0  0  0
 31 58  1  0  0  0
 32 33  1  0  0  0
 32 59  1  0  0  0
 33 60  1  0  0  0
M  END
> <s_m_entry_id>
39312

> <s_m_entry_name>
dock_pv.68

> <s_m_Source_Path>
/home/csk/Desktop/cluster/DUD-E-result/try1

> <s_m_Source_File>
dock_pv.maegz

> <i_m_Source_File_Index>
68

> <chembl_id>
CHEMBL39475

> <chembl_pref_name>
None

> <i_lp_mmshare_version>
53161

> <r_lp_tautomer_probability>
1

> <s_lp_Force_Field>
OPLS_2005

> <r_lp_Energy>
25.821285

> <b_lp_Chiralities_Consistent>
1

> <s_lp_Variant>
CHEMBL209_lig333-1

> <s_i_glide_gridfile>
glide-grid_2ayw

> <i_i_glide_lignum>
634

> <i_i_glide_rotatable_bonds>
10

> <r_i_docking_score>
-7.00256982685712

> <r_i_glide_ligand_efficiency>
-0.212199085662337

> <r_i_glide_ligand_efficiency_sa>
-0.680635851262389

> <r_i_glide_ligand_efficiency_ln>
-1.55733527212691

> <r_i_glide_gscore>
-7.00256982685712

> <r_i_glide_lipo>
-1.78137591109782

> <r_i_glide_hbond>
-0.608

> <r_i_glide_metal>
0

> <r_i_glide_rewards>
-0.455578021307667

> <r_i_glide_evdw>
-35.8865547180176

> <r_i_glide_ecoul>
-19.8441314697266

> <r_i_glide_erotb>
0.621834993889809

> <r_i_glide_esite>
-0.00850343198158499

> <r_i_glide_emodel>
-72.9985812525508

> <r_i_glide_energy>
-55.7306861877441

> <r_i_glide_einternal>
8.78004455566406

> <i_i_glide_confnum>
22

> <i_i_glide_posenum>
118

> <r_i_glide_eff_state_penalty>
0

> <s_user_duplicate_titles>
CHEMBL209_lig333,57909

> <i_f3d_flags>
0

> <s_m_subgroup_title>
dock_pv

> <s_m_subgroupid>
dock_pv

> <b_m_subgroup_collapsed>
1

$$$$
CHEMBL209_lig1141
                    3D
 Schrodinger Suite 2021-1.
 50 51  0  0  1  0            999 V2000
   18.5810   21.3950   27.1769 C   0  0  0  0  0  0
   20.0959   21.4185   27.4747 C   0  0  2  0  0  0
   20.3225   21.4563   29.0147 C   0  0  0  0  0  0
   21.7747   21.3695   29.4485 C   0  0  0  0  0  0
   22.3374   20.1327   29.4585 O   0  0  0  0  0  0
   23.6162   20.2635   29.9010 C   0  0  0  0  0  0
   23.8784   21.5988   30.1712 C   0  0  0  0  0  0
   22.7074   22.2987   29.8778 C   0  0  0  0  0  0
   24.4261   19.0595   29.9879 C   0  0  0  0  0  0
   23.9532   17.9434   30.1954 O   0  0  0  0  0  0
   25.7433   19.3441   29.7791 O   0  0  0  0  0  0
   26.6508   18.3594   29.4290 C   0  0  0  0  0  0
   26.3503   17.3373   28.5195 C   0  0  0  0  0  0
   27.3039   16.3845   28.1898 C   0  0  0  0  0  0
   28.6047   16.4415   28.7171 C   0  0  0  0  0  0
   28.8976   17.4913   29.6077 C   0  0  0  0  0  0
   27.9353   18.4312   29.9638 C   0  0  0  0  0  0
   29.6040   15.4092   28.3331 C   0  0  0  0  0  0
   29.2427   14.3357   27.7921 N   0  0  0  0  0  0
   30.9104   15.7324   28.5902 N   0  0  0  0  0  0
   20.7897   22.5637   26.6987 C   0  0  0  0  0  0
   21.1468   23.5905   27.2789 O   0  0  0  0  0  0
   20.9775   22.3840   25.3802 N   0  0  0  0  0  0
   21.6127   23.3664   24.4903 C   0  0  1  0  0  0
   23.1503   23.3430   24.6658 C   0  0  0  0  0  0
   23.7729   24.3146   23.8473 O   0  0  0  0  0  0
   21.1930   23.1017   23.0317 C   0  0  0  0  0  0
   21.5498   22.1343   22.3930 O   0  0  0  0  0  0
   20.3532   24.0792   22.5856 O   0  0  0  0  0  0
   18.3672   21.3328   26.1121 H   0  0  0  0  0  0
   18.1015   20.5348   27.6448 H   0  0  0  0  0  0
   18.0831   22.2915   27.5521 H   0  0  0  0  0  0
   20.5165   20.4814   27.1085 H   0  0  0  0  0  0
   19.8813   22.3662   29.4198 H   0  0  0  0  0  0
   19.7692   20.6375   29.4792 H   0  0  0  0  0  0
   24.8015   22.0101   30.5563 H   0  0  0  0  0  0
   22.5475   23.3628   29.9715 H   0  0  0  0  0  0
   25.3711   17.2705   28.0652 H   0  0  0  0  0  0
   27.0194   15.6068   27.4947 H   0  0  0  0  0  0
   29.8770   17.5801   30.0551 H   0  0  0  0  0  0
   28.1953   19.2240   30.6490 H   0  0  0  0  0  0
   30.0506   13.7680   27.5691 H   0  0  0  0  0  0
   31.6349   15.1484   28.1766 H   0  0  0  0  0  0
   31.1560   16.6981   28.7744 H   0  0  0  0  0  0
   20.6349   21.5390   24.9376 H   0  0  0  0  0  0
   21.2562   24.3592   24.7768 H   0  0  0  0  0  0
   23.4252   23.5501   25.7012 H   0  0  0  0  0  0
   23.5514   22.3618   24.4129 H   0  0  0  0  0  0
   24.7277   24.2032   23.8851 H   0  0  0  0  0  0
   20.0543   23.8629   21.6958 H   0  0  0  0  0  0
  1  2  1  0  0  0
  1 30  1  0  0  0
  1 31  1  0  0  0
  1 32  1  0  0  0
  2  3  1  0  0  0
  2 21  1  0  0  0
  2 33  1  0  0  0
  3  4  1  0  0  0
  3 34  1  0  0  0
  3 35  1  0  0  0
  4  5  1  0  0  0
  4  8  2  0  0  0
  5  6  1  0  0  0
  6  7  2  0  0  0
  6  9  1  0  0  0
  7  8  1  0  0  0
  7 36  1  0  0  0
  8 37  1  0  0  0
  9 10  2  0  0  0
  9 11  1  0  0  0
 11 12  1  0  0  0
 12 13  2  0  0  0
 12 17  1  0  0  0
 13 14  1  0  0  0
 13 38  1  0  0  0
 14 15  2  0  0  0
 14 39  1  0  0  0
 15 16  1  0  0  0
 15 18  1  0  0  0
 16 17  2  0  0  0
 16 40  1  0  0  0
 17 41  1  0  0  0
 18 19  2  0  0  0
 18 20  1  0  0  0
 19 42  1  0  0  0
 20 43  1  0  0  0
 20 44  1  0  0  0
 21 22  2  0  0  0
 21 23  1  0  0  0
 23 24  1  0  0  0
 23 45  1  0  0  0
 24 25  1  0  0  0
 24 27  1  0  0  0
 24 46  1  0  0  0
 25 26  1  0  0  0
 25 47  1  0  0  0
 25 48  1  0  0  0
 26 49  1  0  0  0
 27 28  2  0  0  0
 27 29  1  0  0  0
 29 50  1  0  0  0
M  END
> <s_m_entry_id>
39313

> <s_m_entry_name>
dock_pv.69

> <s_m_Source_Path>
/home/csk/Desktop/cluster/DUD-E-result/try1

> <s_m_Source_File>
dock_pv.maegz

> <i_m_Source_File_Index>
69

> <chembl_id>
CHEMBL3642860

> <chembl_pref_name>
None

> <i_lp_mmshare_version>
53161

> <r_lp_tautomer_probability>
1

> <s_lp_Force_Field>
OPLS_2005

> <r_lp_Energy>
9.760816

> <b_lp_Chiralities_Consistent>
1

> <s_lp_Variant>
CHEMBL209_lig1141-1

> <s_i_glide_gridfile>
glide-grid_2ayw

> <i_i_glide_lignum>
1701

> <i_i_glide_rotatable_bonds>
13

> <r_i_docking_score>
-6.97176578220324

> <r_i_glide_ligand_efficiency>
-0.240405716627698

> <r_i_glide_ligand_efficiency_sa>
-0.738602527357309

> <r_i_glide_ligand_efficiency_ln>
-1.59635757539805

> <r_i_glide_gscore>
-6.97176578220324

> <r_i_glide_lipo>
-2.1431577345484

> <r_i_glide_hbond>
-1.21522367723768

> <r_i_glide_metal>
0

> <r_i_glide_rewards>
-0.946929355681487

> <r_i_glide_evdw>
-38.9254417419434

> <r_i_glide_ecoul>
-12.3506546020508

> <r_i_glide_erotb>
1.20654700620238

> <r_i_glide_esite>
-0.0741317435332665

> <r_i_glide_emodel>
-67.1268642076175

> <r_i_glide_energy>
-51.2760963439941

> <r_i_glide_einternal>
8.65433788299561

> <i_i_glide_confnum>
94

> <i_i_glide_posenum>
317

> <r_i_glide_eff_state_penalty>
0

> <s_user_duplicate_titles>
CHEMBL209_lig1141

> <i_f3d_flags>
0

> <s_m_subgroup_title>
dock_pv

> <s_m_subgroupid>
dock_pv

> <b_m_subgroup_collapsed>
1

$$$$
CHEMBL209_lig1167
                    3D
 Schrodinger Suite 2021-1.
 45 46  0  0  1  0            999 V2000
   17.9107   21.1846   29.0669 C   0  0  0  0  0  0
   18.6823   20.8022   27.7903 C   0  0  0  0  0  0
   19.7557   21.8270   27.3470 C   0  0  0  0  0  0
   21.2041   21.5899   27.8777 C   0  0  1  0  0  0
   21.2131   21.4982   29.4359 C   0  0  0  0  0  0
   22.5311   21.8018   30.1174 C   0  0  0  0  0  0
   23.4870   20.8371   30.0883 O   0  0  0  0  0  0
   24.5823   21.3204   30.7346 C   0  0  0  0  0  0
   24.3054   22.5864   31.2299 C   0  0  0  0  0  0
   23.0036   22.8913   30.8328 C   0  0  0  0  0  0
   25.8084   20.5328   30.7546 C   0  0  0  0  0  0
   26.8711   21.0021   31.1650 O   0  0  0  0  0  0
   25.6018   19.2906   30.2239 O   0  0  0  0  0  0
   26.6052   18.4279   29.8177 C   0  0  0  0  0  0
   27.9279   18.4216   30.2873 C   0  0  0  0  0  0
   28.8495   17.5061   29.7903 C   0  0  0  0  0  0
   28.4758   16.5337   28.8496 C   0  0  0  0  0  0
   27.1426   16.5422   28.4020 C   0  0  0  0  0  0
   26.2290   17.4780   28.8709 C   0  0  0  0  0  0
   29.4233   15.4966   28.3628 C   0  0  0  0  0  0
   28.9961   14.4698   27.7910 N   0  0  0  0  0  0
   30.7534   15.7330   28.5909 N   0  0  0  0  0  0
   21.9778   20.4387   27.1741 C   0  0  0  0  0  0
   23.1489   20.1726   27.4269 O   0  0  0  0  0  0
   21.2708   19.7879   26.2041 O   0  0  0  0  0  0
   17.0508   20.5331   29.2134 H   0  0  0  0  0  0
   17.5327   22.2060   29.0170 H   0  0  0  0  0  0
   18.5230   21.0949   29.9634 H   0  0  0  0  0  0
   19.1194   19.8085   27.9071 H   0  0  0  0  0  0
   17.9531   20.7070   26.9910 H   0  0  0  0  0  0
   19.7718   21.8851   26.2563 H   0  0  0  0  0  0
   19.4334   22.8266   27.6439 H   0  0  0  0  0  0
   21.7563   22.4927   27.6092 H   0  0  0  0  0  0
   20.5029   22.2300   29.8218 H   0  0  0  0  0  0
   20.8375   20.5304   29.7649 H   0  0  0  0  0  0
   24.9779   23.2200   31.7912 H   0  0  0  0  0  0
   22.4636   23.8043   31.0364 H   0  0  0  0  0  0
   28.2700   19.1061   31.0464 H   0  0  0  0  0  0
   29.8536   17.5384   30.1894 H   0  0  0  0  0  0
   26.7964   15.8162   27.6790 H   0  0  0  0  0  0
   25.2125   17.4558   28.5013 H   0  0  0  0  0  0
   29.7776   13.8804   27.5354 H   0  0  0  0  0  0
   31.4312   15.1129   28.1562 H   0  0  0  0  0  0
   31.0706   16.6732   28.8056 H   0  0  0  0  0  0
   20.3849   20.1322   26.0550 H   0  0  0  0  0  0
  1  2  1  0  0  0
  1 26  1  0  0  0
  1 27  1  0  0  0
  1 28  1  0  0  0
  2  3  1  0  0  0
  2 29  1  0  0  0
  2 30  1  0  0  0
  3  4  1  0  0  0
  3 31  1  0  0  0
  3 32  1  0  0  0
  4  5  1  0  0  0
  4 23  1  0  0  0
  4 33  1  0  0  0
  5  6  1  0  0  0
  5 34  1  0  0  0
  5 35  1  0  0  0
  6  7  1  0  0  0
  6 10  2  0  0  0
  7  8  1  0  0  0
  8  9  2  0  0  0
  8 11  1  0  0  0
  9 10  1  0  0  0
  9 36  1  0  0  0
 10 37  1  0  0  0
 11 12  2  0  0  0
 11 13  1  0  0  0
 13 14  1  0  0  0
 14 15  2  0  0  0
 14 19  1  0  0  0
 15 16  1  0  0  0
 15 38  1  0  0  0
 16 17  2  0  0  0
 16 39  1  0  0  0
 17 18  1  0  0  0
 17 20  1  0  0  0
 18 19  2  0  0  0
 18 40  1  0  0  0
 19 41  1  0  0  0
 20 21  2  0  0  0
 20 22  1  0  0  0
 21 42  1  0  0  0
 22 43  1  0  0  0
 22 44  1  0  0  0
 23 24  2  0  0  0
 23 25  1  0  0  0
 25 45  1  0  0  0
M  END
> <s_m_entry_id>
39314

> <s_m_entry_name>
dock_pv.70

> <s_m_Source_Path>
/home/csk/Desktop/cluster/DUD-E-result/try1

> <s_m_Source_File>
dock_pv.maegz

> <i_m_Source_File_Index>
70

> <chembl_id>
CHEMBL3642885

> <chembl_pref_name>
None

> <i_lp_mmshare_version>
53161

> <r_lp_tautomer_probability>
1

> <s_lp_Force_Field>
OPLS_2005

> <r_lp_Energy>
8.499657

> <b_lp_Chiralities_Consistent>
1

> <s_lp_Variant>
CHEMBL209_lig1167-2

> <s_i_glide_gridfile>
glide-grid_2ayw

> <i_i_glide_lignum>
1747

> <i_i_glide_rotatable_bonds>
10

> <r_i_docking_score>
-6.9696595426317

> <r_i_glide_ligand_efficiency>
-0.278786381705268

> <r_i_glide_ligand_efficiency_sa>
-0.815176324403736

> <r_i_glide_ligand_efficiency_ln>
-1.65201817544593

> <r_i_glide_gscore>
-6.9696595426317

> <r_i_glide_lipo>
-1.96895654341068

> <r_i_glide_hbond>
-0.684870601325829

> <r_i_glide_metal>
0

> <r_i_glide_rewards>
-1.52756192686295

> <r_i_glide_evdw>
-33.3793716430664

> <r_i_glide_ecoul>
-14.3828029632568

> <r_i_glide_erotb>
1.12075952327258

> <r_i_glide_esite>
-0.082640967662975

> <r_i_glide_emodel>
-62.9971096432313

> <r_i_glide_energy>
-47.7621746063232

> <r_i_glide_einternal>
10.5238370895386

> <i_i_glide_confnum>
18

> <i_i_glide_posenum>
213

> <r_i_glide_eff_state_penalty>
0

> <s_user_duplicate_titles>
CHEMBL209_lig1167

> <i_f3d_flags>
0

> <s_m_subgroup_title>
dock_pv

> <s_m_subgroupid>
dock_pv

> <b_m_subgroup_collapsed>
1

$$$$
CHEMBL209_lig852
                    3D
 Schrodinger Suite 2021-1.
 48 51  0  0  1  0            999 V2000
   27.5710   18.2769   29.7039 C   0  0  0  0  0  0
   27.7846   19.5584   30.3146 C   0  0  0  0  0  0
   24.2389   20.7422   31.0201 C   0  0  0  0  0  0
   25.3773   19.8590   30.5823 C   0  0  0  0  0  0
   26.6840   20.3235   30.7039 C   0  0  0  0  0  0
   28.6179   17.4430   29.2160 C   0  0  0  0  0  0
   26.2283   17.8014   29.5752 C   0  0  0  0  0  0
   29.4894   15.2972   28.1911 C   0  0  0  0  0  0
   28.3836   16.1839   28.6476 C   0  0  0  0  0  0
   23.2581   20.1143   31.7005 N   0  0  0  0  0  0
   25.1503   18.5952   30.0332 C   0  0  0  0  0  0
   29.2550   14.1331   27.8080 N   0  0  0  0  0  0
   24.2843   21.9539   30.7943 O   0  0  0  0  0  0
   25.9927   16.5389   28.9907 C   0  0  0  0  0  0
   29.1871   20.1428   30.5440 C   0  0  2  0  0  0
   27.0495   15.7609   28.5418 C   0  0  0  0  0  0
   30.3553   21.7010   31.8391 O   0  0  0  0  0  0
   30.7527   15.8223   28.1935 N   0  0  0  0  0  0
   22.1164   20.6841   32.2864 C   0  0  0  0  0  0
   29.4644   20.6034   31.9850 C   0  0  0  0  0  0
   29.9822   22.4148   30.6686 C   0  0  0  0  0  0
   29.5528   21.3384   29.6723 C   0  0  0  0  0  0
   21.6027   20.0394   33.4135 C   0  0  0  0  0  0
   21.4694   21.8188   31.7730 C   0  0  0  0  0  0
   20.3242   22.3044   32.3970 C   0  0  0  0  0  0
   20.4625   20.5337   34.0412 C   0  0  0  0  0  0
   19.8277   21.6620   33.5297 C   0  0  0  0  0  0
   26.8561   21.3039   31.1281 H   0  0  0  0  0  0
   29.6321   17.7822   29.2899 H   0  0  0  0  0  0
   23.3971   19.1333   31.8890 H   0  0  0  0  0  0
   24.1440   18.2126   29.9235 H   0  0  0  0  0  0
   30.1115   13.6760   27.5162 H   0  0  0  0  0  0
   24.9824   16.1623   28.9200 H   0  0  0  0  0  0
   29.9536   19.3859   30.4231 H   0  0  0  0  0  0
   26.8124   14.7954   28.1166 H   0  0  0  0  0  0
   31.5092   15.2702   27.7951 H   0  0  0  0  0  0
   30.9585   16.7634   28.5059 H   0  0  0  0  0  0
   29.9307   19.8297   32.5966 H   0  0  0  0  0  0
   28.5853   20.9398   32.5359 H   0  0  0  0  0  0
   29.1813   23.1152   30.9131 H   0  0  0  0  0  0
   30.8134   23.0214   30.3082 H   0  0  0  0  0  0
   28.7299   21.7261   29.0810 H   0  0  0  0  0  0
   30.3916   21.1084   29.0178 H   0  0  0  0  0  0
   22.0828   19.1559   33.8121 H   0  0  0  0  0  0
   21.8331   22.3197   30.8884 H   0  0  0  0  0  0
   19.8195   23.1751   32.0028 H   0  0  0  0  0  0
   20.0685   20.0384   34.9164 H   0  0  0  0  0  0
   18.9385   22.0403   34.0122 H   0  0  0  0  0  0
  1  2  2  0  0  0
  1  6  1  0  0  0
  1  7  1  0  0  0
  2  5  1  0  0  0
  2 15  1  0  0  0
  3  4  1  0  0  0
  3 10  1  0  0  0
  3 13  2  0  0  0
  4 11  1  0  0  0
  4  5  2  0  0  0
  5 28  1  0  0  0
  6  9  2  0  0  0
  6 29  1  0  0  0
  7 11  2  0  0  0
  7 14  1  0  0  0
  8  9  1  0  0  0
  8 12  2  0  0  0
  8 18  1  0  0  0
  9 16  1  0  0  0
 10 19  1  0  0  0
 10 30  1  0  0  0
 11 31  1  0  0  0
 12 32  1  0  0  0
 14 16  2  0  0  0
 14 33  1  0  0  0
 15 20  1  0  0  0
 15 22  1  0  0  0
 15 34  1  0  0  0
 16 35  1  0  0  0
 17 20  1  0  0  0
 17 21  1  0  0  0
 18 36  1  0  0  0
 18 37  1  0  0  0
 19 23  2  0  0  0
 19 24  1  0  0  0
 20 38  1  0  0  0
 20 39  1  0  0  0
 21 22  1  0  0  0
 21 40  1  0  0  0
 21 41  1  0  0  0
 22 42  1  0  0  0
 22 43  1  0  0  0
 23 26  1  0  0  0
 23 44  1  0  0  0
 24 25  2  0  0  0
 24 45  1  0  0  0
 25 27  1  0  0  0
 25 46  1  0  0  0
 26 27  2  0  0  0
 26 47  1  0  0  0
 27 48  1  0  0  0
M  END
> <s_m_entry_id>
39315

> <s_m_entry_name>
dock_pv.71

> <s_m_Source_Path>
/home/csk/Desktop/cluster/DUD-E-result/try1

> <s_m_Source_File>
dock_pv.maegz

> <i_m_Source_File_Index>
71

> <chembl_id>
CHEMBL105395

> <chembl_pref_name>
None

> <i_lp_mmshare_version>
53161

> <r_lp_tautomer_probability>
1

> <s_lp_Force_Field>
OPLS_2005

> <r_lp_Energy>
33.982923

> <b_lp_Chiralities_Consistent>
1

> <s_lp_Variant>
CHEMBL209_lig852-1

> <s_i_glide_gridfile>
glide-grid_2ayw

> <i_i_glide_lignum>
1292

> <i_i_glide_rotatable_bonds>
5

> <r_i_docking_score>
-6.96764385115855

> <r_i_glide_ligand_efficiency>
-0.258060883376242

> <r_i_glide_ligand_efficiency_sa>
-0.774182649278201

> <r_i_glide_ligand_efficiency_ln>
-1.6219526179632

> <r_i_glide_gscore>
-6.96764385115855

> <r_i_glide_lipo>
-2.27556831282701

> <r_i_glide_hbond>
-0.65078514245209

> <r_i_glide_metal>
0

> <r_i_glide_rewards>
-1.07446231568896

> <r_i_glide_evdw>
-32.4181709289551

> <r_i_glide_ecoul>
-12.385890007019

> <r_i_glide_erotb>
0.593487667115264

> <r_i_glide_esite>
-0.081523699805131

> <r_i_glide_emodel>
-62.5429651404791

> <r_i_glide_energy>
-44.8040609359741

> <r_i_glide_einternal>
3.22160315513611

> <i_i_glide_confnum>
44

> <i_i_glide_posenum>
360

> <r_i_glide_eff_state_penalty>
0

> <s_user_duplicate_titles>
CHEMBL209_lig852

> <i_f3d_flags>
0

> <s_m_subgroup_title>
dock_pv

> <s_m_subgroupid>
dock_pv

> <b_m_subgroup_collapsed>
1

$$$$
CHEMBL209_lig805
                    3D
 Schrodinger Suite 2021-1.
 51 54  0  0  1  0            999 V2000
   25.6492   18.9799   30.6138 N   0  0  0  0  0  0
   25.8302   20.2593   31.1430 C   0  0  0  0  0  0
   24.3528   18.5864   30.8824 C   0  0  0  0  0  0
   23.6686   19.5816   31.5411 C   0  0  0  0  0  0
   29.4374   15.4748   28.1994 C   0  0  0  0  0  0
   31.3101   24.0244   26.2980 C   0  0  0  0  0  0
   24.5872   20.6575   31.7275 C   0  0  0  0  0  0
   26.9489   21.1095   31.1587 C   0  0  0  0  0  0
   26.6104   18.1610   29.9766 C   0  0  0  0  0  0
   28.4955   16.4744   28.7480 C   0  0  0  0  0  0
   30.7530   23.7127   27.6523 C   0  0  0  0  0  0
   29.0222   14.3683   27.7910 N   0  0  0  0  0  0
   31.5820   25.2071   25.9592 N   0  0  0  0  0  0
   27.8980   23.2559   31.8954 N   0  0  0  0  0  0
   27.9378   18.1558   30.4115 C   0  0  0  0  0  0
   26.2364   17.3670   28.8884 C   0  0  0  0  0  0
   26.8275   22.3512   31.7935 C   0  0  0  0  0  0
   28.8696   17.3333   29.7915 C   0  0  0  0  0  0
   27.1697   16.5289   28.2874 C   0  0  0  0  0  0
   24.4917   21.9186   32.3301 C   0  0  0  0  0  0
   30.4444   22.4009   28.0596 C   0  0  0  0  0  0
   30.5180   24.7419   28.5836 C   0  0  0  0  0  0
   31.5131   22.9344   25.4848 N   0  0  0  0  0  0
   30.7530   15.8451   28.1971 N   0  0  0  0  0  0
   29.2886   22.8630   31.6654 C   0  0  0  0  0  0
   29.7472   23.1611   30.2422 C   0  0  0  0  0  0
   25.6145   22.7432   32.3566 C   0  0  0  0  0  0
   30.0241   24.4734   29.8588 C   0  0  0  0  0  0
   29.9530   22.1264   29.3330 C   0  0  0  0  0  0
   24.0171   17.5986   30.5916 H   0  0  0  0  0  0
   22.6383   19.5218   31.8615 H   0  0  0  0  0  0
   27.8726   20.8205   30.6921 H   0  0  0  0  0  0
   29.8089   13.8151   27.4747 H   0  0  0  0  0  0
   31.9532   25.2559   25.0232 H   0  0  0  0  0  0
   27.7620   24.0018   32.5621 H   0  0  0  0  0  0
   28.2535   18.7393   31.2635 H   0  0  0  0  0  0
   25.2208   17.3688   28.5182 H   0  0  0  0  0  0
   29.8760   17.3221   30.1867 H   0  0  0  0  0  0
   26.8435   15.8918   27.4766 H   0  0  0  0  0  0
   23.5641   22.2432   32.7784 H   0  0  0  0  0  0
   30.5854   21.5633   27.3965 H   0  0  0  0  0  0
   30.7273   25.7711   28.3284 H   0  0  0  0  0  0
   31.9592   23.0466   24.5876 H   0  0  0  0  0  0
   31.2440   22.0087   25.7820 H   0  0  0  0  0  0
   31.4485   15.2280   27.7803 H   0  0  0  0  0  0
   31.0482   16.7709   28.4897 H   0  0  0  0  0  0
   29.4519   21.8142   31.9184 H   0  0  0  0  0  0
   29.9197   23.4259   32.3543 H   0  0  0  0  0  0
   25.5315   23.7091   32.8345 H   0  0  0  0  0  0
   29.8704   25.2868   30.5533 H   0  0  0  0  0  0
   29.7596   21.1002   29.6078 H   0  0  0  0  0  0
  1  2  1  0  0  0
  1  3  1  0  0  0
  1  9  1  0  0  0
  2  7  1  0  0  0
  2  8  2  0  0  0
  3  4  2  0  0  0
  3 30  1  0  0  0
  4  7  1  0  0  0
  4 31  1  0  0  0
  5 10  1  0  0  0
  5 12  2  0  0  0
  5 24  1  0  0  0
  6 11  1  0  0  0
  6 13  2  0  0  0
  6 23  1  0  0  0
  7 20  2  0  0  0
  8 17  1  0  0  0
  8 32  1  0  0  0
  9 15  2  0  0  0
  9 16  1  0  0  0
 10 19  1  0  0  0
 10 18  2  0  0  0
 11 21  2  0  0  0
 11 22  1  0  0  0
 12 33  1  0  0  0
 13 34  1  0  0  0
 14 17  1  0  0  0
 14 25  1  0  0  0
 14 35  1  0  0  0
 15 18  1  0  0  0
 15 36  1  0  0  0
 16 19  2  0  0  0
 16 37  1  0  0  0
 17 27  2  0  0  0
 18 38  1  0  0  0
 19 39  1  0  0  0
 20 27  1  0  0  0
 20 40  1  0  0  0
 21 29  1  0  0  0
 21 41  1  0  0  0
 22 28  2  0  0  0
 22 42  1  0  0  0
 23 43  1  0  0  0
 23 44  1  0  0  0
 24 45  1  0  0  0
 24 46  1  0  0  0
 25 26  1  0  0  0
 25 47  1  0  0  0
 25 48  1  0  0  0
 26 28  1  0  0  0
 26 29  2  0  0  0
 27 49  1  0  0  0
 28 50  1  0  0  0
 29 51  1  0  0  0
M  END
> <s_m_entry_id>
39316

> <s_m_entry_name>
dock_pv.72

> <s_m_Source_Path>
/home/csk/Desktop/cluster/DUD-E-result/try1

> <s_m_Source_File>
dock_pv.maegz

> <i_m_Source_File_Index>
72

> <chembl_id>
CHEMBL368762

> <chembl_pref_name>
None

> <i_lp_mmshare_version>
53161

> <r_lp_tautomer_probability>
1

> <s_lp_Force_Field>
OPLS_2005

> <r_lp_Energy>
9.393893

> <b_lp_Chiralities_Consistent>
1

> <s_lp_Variant>
CHEMBL209_lig805-1

> <s_i_glide_gridfile>
glide-grid_2ayw

> <i_i_glide_lignum>
1226

> <i_i_glide_rotatable_bonds>
6

> <r_i_docking_score>
-6.95853395804202

> <r_i_glide_ligand_efficiency>
-0.239949446829035

> <r_i_glide_ligand_efficiency_sa>
-0.737200721979398

> <r_i_glide_ligand_efficiency_ln>
-1.59332782319524

> <r_i_glide_gscore>
-6.95853395804202

> <r_i_glide_lipo>
-2.1466478721021

> <r_i_glide_hbond>
-0.6811528843034

> <r_i_glide_metal>
0

> <r_i_glide_rewards>
-1.16027268562229

> <r_i_glide_evdw>
-33.7265396118164

> <r_i_glide_ecoul>
-11.6464776992798

> <r_i_glide_erotb>
0.531100545531838

> <r_i_glide_esite>
-0.0682624260632805

> <r_i_glide_emodel>
-63.4672226212279

> <r_i_glide_energy>
-45.3730173110962

> <r_i_glide_einternal>
2.61552834510803

> <i_i_glide_confnum>
11

> <i_i_glide_posenum>
375

> <r_i_glide_eff_state_penalty>
0

> <s_user_duplicate_titles>
CHEMBL209_lig805,291312

> <i_f3d_flags>
0

> <s_m_subgroup_title>
dock_pv

> <s_m_subgroupid>
dock_pv

> <b_m_subgroup_collapsed>
1

$$$$
CHEMBL209_lig577
                    3D
 Schrodinger Suite 2021-1.
 54 56  0  0  1  0            999 V2000
   30.0554   20.5277   33.5117 C   0  0  0  0  0  0
   30.1256   20.1403   34.8862 N   0  0  0  0  0  0
   28.9869   15.9773   28.4461 C   0  0  0  0  0  0
   33.5130   23.3064   26.8212 C   0  0  0  0  0  0
   28.8406   20.0314   32.6988 C   0  0  0  0  0  0
   28.2368   17.1062   29.0749 C   0  0  0  0  0  0
   28.8711   18.1438   29.7928 C   0  0  0  0  0  0
   28.1510   19.1788   30.4065 C   0  0  0  0  0  0
   28.8881   20.2995   31.1652 C   0  0  1  0  0  0
   32.4112   23.2269   27.8275 C   0  0  0  0  0  0
   28.3921   14.9539   28.0172 N   0  0  0  0  0  0
   34.6391   23.7826   27.1263 N   0  0  0  0  0  0
   29.2120   19.3922   35.6048 C   0  0  0  0  0  0
   31.1552   20.4395   35.7546 C   0  0  0  0  0  0
   30.9672   21.1752   32.9910 O   0  0  0  0  0  0
   30.8942   19.8846   36.9973 C   0  0  0  0  0  0
   29.6699   19.2229   36.9023 C   0  0  0  0  0  0
   28.3222   21.7011   30.7996 C   0  0  0  0  0  0
   31.2178   22.5335   27.5675 C   0  0  0  0  0  0
   32.5373   23.8287   29.0925 C   0  0  0  0  0  0
   30.3490   16.1310   28.3929 N   0  0  0  0  0  0
   33.2045   22.8065   25.5790 N   0  0  0  0  0  0
   30.3643   23.0031   29.7854 C   0  0  0  0  0  0
   29.2722   22.9233   30.8533 C   0  0  0  0  0  0
   31.5281   23.7296   30.0508 C   0  0  0  0  0  0
   30.2276   22.4031   28.5325 C   0  0  0  0  0  0
   26.8308   17.1564   28.9918 C   0  0  0  0  0  0
   26.7554   19.1731   30.3127 C   0  0  0  0  0  0
   26.0995   18.1698   29.6061 C   0  0  0  0  0  0
   28.7614   18.9546   32.8623 H   0  0  0  0  0  0
   27.9347   20.4577   33.1320 H   0  0  0  0  0  0
   29.9468   18.1425   29.9103 H   0  0  0  0  0  0
   29.9194   20.2628   30.8072 H   0  0  0  0  0  0
   29.0821   14.2907   27.6975 H   0  0  0  0  0  0
   35.2879   23.7262   26.3533 H   0  0  0  0  0  0
   28.3060   19.0250   35.1429 H   0  0  0  0  0  0
   31.9998   21.0228   35.4142 H   0  0  0  0  0  0
   31.5206   19.9462   37.8744 H   0  0  0  0  0  0
   29.1741   18.6750   37.6924 H   0  0  0  0  0  0
   27.9385   21.6460   29.7905 H   0  0  0  0  0  0
   27.4473   21.9157   31.4128 H   0  0  0  0  0  0
   31.0379   22.0576   26.6166 H   0  0  0  0  0  0
   33.4262   24.3882   29.3458 H   0  0  0  0  0  0
   30.9196   15.4273   27.9365 H   0  0  0  0  0  0
   30.7954   17.0232   28.5927 H   0  0  0  0  0  0
   33.8997   22.8140   24.8475 H   0  0  0  0  0  0
   32.2654   22.5126   25.3568 H   0  0  0  0  0  0
   28.6736   23.8268   30.7335 H   0  0  0  0  0  0
   29.7141   23.0109   31.8442 H   0  0  0  0  0  0
   31.6605   24.2116   31.0092 H   0  0  0  0  0  0
   29.3508   21.8372   28.2678 H   0  0  0  0  0  0
   26.2836   16.3919   28.4572 H   0  0  0  0  0  0
   26.1700   19.9426   30.7922 H   0  0  0  0  0  0
   25.0212   18.1686   29.5412 H   0  0  0  0  0  0
  1  2  1  0  0  0
  1  5  1  0  0  0
  1 15  2  0  0  0
  2 13  1  0  0  0
  2 14  1  0  0  0
  3  6  1  0  0  0
  3 11  2  0  0  0
  3 21  1  0  0  0
  4 10  1  0  0  0
  4 12  2  0  0  0
  4 22  1  0  0  0
  5  9  1  0  0  0
  5 30  1  0  0  0
  5 31  1  0  0  0
  6  7  2  0  0  0
  6 27  1  0  0  0
  7  8  1  0  0  0
  7 32  1  0  0  0
  8  9  1  0  0  0
  8 28  2  0  0  0
  9 18  1  0  0  0
  9 33  1  0  0  0
 10 19  2  0  0  0
 10 20  1  0  0  0
 11 34  1  0  0  0
 12 35  1  0  0  0
 13 17  2  0  0  0
 13 36  1  0  0  0
 14 16  2  0  0  0
 14 37  1  0  0  0
 16 17  1  0  0  0
 16 38  1  0  0  0
 17 39  1  0  0  0
 18 24  1  0  0  0
 18 40  1  0  0  0
 18 41  1  0  0  0
 19 26  1  0  0  0
 19 42  1  0  0  0
 20 25  2  0  0  0
 20 43  1  0  0  0
 21 44  1  0  0  0
 21 45  1  0  0  0
 22 46  1  0  0  0
 22 47  1  0  0  0
 23 24  1  0  0  0
 23 25  1  0  0  0
 23 26  2  0  0  0
 24 48  1  0  0  0
 24 49  1  0  0  0
 25 50  1  0  0  0
 26 51  1  0  0  0
 27 29  2  0  0  0
 27 52  1  0  0  0
 28 29  1  0  0  0
 28 53  1  0  0  0
 29 54  1  0  0  0
M  END
> <s_m_entry_id>
39317

> <s_m_entry_name>
dock_pv.73

> <s_m_Source_Path>
/home/csk/Desktop/cluster/DUD-E-result/try1

> <s_m_Source_File>
dock_pv.maegz

> <i_m_Source_File_Index>
73

> <chembl_id>
CHEMBL158063

> <chembl_pref_name>
None

> <i_lp_mmshare_version>
53161

> <r_lp_tautomer_probability>
1

> <s_lp_Force_Field>
OPLS_2005

> <r_lp_Energy>
4.749128

> <b_lp_Chiralities_Consistent>
1

> <s_lp_Variant>
CHEMBL209_lig577-1

> <s_i_glide_gridfile>
glide-grid_2ayw

> <i_i_glide_lignum>
926

> <i_i_glide_rotatable_bonds>
9

> <r_i_docking_score>
-6.95731227142451

> <r_i_glide_ligand_efficiency>
-0.239907319704293

> <r_i_glide_ligand_efficiency_sa>
-0.737071294105382

> <r_i_glide_ligand_efficiency_ln>
-1.59304808793913

> <r_i_glide_gscore>
-6.95731227142451

> <r_i_glide_lipo>
-1.97065093057755

> <r_i_glide_hbond>
-0.820292450027527

> <r_i_glide_metal>
0

> <r_i_glide_rewards>
-1.4537132405759

> <r_i_glide_evdw>
-36.9458847045898

> <r_i_glide_ecoul>
-10.7734231948853

> <r_i_glide_erotb>
0.778244877033079

> <r_i_glide_esite>
-0.027592812814336

> <r_i_glide_emodel>
-63.498295160832

> <r_i_glide_energy>
-47.7193078994751

> <r_i_glide_einternal>
8.52952671051025

> <i_i_glide_confnum>
24

> <i_i_glide_posenum>
249

> <r_i_glide_eff_state_penalty>
0

> <s_user_duplicate_titles>
CHEMBL209_lig577

> <i_f3d_flags>
0

> <s_m_subgroup_title>
dock_pv

> <s_m_subgroupid>
dock_pv

> <b_m_subgroup_collapsed>
1

$$$$
CHEMBL209_lig563
                    3D
 Schrodinger Suite 2021-1.
 49 50  0  0  1  0            999 V2000
   21.8218   19.7330   36.0875 C   0  0  0  0  0  0
   29.4405   15.4958   28.2044 C   0  0  0  0  0  0
   22.7347   20.2840   35.0347 C   0  0  0  0  0  0
   22.6350   19.8548   33.6943 C   0  0  0  0  0  0
   23.4662   20.3570   32.6811 C   0  0  0  0  0  0
   22.6078   20.6539   28.8463 C   0  0  0  0  0  0
   23.2908   19.8810   31.2346 C   0  0  1  0  0  0
   28.5305   16.5655   28.7521 C   0  0  0  0  0  0
   20.8824   18.9464   35.7904 N   0  0  0  0  0  0
   23.0656   21.0643   30.2508 C   0  0  0  0  0  0
   28.9773   14.4398   27.7910 O   0  0  0  0  0  0
   23.4201   20.4318   27.9465 O   0  0  0  0  0  0
   24.3588   18.8469   30.7873 C   0  0  0  0  0  0
   27.2282   16.6791   28.2502 C   0  0  0  0  0  0
   28.9389   17.4150   29.7875 C   0  0  0  0  0  0
   22.1006   20.1321   37.3743 N   0  0  0  0  0  0
   30.7529   15.7330   28.1918 N   0  0  0  0  0  0
   26.7386   18.4184   29.8560 C   0  0  0  0  0  0
   25.7656   19.4181   30.4802 C   0  0  0  0  0  0
   28.0464   18.3289   30.3389 C   0  0  0  0  0  0
   26.3428   17.6074   28.7887 C   0  0  0  0  0  0
   21.2657   20.5847   28.7424 O   0  0  0  0  0  0
   23.7280   21.2441   35.3192 C   0  0  0  0  0  0
   24.4290   21.3131   33.0102 C   0  0  0  0  0  0
   24.5621   21.7525   34.3235 C   0  0  0  0  0  0
   20.6511   20.2725   27.5003 C   0  0  0  0  0  0
   21.8902   19.1167   33.4273 H   0  0  0  0  0  0
   22.3531   19.3319   31.2267 H   0  0  0  0  0  0
   20.3746   18.6485   36.6086 H   0  0  0  0  0  0
   22.3141   21.7378   30.6630 H   0  0  0  0  0  0
   23.9707   21.6621   30.1565 H   0  0  0  0  0  0
   24.4439   18.0623   31.5408 H   0  0  0  0  0  0
   23.9665   18.3391   29.9066 H   0  0  0  0  0  0
   26.8891   16.0431   27.4439 H   0  0  0  0  0  0
   29.9404   17.3546   30.1918 H   0  0  0  0  0  0
   21.6050   19.6991   38.1438 H   0  0  0  0  0  0
   22.9195   20.6771   37.5799 H   0  0  0  0  0  0
   31.3839   15.0440   27.7857 H   0  0  0  0  0  0
   31.1163   16.6362   28.4737 H   0  0  0  0  0  0
   25.6930   20.2571   29.7914 H   0  0  0  0  0  0
   26.1935   19.8129   31.4023 H   0  0  0  0  0  0
   28.3749   18.9593   31.1517 H   0  0  0  0  0  0
   25.3486   17.6722   28.3719 H   0  0  0  0  0  0
   23.8683   21.6254   36.3203 H   0  0  0  0  0  0
   25.0768   21.7200   32.2472 H   0  0  0  0  0  0
   25.3117   22.4906   34.5721 H   0  0  0  0  0  0
   19.5739   20.1770   27.6334 H   0  0  0  0  0  0
   20.8340   21.0558   26.7626 H   0  0  0  0  0  0
   21.0226   19.3314   27.0977 H   0  0  0  0  0  0
  1  3  1  0  0  0
  1  9  2  0  0  0
  1 16  1  0  0  0
  2  8  1  0  0  0
  2 11  2  0  0  0
  2 17  1  0  0  0
  3  4  2  0  0  0
  3 23  1  0  0  0
  4  5  1  0  0  0
  4 27  1  0  0  0
  5  7  1  0  0  0
  5 24  2  0  0  0
  6 10  1  0  0  0
  6 12  2  0  0  0
  6 22  1  0  0  0
  7 10  1  0  0  0
  7 13  1  0  0  0
  7 28  1  0  0  0
  8 14  2  0  0  0
  8 15  1  0  0  0
  9 29  1  0  0  0
 10 30  1  0  0  0
 10 31  1  0  0  0
 13 19  1  0  0  0
 13 32  1  0  0  0
 13 33  1  0  0  0
 14 21  1  0  0  0
 14 34  1  0  0  0
 15 20  2  0  0  0
 15 35  1  0  0  0
 16 36  1  0  0  0
 16 37  1  0  0  0
 17 38  1  0  0  0
 17 39  1  0  0  0
 18 19  1  0  0  0
 18 20  1  0  0  0
 18 21  2  0  0  0
 19 40  1  0  0  0
 19 41  1  0  0  0
 20 42  1  0  0  0
 21 43  1  0  0  0
 22 26  1  0  0  0
 23 25  2  0  0  0
 23 44  1  0  0  0
 24 25  1  0  0  0
 24 45  1  0  0  0
 25 46  1  0  0  0
 26 47  1  0  0  0
 26 48  1  0  0  0
 26 49  1  0  0  0
M  END
> <s_m_entry_id>
39318

> <s_m_entry_name>
dock_pv.74

> <s_m_Source_Path>
/home/csk/Desktop/cluster/DUD-E-result/try1

> <s_m_Source_File>
dock_pv.maegz

> <i_m_Source_File_Index>
74

> <chembl_id>
CHEMBL155871

> <chembl_pref_name>
None

> <i_lp_mmshare_version>
53161

> <r_lp_tautomer_probability>
1

> <s_lp_Force_Field>
OPLS_2005

> <r_lp_Energy>
7.958493

> <b_lp_Chiralities_Consistent>
1

> <s_lp_Variant>
CHEMBL209_lig563-2

> <s_i_glide_gridfile>
glide-grid_2ayw

> <i_i_glide_lignum>
905

> <i_i_glide_rotatable_bonds>
9

> <r_i_docking_score>
-6.95105480812736

> <r_i_glide_ligand_efficiency>
-0.267348261851052

> <r_i_glide_ligand_efficiency_sa>
-0.792018173769129

> <r_i_glide_ligand_efficiency_ln>
-1.63243241341756

> <r_i_glide_gscore>
-6.95105480812736

> <r_i_glide_lipo>
-1.86451527267637

> <r_i_glide_hbond>
-1.03554790562784

> <r_i_glide_metal>
0

> <r_i_glide_rewards>
-1.41531050655608

> <r_i_glide_evdw>
-35.5179290771484

> <r_i_glide_ecoul>
-11.3627471923828

> <r_i_glide_erotb>
0.917353342845131

> <r_i_glide_esite>
-0.0727259333973525

> <r_i_glide_emodel>
-64.3366084244275

> <r_i_glide_energy>
-46.8806762695312

> <r_i_glide_einternal>
4.67309379577637

> <i_i_glide_confnum>
45

> <i_i_glide_posenum>
102

> <r_i_glide_eff_state_penalty>
0

> <s_user_duplicate_titles>
CHEMBL209_lig563,261266

> <i_f3d_flags>
0

> <s_m_subgroup_title>
dock_pv

> <s_m_subgroupid>
dock_pv

> <b_m_subgroup_collapsed>
1

$$$$
CHEMBL209_lig579
                    3D
 Schrodinger Suite 2021-1.
 51 52  0  0  1  0            999 V2000
   25.3333   18.9467   29.4543 O   0  0  0  0  0  0
   26.3664   18.0875   29.1793 C   0  0  0  0  0  0
   26.0552   16.7608   28.8974 C   0  0  0  0  0  0
   27.0636   15.8524   28.5919 C   0  0  0  0  0  0
   28.4153   16.2362   28.5798 C   0  0  0  0  0  0
   28.6990   17.5884   28.8411 C   0  0  0  0  0  0
   27.6974   18.5221   29.1426 C   0  0  0  0  0  0
   29.4827   15.2348   28.3083 C   0  0  0  0  0  0
   30.7529   15.7330   28.1910 N   0  0  0  0  0  0
   29.2042   14.0181   28.1907 N   0  0  0  0  0  0
   22.2222   22.4405   26.2033 C   0  0  0  0  0  0
   22.7988   23.1663   27.2633 C   0  0  0  0  0  0
   22.6965   22.7394   28.5860 C   0  0  0  0  0  0
   22.0288   21.5559   28.8938 C   0  0  0  0  0  0
   21.4349   20.8158   27.8634 C   0  0  0  0  0  0
   21.5431   21.2517   26.5427 C   0  0  0  0  0  0
   21.9549   21.1554   30.2083 O   0  0  0  0  0  0
   22.7762   20.0403   30.5466 C   0  0  0  0  0  0
   24.2093   20.4946   30.8760 C   0  0  0  0  0  0
   25.2251   19.3486   30.8162 C   0  0  0  0  0  0
   22.3405   22.9327   24.7986 C   0  0  0  0  0  0
   23.1113   23.8833   24.5053 N   0  0  0  0  0  0
   21.5534   22.2695   23.8881 N   0  0  0  0  0  0
   20.7671   19.6437   28.1164 O   0  0  0  0  0  0
   27.9520   19.8558   29.4098 O   0  0  0  0  0  0
   19.4414   19.8171   28.5984 C   0  0  0  0  0  0
   29.2905   20.3403   29.3852 C   0  0  0  0  0  0
   25.0313   16.4247   28.9394 H   0  0  0  0  0  0
   26.7770   14.8277   28.3957 H   0  0  0  0  0  0
   29.7188   17.9191   28.8247 H   0  0  0  0  0  0
   31.4939   15.1313   27.8341 H   0  0  0  0  0  0
   30.9771   16.7012   28.3820 H   0  0  0  0  0  0
   30.0369   13.4830   27.9883 H   0  0  0  0  0  0
   23.3318   24.0874   27.0701 H   0  0  0  0  0  0
   23.1456   23.3221   29.3765 H   0  0  0  0  0  0
   21.0820   20.6332   25.7874 H   0  0  0  0  0  0
   22.3530   19.5512   31.4243 H   0  0  0  0  0  0
   22.7695   19.2880   29.7552 H   0  0  0  0  0  0
   24.5292   21.2712   30.1835 H   0  0  0  0  0  0
   24.2215   20.9516   31.8659 H   0  0  0  0  0  0
   26.1816   19.6950   31.2106 H   0  0  0  0  0  0
   24.9045   18.5090   31.4368 H   0  0  0  0  0  0
   23.0932   24.1064   23.5219 H   0  0  0  0  0  0
   21.5579   22.5479   22.9181 H   0  0  0  0  0  0
   20.8841   21.5747   24.1891 H   0  0  0  0  0  0
   19.0328   18.8503   28.8935 H   0  0  0  0  0  0
   19.3998   20.4687   29.4733 H   0  0  0  0  0  0
   18.7941   20.2326   27.8241 H   0  0  0  0  0  0
   29.2897   21.4079   29.6085 H   0  0  0  0  0  0
   29.9100   19.8443   30.1353 H   0  0  0  0  0  0
   29.7455   20.2111   28.4018 H   0  0  0  0  0  0
  1 20  1  0  0  0
  1  2  1  0  0  0
  2  7  1  0  0  0
  2  3  2  0  0  0
  3  4  1  0  0  0
  3 28  1  0  0  0
  4  5  2  0  0  0
  4 29  1  0  0  0
  5  8  1  0  0  0
  5  6  1  0  0  0
  6  7  2  0  0  0
  6 30  1  0  0  0
  7 25  1  0  0  0
  8  9  1  0  0  0
  8 10  2  0  0  0
  9 31  1  0  0  0
  9 32  1  0  0  0
 10 33  1  0  0  0
 11 16  1  0  0  0
 11 21  1  0  0  0
 11 12  2  0  0  0
 12 13  1  0  0  0
 12 34  1  0  0  0
 13 14  2  0  0  0
 13 35  1  0  0  0
 14 15  1  0  0  0
 14 17  1  0  0  0
 15 16  2  0  0  0
 15 24  1  0  0  0
 16 36  1  0  0  0
 17 18  1  0  0  0
 18 19  1  0  0  0
 18 37  1  0  0  0
 18 38  1  0  0  0
 19 20  1  0  0  0
 19 39  1  0  0  0
 19 40  1  0  0  0
 20 41  1  0  0  0
 20 42  1  0  0  0
 21 22  2  0  0  0
 21 23  1  0  0  0
 22 43  1  0  0  0
 23 44  1  0  0  0
 23 45  1  0  0  0
 24 26  1  0  0  0
 25 27  1  0  0  0
 26 46  1  0  0  0
 26 47  1  0  0  0
 26 48  1  0  0  0
 27 49  1  0  0  0
 27 50  1  0  0  0
 27 51  1  0  0  0
M  END
> <s_m_entry_id>
39319

> <s_m_entry_name>
dock_pv.75

> <s_m_Source_Path>
/home/csk/Desktop/cluster/DUD-E-result/try1

> <s_m_Source_File>
dock_pv.maegz

> <i_m_Source_File_Index>
75

> <chembl_id>
CHEMBL3216660

> <chembl_pref_name>
None

> <i_lp_mmshare_version>
53161

> <r_lp_tautomer_probability>
1

> <s_lp_Force_Field>
OPLS_2005

> <r_lp_Energy>
19.136645

> <b_lp_Chiralities_Consistent>
1

> <s_lp_Variant>
CHEMBL209_lig579-1

> <s_i_glide_gridfile>
glide-grid_2ayw

> <i_i_glide_lignum>
929

> <i_i_glide_rotatable_bonds>
10

> <r_i_docking_score>
-6.93581854631347

> <r_i_glide_ligand_efficiency>
-0.25688216838198

> <r_i_glide_ligand_efficiency_sa>
-0.770646504299299

> <r_i_glide_ligand_efficiency_ln>
-1.61454421167642

> <r_i_glide_gscore>
-6.93581854631347

> <r_i_glide_lipo>
-2.28220865715343

> <r_i_glide_hbond>
-0.464515208277048

> <r_i_glide_metal>
0

> <r_i_glide_rewards>
-1.33189147275508

> <r_i_glide_evdw>
-41.2454071044922

> <r_i_glide_ecoul>
-10.3846054077148

> <r_i_glide_erotb>
0.835525468057148

> <r_i_glide_esite>
-0.072767509803229

> <r_i_glide_emodel>
-62.1639504055739

> <r_i_glide_energy>
-51.630012512207

> <r_i_glide_einternal>
22.530252456665

> <i_i_glide_confnum>
12

> <i_i_glide_posenum>
323

> <r_i_glide_eff_state_penalty>
0

> <s_user_duplicate_titles>
CHEMBL209_lig579

> <i_f3d_flags>
0

> <s_m_subgroup_title>
dock_pv

> <s_m_subgroupid>
dock_pv

> <b_m_subgroup_collapsed>
1

$$$$
CHEMBL209_lig582
                    3D
 Schrodinger Suite 2021-1.
 53 54  0  0  1  0            999 V2000
   23.8224   21.3167   30.7926 C   0  0  0  0  0  0
   23.3536   20.1410   29.9123 C   0  0  0  0  0  0
   22.9657   22.5964   30.6726 C   0  0  0  0  0  0
   27.0510   15.9892   28.5908 C   0  0  0  0  0  0
   22.8850   24.1535   25.0919 C   0  0  0  0  0  0
   26.0803   16.9039   28.9910 C   0  0  0  0  0  0
   22.9069   23.9120   26.4680 C   0  0  0  0  0  0
   24.1819   18.8614   30.0766 C   0  0  0  0  0  0
   22.9813   23.2729   29.2865 C   0  0  0  0  0  0
   28.7532   17.6162   28.9982 C   0  0  0  0  0  0
   21.6534   22.1330   24.7592 C   0  0  0  0  0  0
   28.4213   16.3147   28.5940 C   0  0  0  0  0  0
   22.2519   23.2721   24.1962 C   0  0  0  0  0  0
   27.7935   18.5441   29.3865 C   0  0  0  0  0  0
   21.6848   21.8678   26.1257 C   0  0  0  0  0  0
   26.4361   18.2015   29.3918 C   0  0  0  0  0  0
   22.3026   22.7662   27.0041 C   0  0  0  0  0  0
   29.4516   15.3057   28.2135 C   0  0  0  0  0  0
   22.1920   23.4971   22.7190 C   0  0  0  0  0  0
   28.2196   19.8102   29.7928 N   0  0  0  0  0  0
   21.0890   20.6943   26.5911 N   0  0  0  0  0  0
   29.1257   14.1329   27.9359 N   0  0  0  0  0  0
   30.7529   15.7348   28.1917 N   0  0  0  0  0  0
   21.6511   22.6548   21.9542 N   0  0  0  0  0  0
   22.7531   24.6750   22.2898 N   0  0  0  0  0  0
   25.5386   19.1782   29.7862 O   0  0  0  0  0  0
   22.2589   22.4739   28.3562 O   0  0  0  0  0  0
   24.8594   21.5585   30.5608 H   0  0  0  0  0  0
   23.8230   20.9942   31.8354 H   0  0  0  0  0  0
   22.3064   19.9198   30.1216 H   0  0  0  0  0  0
   23.4031   20.4198   28.8610 H   0  0  0  0  0  0
   23.3291   23.3170   31.4044 H   0  0  0  0  0  0
   21.9359   22.3788   30.9604 H   0  0  0  0  0  0
   26.7215   15.0007   28.3012 H   0  0  0  0  0  0
   23.3707   25.0539   24.7408 H   0  0  0  0  0  0
   25.0573   16.5661   28.9910 H   0  0  0  0  0  0
   23.3961   24.6337   27.1031 H   0  0  0  0  0  0
   24.0966   18.4578   31.0877 H   0  0  0  0  0  0
   23.7603   18.1322   29.3912 H   0  0  0  0  0  0
   24.0111   23.4219   28.9618 H   0  0  0  0  0  0
   22.5087   24.2539   29.3521 H   0  0  0  0  0  0
   29.7844   17.9174   29.0404 H   0  0  0  0  0  0
   21.1533   21.4201   24.1184 H   0  0  0  0  0  0
   29.2098   19.9846   29.8893 H   0  0  0  0  0  0
   27.5435   20.4017   30.2562 H   0  0  0  0  0  0
   20.9751   20.6051   27.5901 H   0  0  0  0  0  0
   20.4617   20.1995   25.9655 H   0  0  0  0  0  0
   29.9417   13.5819   27.6999 H   0  0  0  0  0  0
   31.4737   15.1199   27.8191 H   0  0  0  0  0  0
   31.0048   16.6890   28.4153 H   0  0  0  0  0  0
   21.6669   22.9509   20.9900 H   0  0  0  0  0  0
   22.7847   24.8887   21.3051 H   0  0  0  0  0  0
   23.2752   25.2581   22.9231 H   0  0  0  0  0  0
  1  2  1  0  0  0
  1  3  1  0  0  0
  1 28  1  0  0  0
  1 29  1  0  0  0
  2  8  1  0  0  0
  2 30  1  0  0  0
  2 31  1  0  0  0
  3  9  1  0  0  0
  3 32  1  0  0  0
  3 33  1  0  0  0
  4  6  2  0  0  0
  4 12  1  0  0  0
  4 34  1  0  0  0
  5  7  2  0  0  0
  5 13  1  0  0  0
  5 35  1  0  0  0
  6 16  1  0  0  0
  6 36  1  0  0  0
  7 17  1  0  0  0
  7 37  1  0  0  0
  8 26  1  0  0  0
  8 38  1  0  0  0
  8 39  1  0  0  0
  9 27  1  0  0  0
  9 40  1  0  0  0
  9 41  1  0  0  0
 10 12  2  0  0  0
 10 14  1  0  0  0
 10 42  1  0  0  0
 11 13  2  0  0  0
 11 15  1  0  0  0
 11 43  1  0  0  0
 12 18  1  0  0  0
 13 19  1  0  0  0
 14 16  2  0  0  0
 14 20  1  0  0  0
 15 17  2  0  0  0
 15 21  1  0  0  0
 16 26  1  0  0  0
 17 27  1  0  0  0
 18 22  2  0  0  0
 18 23  1  0  0  0
 19 24  2  0  0  0
 19 25  1  0  0  0
 20 44  1  0  0  0
 20 45  1  0  0  0
 21 46  1  0  0  0
 21 47  1  0  0  0
 22 48  1  0  0  0
 23 49  1  0  0  0
 23 50  1  0  0  0
 24 51  1  0  0  0
 25 52  1  0  0  0
 25 53  1  0  0  0
M  END
> <s_m_entry_id>
39320

> <s_m_entry_name>
dock_pv.76

> <s_m_Source_Path>
/home/csk/Desktop/cluster/DUD-E-result/try1

> <s_m_Source_File>
dock_pv.maegz

> <i_m_Source_File_Index>
76

> <chembl_id>
CHEMBL1204159

> <chembl_pref_name>
None

> <i_lp_mmshare_version>
53161

> <r_lp_tautomer_probability>
1

> <s_lp_Force_Field>
OPLS_2005

> <r_lp_Energy>
11.284842

> <b_lp_Chiralities_Consistent>
1

> <s_lp_Variant>
CHEMBL209_lig582-1

> <s_i_glide_gridfile>
glide-grid_2ayw

> <i_i_glide_lignum>
933

> <i_i_glide_rotatable_bonds>
10

> <r_i_docking_score>
-6.92858148381603

> <r_i_glide_ligand_efficiency>
-0.256614129030223

> <r_i_glide_ligand_efficiency_sa>
-0.769842386244912

> <r_i_glide_ligand_efficiency_ln>
-1.61285954283932

> <r_i_glide_gscore>
-6.92858148381603

> <r_i_glide_lipo>
-2.22950920094553

> <r_i_glide_hbond>
-0.687328566581943

> <r_i_glide_metal>
0

> <r_i_glide_rewards>
-1.39560938604351

> <r_i_glide_evdw>
-37.2793197631836

> <r_i_glide_ecoul>
-12.0276689529419

> <r_i_glide_erotb>
1.12464547365487

> <r_i_glide_esite>
-0.0726634727994429

> <r_i_glide_emodel>
-69.4281733492969

> <r_i_glide_energy>
-49.3069887161255

> <r_i_glide_einternal>
1.25644755363464

> <i_i_glide_confnum>
14

> <i_i_glide_posenum>
310

> <r_i_glide_eff_state_penalty>
0

> <s_user_duplicate_titles>
CHEMBL209_lig582

> <i_f3d_flags>
0

> <s_m_subgroup_title>
dock_pv

> <s_m_subgroupid>
dock_pv

> <b_m_subgroup_collapsed>
1

$$$$
CHEMBL209_lig388
                    3D
 Schrodinger Suite 2021-1.
 64 66  0  0  1  0            999 V2000
   30.0967   14.5613   28.1911 N   0  0  0  0  0  0
   28.9333   15.3437   28.1910 C   0  0  0  0  0  0
   27.8361   14.8840   27.7905 N   0  0  0  0  0  0
   29.1498   16.6554   28.6906 N   0  0  0  0  0  0
   28.2593   17.6096   29.2137 C   0  0  0  0  0  0
   26.9270   17.3157   29.5323 C   0  0  0  0  0  0
   26.1196   18.2482   30.1682 C   0  0  0  0  0  0
   26.6259   19.5134   30.4728 C   0  0  0  0  0  0
   27.9363   19.8387   30.1022 C   0  0  0  0  0  0
   28.7502   18.8870   29.4916 C   0  0  0  0  0  0
   25.7771   20.5230   31.1635 C   0  0  0  0  0  0
   25.9243   21.7331   30.9919 O   0  0  0  0  0  0
   24.9256   19.9465   32.0729 O   0  0  0  0  0  0
   24.1652   20.6556   32.9893 C   0  0  0  0  0  0
   23.0130   20.0263   33.4622 C   0  0  0  0  0  0
   22.1990   20.6469   34.4086 C   0  0  0  0  0  0
   22.4986   21.9291   34.8884 C   0  0  0  0  0  0
   21.5774   22.6087   35.9124 C   0  0  0  0  0  0
   20.0551   22.3638   35.7423 C   0  0  0  0  0  0
   19.4685   22.8776   34.4040 C   0  0  0  0  0  0
   19.7686   24.0219   34.0607 O   0  0  0  0  0  0
   18.6184   22.1015   33.6661 N   0  0  0  0  0  0
   18.4061   20.6540   33.9035 C   0  0  0  0  0  0
   17.4576   20.3492   35.0829 C   0  0  0  0  0  0
   17.5133   19.3117   35.7066 O   0  0  0  0  0  0
   16.5790   21.3655   35.3174 O   0  0  0  0  0  0
   18.1570   22.5589   32.3333 C   0  0  0  0  0  0
   18.8973   22.0088   31.0961 C   0  0  0  0  0  0
   20.2814   21.7949   31.1852 C   0  0  0  0  0  0
   21.0140   21.3324   30.0960 C   0  0  0  0  0  0
   20.3703   21.0627   28.8934 C   0  0  0  0  0  0
   18.9992   21.2717   28.7773 C   0  0  0  0  0  0
   18.2444   21.7376   29.8643 C   0  0  0  0  0  0
   16.7759   21.9899   29.6338 C   0  0  0  0  0  0
   16.3693   22.6763   28.6966 O   0  0  0  0  0  0
   15.9511   21.3328   30.4940 O   0  0  0  0  0  0
   23.6803   22.5497   34.4490 C   0  0  0  0  0  0
   24.1836   24.0969   35.0437 Cl  0  0  0  0  0  0
   24.5012   21.9139   33.5182 C   0  0  0  0  0  0
   30.0459   13.6703   27.7213 H   0  0  0  0  0  0
   30.9812   15.0018   27.9767 H   0  0  0  0  0  0
   27.1045   15.5763   27.8396 H   0  0  0  0  0  0
   30.1205   16.9096   28.8123 H   0  0  0  0  0  0
   26.5079   16.3367   29.3628 H   0  0  0  0  0  0
   25.1075   17.9670   30.4288 H   0  0  0  0  0  0
   28.3440   20.8165   30.3165 H   0  0  0  0  0  0
   29.7690   19.1485   29.2480 H   0  0  0  0  0  0
   22.7539   19.0404   33.1033 H   0  0  0  0  0  0
   21.3425   20.1058   34.7758 H   0  0  0  0  0  0
   21.7320   23.6886   35.9097 H   0  0  0  0  0  0
   21.8921   22.2781   36.9035 H   0  0  0  0  0  0
   19.5231   22.8904   36.5365 H   0  0  0  0  0  0
   19.8514   21.3125   35.9238 H   0  0  0  0  0  0
   18.1064   20.1416   32.9923 H   0  0  0  0  0  0
   19.3692   20.1887   34.1007 H   0  0  0  0  0  0
   16.7270   22.0938   34.7100 H   0  0  0  0  0  0
   18.1944   23.6479   32.2646 H   0  0  0  0  0  0
   17.0979   22.3206   32.2876 H   0  0  0  0  0  0
   20.8116   22.0070   32.1006 H   0  0  0  0  0  0
   22.0792   21.1769   30.1902 H   0  0  0  0  0  0
   20.9321   20.7003   28.0447 H   0  0  0  0  0  0
   18.5293   21.0664   27.8245 H   0  0  0  0  0  0
   16.4356   20.6618   30.9910 H   0  0  0  0  0  0
   25.4132   22.4116   33.2282 H   0  0  0  0  0  0
  1  2  1  0  0  0
  1 40  1  0  0  0
  1 41  1  0  0  0
  2  3  2  0  0  0
  2  4  1  0  0  0
  3 42  1  0  0  0
  4  5  1  0  0  0
  4 43  1  0  0  0
  5  6  2  0  0  0
  5 10  1  0  0  0
  6  7  1  0  0  0
  6 44  1  0  0  0
  7  8  2  0  0  0
  7 45  1  0  0  0
  8  9  1  0  0  0
  8 11  1  0  0  0
  9 10  2  0  0  0
  9 46  1  0  0  0
 10 47  1  0  0  0
 11 12  2  0  0  0
 11 13  1  0  0  0
 13 14  1  0  0  0
 14 15  2  0  0  0
 14 39  1  0  0  0
 15 16  1  0  0  0
 15 48  1  0  0  0
 16 17  2  0  0  0
 16 49  1  0  0  0
 17 18  1  0  0  0
 17 37  1  0  0  0
 18 19  1  0  0  0
 18 50  1  0  0  0
 18 51  1  0  0  0
 19 20  1  0  0  0
 19 52  1  0  0  0
 19 53  1  0  0  0
 20 21  2  0  0  0
 20 22  1  0  0  0
 22 23  1  0  0  0
 22 27  1  0  0  0
 23 24  1  0  0  0
 23 54  1  0  0  0
 23 55  1  0  0  0
 24 25  2  0  0  0
 24 26  1  0  0  0
 26 56  1  0  0  0
 27 28  1  0  0  0
 27 57  1  0  0  0
 27 58  1  0  0  0
 28 29  2  0  0  0
 28 33  1  0  0  0
 29 30  1  0  0  0
 29 59  1  0  0  0
 30 31  2  0  0  0
 30 60  1  0  0  0
 31 32  1  0  0  0
 31 61  1  0  0  0
 32 33  2  0  0  0
 32 62  1  0  0  0
 33 34  1  0  0  0
 34 35  2  0  0  0
 34 36  1  0  0  0
 36 63  1  0  0  0
 37 38  1  0  0  0
 37 39  2  0  0  0
 39 64  1  0  0  0
M  END
> <s_m_entry_id>
39321

> <s_m_entry_name>
dock_pv.77

> <s_m_Source_Path>
/home/csk/Desktop/cluster/DUD-E-result/try1

> <s_m_Source_File>
dock_pv.maegz

> <i_m_Source_File_Index>
77

> <chembl_id>
CHEMBL3940716

> <chembl_pref_name>
None

> <i_lp_mmshare_version>
53161

> <r_lp_tautomer_probability>
1

> <s_lp_Force_Field>
OPLS_2005

> <r_lp_Energy>
28.065361

> <b_lp_Chiralities_Consistent>
1

> <s_lp_Variant>
CHEMBL209_lig388-1

> <s_i_glide_gridfile>
glide-grid_2ayw

> <i_i_glide_lignum>
710

> <i_i_glide_rotatable_bonds>
16

> <r_i_docking_score>
-6.92538818193991

> <r_i_glide_ligand_efficiency>
-0.177574055947177

> <r_i_glide_ligand_efficiency_sa>
-0.602191169775117

> <r_i_glide_ligand_efficiency_ln>
-1.48499981504209

> <r_i_glide_gscore>
-6.92538818193991

> <r_i_glide_lipo>
-1.55339244939722

> <r_i_glide_hbond>
-0.985703356303097

> <r_i_glide_metal>
0

> <r_i_glide_rewards>
-0.00624705816560914

> <r_i_glide_evdw>
-39.0680465698242

> <r_i_glide_ecoul>
-21.3471927642822

> <r_i_glide_erotb>
0.878094358765171

> <r_i_glide_esite>
-0.10265843370561

> <r_i_glide_emodel>
-77.6874292023956

> <r_i_glide_energy>
-60.4152393341064

> <r_i_glide_einternal>
15.447437286377

> <i_i_glide_confnum>
5

> <i_i_glide_posenum>
5

> <r_i_glide_eff_state_penalty>
0

> <s_user_duplicate_titles>
CHEMBL209_lig388

> <i_f3d_flags>
0

> <s_m_subgroup_title>
dock_pv

> <s_m_subgroupid>
dock_pv

> <b_m_subgroup_collapsed>
1

$$$$
CHEMBL209_lig987
                    3D
 Schrodinger Suite 2021-1.
 57 60  0  0  1  0            999 V2000
   25.6736   18.9989   30.0612 C   0  0  0  0  0  0
   27.0211   18.7776   30.3657 C   0  0  0  0  0  0
   24.6508   19.9908   30.5059 C   0  0  0  0  0  0
   25.2909   18.0719   29.1284 N   0  0  0  0  0  0
   27.4359   17.6533   29.5576 C   0  0  0  0  0  0
   22.8816   21.5163   29.7563 C   0  0  0  0  0  0
   26.3145   17.2373   28.7975 C   0  0  0  0  0  0
   23.9481   20.6477   29.4903 C   0  0  0  0  0  0
   24.2946   20.2278   31.8398 C   0  0  0  0  0  0
   22.1156   22.1741   28.5740 C   0  0  0  0  0  0
   28.6424   16.9512   29.3906 C   0  0  0  0  0  0
   23.2582   21.1213   32.1326 C   0  0  0  0  0  0
   21.5760   21.0431   27.6352 C   0  0  0  0  0  0
   29.9549   15.0903   28.2733 C   0  0  0  0  0  0
   28.7118   15.8661   28.4949 C   0  0  0  0  0  0
   22.5617   21.7556   31.1019 C   0  0  0  0  0  0
   27.9154   19.5235   31.3443 C   0  0  0  0  0  0
   29.9166   13.9329   27.7910 N   0  0  0  0  0  0
   26.3456   16.1701   27.9102 C   0  0  0  0  0  0
   22.1849   20.6242   26.6500 O   0  0  0  0  0  0
   27.5537   15.5040   27.7892 C   0  0  0  0  0  0
   31.1212   15.7330   28.5910 N   0  0  0  0  0  0
   22.7483   21.4691   33.9375 Br  0  0  0  0  0  0
   24.9154   19.5616   32.8646 O   0  0  0  0  0  0
   20.3901   20.5169   28.0537 O   0  0  0  0  0  0
   28.6379   20.7287   30.7497 C   0  0  0  0  0  0
   20.9401   23.0888   29.0349 C   0  0  0  0  0  0
   23.0996   23.0833   27.7841 C   0  0  0  0  0  0
   29.2826   20.6401   29.5107 C   0  0  0  0  0  0
   28.6902   21.9234   31.4743 C   0  0  0  0  0  0
   29.3677   23.0255   30.9596 C   0  0  0  0  0  0
   29.9530   21.7445   28.9908 C   0  0  0  0  0  0
   29.9913   22.9327   29.7174 C   0  0  0  0  0  0
   24.3529   18.0328   28.7625 H   0  0  0  0  0  0
   24.2132   20.4518   28.4615 H   0  0  0  0  0  0
   29.5100   17.2501   29.9619 H   0  0  0  0  0  0
   21.7590   22.4233   31.3743 H   0  0  0  0  0  0
   27.3485   19.8399   32.2182 H   0  0  0  0  0  0
   28.6779   18.8490   31.7360 H   0  0  0  0  0  0
   30.8526   13.5756   27.6200 H   0  0  0  0  0  0
   25.4764   15.8692   27.3426 H   0  0  0  0  0  0
   27.5733   14.6718   27.1033 H   0  0  0  0  0  0
   31.9686   15.2741   28.2654 H   0  0  0  0  0  0
   31.1517   16.7374   28.7340 H   0  0  0  0  0  0
   24.5147   19.7628   33.7134 H   0  0  0  0  0  0
   20.1028   19.8198   27.4598 H   0  0  0  0  0  0
   20.2054   22.5523   29.6382 H   0  0  0  0  0  0
   21.2956   23.9292   29.6334 H   0  0  0  0  0  0
   20.4035   23.5143   28.1853 H   0  0  0  0  0  0
   23.9554   22.5340   27.3912 H   0  0  0  0  0  0
   22.6149   23.5641   26.9322 H   0  0  0  0  0  0
   23.4996   23.8777   28.4157 H   0  0  0  0  0  0
   29.2697   19.7202   28.9453 H   0  0  0  0  0  0
   28.2077   22.0003   32.4381 H   0  0  0  0  0  0
   29.4058   23.9487   31.5190 H   0  0  0  0  0  0
   30.4404   21.6775   28.0289 H   0  0  0  0  0  0
   30.5104   23.7893   29.3133 H   0  0  0  0  0  0
  1  2  2  0  0  0
  1  3  1  0  0  0
  1  4  1  0  0  0
  2  5  1  0  0  0
  2 17  1  0  0  0
  3  8  1  0  0  0
  3  9  2  0  0  0
  4  7  1  0  0  0
  4 34  1  0  0  0
  5 11  2  0  0  0
  5  7  1  0  0  0
  6  8  2  0  0  0
  6 10  1  0  0  0
  6 16  1  0  0  0
  7 19  2  0  0  0
  8 35  1  0  0  0
  9 12  1  0  0  0
  9 24  1  0  0  0
 10 13  1  0  0  0
 10 27  1  0  0  0
 10 28  1  0  0  0
 11 15  1  0  0  0
 11 36  1  0  0  0
 12 16  2  0  0  0
 12 23  1  0  0  0
 13 20  2  0  0  0
 13 25  1  0  0  0
 14 15  1  0  0  0
 14 18  2  0  0  0
 14 22  1  0  0  0
 15 21  2  0  0  0
 16 37  1  0  0  0
 17 26  1  0  0  0
 17 38  1  0  0  0
 17 39  1  0  0  0
 18 40  1  0  0  0
 19 21  1  0  0  0
 19 41  1  0  0  0
 21 42  1  0  0  0
 22 43  1  0  0  0
 22 44  1  0  0  0
 24 45  1  0  0  0
 25 46  1  0  0  0
 26 29  1  0  0  0
 26 30  2  0  0  0
 27 47  1  0  0  0
 27 48  1  0  0  0
 27 49  1  0  0  0
 28 50  1  0  0  0
 28 51  1  0  0  0
 28 52  1  0  0  0
 29 32  2  0  0  0
 29 53  1  0  0  0
 30 31  1  0  0  0
 30 54  1  0  0  0
 31 33  2  0  0  0
 31 55  1  0  0  0
 32 33  1  0  0  0
 32 56  1  0  0  0
 33 57  1  0  0  0
M  END
> <s_m_entry_id>
39322

> <s_m_entry_name>
dock_pv.78

> <s_m_Source_Path>
/home/csk/Desktop/cluster/DUD-E-result/try1

> <s_m_Source_File>
dock_pv.maegz

> <i_m_Source_File_Index>
78

> <chembl_id>
CHEMBL51338

> <chembl_pref_name>
None

> <i_lp_mmshare_version>
53161

> <r_lp_tautomer_probability>
0.999999999997365

> <s_lp_Force_Field>
OPLS_2005

> <r_lp_Energy>
18.185739

> <b_lp_Chiralities_Consistent>
1

> <s_lp_Variant>
CHEMBL209_lig987-1

> <s_i_glide_gridfile>
glide-grid_2ayw

> <i_i_glide_lignum>
1499

> <i_i_glide_rotatable_bonds>
8

> <r_i_docking_score>
-6.92209168586689

> <r_i_glide_ligand_efficiency>
-0.209760354117178

> <r_i_glide_ligand_efficiency_sa>
-0.672813536118765

> <r_i_glide_ligand_efficiency_ln>
-1.5394373502642

> <r_i_glide_gscore>
-6.92209168586689

> <r_i_glide_lipo>
-2.89351195179222

> <r_i_glide_hbond>
-0.898277419265109

> <r_i_glide_metal>
0

> <r_i_glide_rewards>
-0.153508211048818

> <r_i_glide_evdw>
-38.6209716796875

> <r_i_glide_ecoul>
-9.03879547119141

> <r_i_glide_erotb>
0.398930525361521

> <r_i_glide_esite>
-0.0888567244591826

> <r_i_glide_emodel>
-65.5334602942647

> <r_i_glide_energy>
-47.6597671508789

> <r_i_glide_einternal>
1.61546969413757

> <i_i_glide_confnum>
3

> <i_i_glide_posenum>
353

> <r_i_glide_eff_state_penalty>
0

> <s_user_duplicate_titles>
CHEMBL209_lig987

> <i_f3d_flags>
0

> <s_m_subgroup_title>
dock_pv

> <s_m_subgroupid>
dock_pv

> <b_m_subgroup_collapsed>
1

$$$$
CHEMBL209_lig1266
                    3D
 Schrodinger Suite 2021-1.
 56 58  0  0  1  0            999 V2000
   30.9550   15.7329   28.5767 N   0  0  0  0  0  0
   29.7144   15.1663   28.4360 C   0  0  0  0  0  0
   29.5358   13.9484   28.1907 N   0  0  0  0  0  0
   28.5550   16.0877   28.5839 C   0  0  0  0  0  0
   27.2428   15.6283   28.3496 C   0  0  0  0  0  0
   26.1427   16.4678   28.4818 C   0  0  0  0  0  0
   26.3177   17.8008   28.8468 C   0  0  0  0  0  0
   25.2131   18.6127   28.9529 O   0  0  0  0  0  0
   24.7862   19.0049   30.1858 C   0  0  0  0  0  0
   25.2676   18.6431   31.2640 O   0  0  0  0  0  0
   23.7063   19.9841   30.1012 C   0  0  0  0  0  0
   23.2682   20.8324   31.1058 C   0  0  0  0  0  0
   22.2439   21.6831   30.6982 C   0  0  0  0  0  0
   21.8006   21.4793   29.3911 C   0  0  0  0  0  0
   20.6701   22.1675   28.6406 C   0  0  0  0  0  0
   19.2521   21.8622   29.2172 C   0  0  0  0  0  0
   18.7705   20.4057   28.9850 C   0  0  0  0  0  0
   17.9262   20.8994   27.8023 C   0  0  0  0  0  0
   18.0928   22.3375   28.3136 C   0  0  0  0  0  0
   19.0912   22.4107   30.6647 C   0  0  0  0  0  0
   19.2840   23.6076   30.8809 O   0  0  0  0  0  0
   18.7517   21.5542   31.6441 N   0  0  0  0  0  0
   18.5644   21.8945   33.0611 C   0  0  1  0  0  0
   17.0536   21.9275   33.4454 C   0  0  0  0  0  0
   16.1329   22.5961   32.4191 C   0  0  0  0  0  0
   15.8168   23.7812   32.4602 O   0  0  0  0  0  0
   15.7165   21.7334   31.4465 O   0  0  0  0  0  0
   19.3625   20.9363   33.9802 C   0  0  0  0  0  0
   18.9531   20.5235   35.0472 O   0  0  0  0  0  0
   20.5869   20.6298   33.4510 O   0  0  0  0  0  0
   22.7756   20.2386   28.6455 S   0  0  0  0  0  0
   27.6115   18.2904   29.0614 C   0  0  0  0  0  0
   27.8150   19.5870   29.3960 F   0  0  0  0  0  0
   28.7060   17.4395   28.9449 C   0  0  0  0  0  0
   31.7381   15.1585   28.2721 H   0  0  0  0  0  0
   31.1008   16.7329   28.6413 H   0  0  0  0  0  0
   28.5670   13.6737   28.1874 H   0  0  0  0  0  0
   27.0432   14.6035   28.0685 H   0  0  0  0  0  0
   25.1538   16.0729   28.3025 H   0  0  0  0  0  0
   23.6968   20.8525   32.0981 H   0  0  0  0  0  0
   21.8096   22.4179   31.3610 H   0  0  0  0  0  0
   20.6963   21.8895   27.5861 H   0  0  0  0  0  0
   20.8411   23.2473   28.6396 H   0  0  0  0  0  0
   19.5520   19.6867   28.7318 H   0  0  0  0  0  0
   18.1705   19.9758   29.7855 H   0  0  0  0  0  0
   18.3978   20.7223   26.8344 H   0  0  0  0  0  0
   16.8985   20.5336   27.7910 H   0  0  0  0  0  0
   17.2119   22.7004   28.8505 H   0  0  0  0  0  0
   18.3626   23.0811   27.5613 H   0  0  0  0  0  0
   18.6045   20.5805   31.4143 H   0  0  0  0  0  0
   18.9914   22.8709   33.2976 H   0  0  0  0  0  0
   16.9503   22.5147   34.3603 H   0  0  0  0  0  0
   16.6745   20.9283   33.6654 H   0  0  0  0  0  0
   16.0677   20.8428   31.5563 H   0  0  0  0  0  0
   21.0695   20.0441   34.0394 H   0  0  0  0  0  0
   29.6753   17.8646   29.1504 H   0  0  0  0  0  0
  1  2  1  0  0  0
  1 35  1  0  0  0
  1 36  1  0  0  0
  2  3  2  0  0  0
  2  4  1  0  0  0
  3 37  1  0  0  0
  4  5  2  0  0  0
  4 34  1  0  0  0
  5  6  1  0  0  0
  5 38  1  0  0  0
  6  7  2  0  0  0
  6 39  1  0  0  0
  7  8  1  0  0  0
  7 32  1  0  0  0
  8  9  1  0  0  0
  9 10  2  0  0  0
  9 11  1  0  0  0
 11 12  2  0  0  0
 11 31  1  0  0  0
 12 13  1  0  0  0
 12 40  1  0  0  0
 13 14  2  0  0  0
 13 41  1  0  0  0
 14 15  1  0  0  0
 14 31  1  0  0  0
 15 16  1  0  0  0
 15 42  1  0  0  0
 15 43  1  0  0  0
 16 17  1  0  0  0
 16 19  1  0  0  0
 16 20  1  0  0  0
 17 18  1  0  0  0
 17 44  1  0  0  0
 17 45  1  0  0  0
 18 19  1  0  0  0
 18 46  1  0  0  0
 18 47  1  0  0  0
 19 48  1  0  0  0
 19 49  1  0  0  0
 20 21  2  0  0  0
 20 22  1  0  0  0
 22 23  1  0  0  0
 22 50  1  0  0  0
 23 24  1  0  0  0
 23 28  1  0  0  0
 23 51  1  0  0  0
 24 25  1  0  0  0
 24 52  1  0  0  0
 24 53  1  0  0  0
 25 26  2  0  0  0
 25 27  1  0  0  0
 27 54  1  0  0  0
 28 29  2  0  0  0
 28 30  1  0  0  0
 30 55  1  0  0  0
 32 33  1  0  0  0
 32 34  2  0  0  0
 34 56  1  0  0  0
M  END
> <s_m_entry_id>
39323

> <s_m_entry_name>
dock_pv.79

> <s_m_Source_Path>
/home/csk/Desktop/cluster/DUD-E-result/try1

> <s_m_Source_File>
dock_pv.maegz

> <i_m_Source_File_Index>
79

> <chembl_id>
CHEMBL3667879

> <chembl_pref_name>
None

> <i_lp_mmshare_version>
53161

> <r_lp_tautomer_probability>
1

> <s_lp_Force_Field>
OPLS_2005

> <r_lp_Energy>
14.030981

> <b_lp_Chiralities_Consistent>
1

> <s_lp_Variant>
CHEMBL209_lig1266-1

> <s_i_glide_gridfile>
glide-grid_2ayw

> <i_i_glide_lignum>
1907

> <i_i_glide_rotatable_bonds>
14

> <r_i_docking_score>
-6.89896516177742

> <r_i_glide_ligand_efficiency>
-0.202910740052277

> <r_i_glide_ligand_efficiency_sa>
-0.657352027306617

> <r_i_glide_ligand_efficiency_ln>
-1.52417491365482

> <r_i_glide_gscore>
-6.89896516177742

> <r_i_glide_lipo>
-2.33138947758725

> <r_i_glide_hbond>
-0.543810549038245

> <r_i_glide_metal>
0

> <r_i_glide_rewards>
-0.49257652633369

> <r_i_glide_evdw>
-40.2450065612793

> <r_i_glide_ecoul>
-15.5081901550293

> <r_i_glide_erotb>
0.927034842285887

> <r_i_glide_esite>
-0.119744599785763

> <r_i_glide_emodel>
-76.0982906210126

> <r_i_glide_energy>
-55.7531967163086

> <r_i_glide_einternal>
3.77885150909424

> <i_i_glide_confnum>
4

> <i_i_glide_posenum>
96

> <r_i_glide_eff_state_penalty>
0

> <s_user_duplicate_titles>
CHEMBL209_lig1266

> <i_f3d_flags>
0

> <s_m_subgroup_title>
dock_pv

> <s_m_subgroupid>
dock_pv

> <b_m_subgroup_collapsed>
1

$$$$
CHEMBL209_lig563
                    3D
 Schrodinger Suite 2021-1.
 49 50  0  0  1  0            999 V2000
   21.6840   21.5407   26.8152 C   0  0  0  0  0  0
   29.5202   15.2375   28.3021 C   0  0  0  0  0  0
   22.3124   21.7408   28.1570 C   0  0  0  0  0  0
   22.4870   20.6898   29.0803 C   0  0  0  0  0  0
   23.1257   20.8750   30.3153 C   0  0  0  0  0  0
   22.9588   18.7633   33.6819 C   0  0  0  0  0  0
   23.3788   19.6655   31.2255 C   0  0  2  0  0  0
   28.3735   16.1870   28.5763 C   0  0  0  0  0  0
   21.6556   22.4694   25.9661 N   0  0  0  0  0  0
   23.1178   19.9657   32.7319 C   0  0  0  0  0  0
   29.3267   14.0313   28.1869 O   0  0  0  0  0  0
   22.9523   18.9349   34.9000 O   0  0  0  0  0  0
   24.7574   18.9991   30.9616 C   0  0  0  0  0  0
   28.5749   17.5520   28.8335 C   0  0  0  0  0  0
   27.0655   15.6843   28.5907 C   0  0  0  0  0  0
   21.1518   20.2937   26.5912 N   0  0  0  0  0  0
   30.7525   15.7330   28.1917 N   0  0  0  0  0  0
   26.2103   17.8616   29.1634 C   0  0  0  0  0  0
   25.0292   18.7651   29.4635 C   0  0  0  0  0  0
   25.9941   16.5110   28.9003 C   0  0  0  0  0  0
   27.4997   18.3842   29.1271 C   0  0  0  0  0  0
   22.8148   17.5775   33.0594 O   0  0  0  0  0  0
   22.7750   23.0100   28.5535 C   0  0  0  0  0  0
   23.5666   22.1521   30.6684 C   0  0  0  0  0  0
   23.3844   23.2171   29.7919 C   0  0  0  0  0  0
   22.5615   16.3885   33.7885 C   0  0  0  0  0  0
   22.1615   19.6888   28.8311 H   0  0  0  0  0  0
   22.6281   18.9333   30.9357 H   0  0  0  0  0  0
   21.2004   22.1794   25.1149 H   0  0  0  0  0  0
   23.9129   20.5974   33.1257 H   0  0  0  0  0  0
   22.2003   20.5501   32.8160 H   0  0  0  0  0  0
   25.5570   19.6103   31.3833 H   0  0  0  0  0  0
   24.8055   18.0389   31.4775 H   0  0  0  0  0  0
   29.5540   17.9963   28.8257 H   0  0  0  0  0  0
   26.8707   14.6374   28.4061 H   0  0  0  0  0  0
   20.6134   20.1326   25.7457 H   0  0  0  0  0  0
   21.0310   19.6497   27.3595 H   0  0  0  0  0  0
   31.5002   15.1039   27.8990 H   0  0  0  0  0  0
   30.9592   16.7042   28.3823 H   0  0  0  0  0  0
   24.1460   18.3435   28.9908 H   0  0  0  0  0  0
   25.1815   19.7319   28.9837 H   0  0  0  0  0  0
   24.9984   16.0925   28.9427 H   0  0  0  0  0  0
   27.6711   19.4320   29.3272 H   0  0  0  0  0  0
   22.6673   23.8597   27.8939 H   0  0  0  0  0  0
   24.0660   22.3198   31.6115 H   0  0  0  0  0  0
   23.7299   24.2033   30.0648 H   0  0  0  0  0  0
   22.6294   15.5287   33.1228 H   0  0  0  0  0  0
   23.2839   16.2502   34.5908 H   0  0  0  0  0  0
   21.5582   16.4030   34.2153 H   0  0  0  0  0  0
  1  3  1  0  0  0
  1  9  2  0  0  0
  1 16  1  0  0  0
  2  8  1  0  0  0
  2 11  2  0  0  0
  2 17  1  0  0  0
  3  4  2  0  0  0
  3 23  1  0  0  0
  4  5  1  0  0  0
  4 27  1  0  0  0
  5  7  1  0  0  0
  5 24  2  0  0  0
  6 10  1  0  0  0
  6 12  2  0  0  0
  6 22  1  0  0  0
  7 10  1  0  0  0
  7 13  1  0  0  0
  7 28  1  0  0  0
  8 14  2  0  0  0
  8 15  1  0  0  0
  9 29  1  0  0  0
 10 30  1  0  0  0
 10 31  1  0  0  0
 13 19  1  0  0  0
 13 32  1  0  0  0
 13 33  1  0  0  0
 14 21  1  0  0  0
 14 34  1  0  0  0
 15 20  2  0  0  0
 15 35  1  0  0  0
 16 36  1  0  0  0
 16 37  1  0  0  0
 17 38  1  0  0  0
 17 39  1  0  0  0
 18 19  1  0  0  0
 18 20  1  0  0  0
 18 21  2  0  0  0
 19 40  1  0  0  0
 19 41  1  0  0  0
 20 42  1  0  0  0
 21 43  1  0  0  0
 22 26  1  0  0  0
 23 25  2  0  0  0
 23 44  1  0  0  0
 24 25  1  0  0  0
 24 45  1  0  0  0
 25 46  1  0  0  0
 26 47  1  0  0  0
 26 48  1  0  0  0
 26 49  1  0  0  0
M  END
> <s_m_entry_id>
39324

> <s_m_entry_name>
dock_pv.80

> <s_m_Source_Path>
/home/csk/Desktop/cluster/DUD-E-result/try1

> <s_m_Source_File>
dock_pv.maegz

> <i_m_Source_File_Index>
80

> <chembl_id>
CHEMBL155871

> <chembl_pref_name>
None

> <i_lp_mmshare_version>
53161

> <r_lp_tautomer_probability>
1

> <s_lp_Force_Field>
OPLS_2005

> <r_lp_Energy>
7.768351

> <b_lp_Chiralities_Consistent>
1

> <s_lp_Variant>
CHEMBL209_lig563-1

> <s_i_glide_gridfile>
glide-grid_2ayw

> <i_i_glide_lignum>
904

> <i_i_glide_rotatable_bonds>
9

> <r_i_docking_score>
-6.88934895768508

> <r_i_glide_ligand_efficiency>
-0.264974959910965

> <r_i_glide_ligand_efficiency_sa>
-0.784987276110112

> <r_i_glide_ligand_efficiency_ln>
-1.6179409969146

> <r_i_glide_gscore>
-6.88934895768508

> <r_i_glide_lipo>
-2.01782616545153

> <r_i_glide_hbond>
-0.801175071517681

> <r_i_glide_metal>
0

> <r_i_glide_rewards>
-1.45726407014798

> <r_i_glide_evdw>
-39.7134895324707

> <r_i_glide_ecoul>
-9.81372928619385

> <r_i_glide_erotb>
0.917353342845131

> <r_i_glide_esite>
-0.0727031238604057

> <r_i_glide_emodel>
-67.7517659000761

> <r_i_glide_energy>
-49.5272188186646

> <r_i_glide_einternal>
4.38988971710205

> <i_i_glide_confnum>
60

> <i_i_glide_posenum>
199

> <r_i_glide_eff_state_penalty>
0

> <s_user_duplicate_titles>
CHEMBL209_lig563

> <i_f3d_flags>
0

> <s_m_subgroup_title>
dock_pv

> <s_m_subgroupid>
dock_pv

> <b_m_subgroup_collapsed>
1

$$$$
CHEMBL209_lig1219
                    3D
 Schrodinger Suite 2021-1.
 52 53  0  0  1  0            999 V2000
   25.5447   20.7353   31.3691 C   0  0  0  0  0  0
   24.7141   19.5102   30.9235 C   0  0  1  0  0  0
   23.1902   19.8153   30.8034 C   0  0  0  0  0  0
   22.8076   21.0505   29.9964 C   0  0  0  0  0  0
   22.5479   22.3438   30.4459 C   0  0  0  0  0  0
   22.2316   23.2604   29.4378 C   0  0  0  0  0  0
   22.2560   22.7061   28.1658 C   0  0  0  0  0  0
   22.5843   21.0009   28.2658 S   0  0  0  0  0  0
   22.0234   23.3732   26.8851 C   0  0  0  0  0  0
   21.4858   24.4816   26.8075 O   0  0  0  0  0  0
   22.5137   22.6483   25.8294 O   0  0  0  0  0  0
   22.4318   23.1575   24.5523 C   0  0  0  0  0  0
   21.5530   22.5709   23.6450 C   0  0  0  0  0  0
   21.4478   23.0641   22.3451 C   0  0  0  0  0  0
   22.2016   24.1719   21.9102 C   0  0  0  0  0  0
   23.1125   24.7191   22.8353 C   0  0  0  0  0  0
   23.2416   24.2170   24.1288 C   0  0  0  0  0  0
   24.1448   24.7723   24.9706 F   0  0  0  0  0  0
   22.0635   24.7583   20.5419 C   0  0  0  0  0  0
   22.7523   25.7533   20.1916 N   0  0  0  0  0  0
   21.1530   24.1330   19.7247 N   0  0  0  0  0  0
   25.3210   18.8310   29.6760 C   0  0  0  0  0  0
   24.7530   18.8804   28.5910 O   0  0  0  0  0  0
   26.4856   18.1887   29.8290 N   0  0  0  0  0  0
   27.2194   17.5372   28.7373 C   0  0  2  0  0  0
   27.2022   16.0113   29.0201 C   0  0  0  0  0  0
   27.5095   15.1055   27.8310 C   0  0  0  0  0  0
   27.1530   15.3330   26.6824 O   0  0  0  0  0  0
   28.1831   13.9768   28.1910 O   0  0  0  0  0  0
   28.6228   18.1863   28.6633 C   0  0  0  0  0  0
   28.8579   19.3324   28.9916 O   0  0  0  0  0  0
   29.5530   17.3153   28.1910 O   0  0  0  0  0  0
   26.5851   20.4723   31.5670 H   0  0  0  0  0  0
   25.5467   21.5159   30.6085 H   0  0  0  0  0  0
   25.1427   21.1689   32.2855 H   0  0  0  0  0  0
   24.7939   18.7613   31.7142 H   0  0  0  0  0  0
   22.6976   18.9330   30.3996 H   0  0  0  0  0  0
   22.7812   19.9109   31.8102 H   0  0  0  0  0  0
   22.5955   22.6175   31.4896 H   0  0  0  0  0  0
   22.0174   24.3025   29.6287 H   0  0  0  0  0  0
   20.9454   21.7330   23.9533 H   0  0  0  0  0  0
   20.7530   22.5689   21.6849 H   0  0  0  0  0  0
   23.7431   25.5516   22.5566 H   0  0  0  0  0  0
   22.5603   26.0318   19.2422 H   0  0  0  0  0  0
   21.0110   24.4709   18.7861 H   0  0  0  0  0  0
   20.4620   23.4994   20.1092 H   0  0  0  0  0  0
   26.9470   18.2005   30.7262 H   0  0  0  0  0  0
   26.7535   17.7324   27.7693 H   0  0  0  0  0  0
   26.2224   15.7055   29.3910 H   0  0  0  0  0  0
   27.9378   15.8058   29.7910 H   0  0  0  0  0  0
   28.3530   13.8810   29.1362 H   0  0  0  0  0  0
   30.4421   17.6948   28.2764 H   0  0  0  0  0  0
  1  2  1  0  0  0
  1 33  1  0  0  0
  1 34  1  0  0  0
  1 35  1  0  0  0
  2  3  1  0  0  0
  2 22  1  0  0  0
  2 36  1  0  0  0
  3  4  1  0  0  0
  3 37  1  0  0  0
  3 38  1  0  0  0
  4  5  2  0  0  0
  4  8  1  0  0  0
  5  6  1  0  0  0
  5 39  1  0  0  0
  6  7  2  0  0  0
  6 40  1  0  0  0
  7  8  1  0  0  0
  7  9  1  0  0  0
  9 10  2  0  0  0
  9 11  1  0  0  0
 11 12  1  0  0  0
 12 13  2  0  0  0
 12 17  1  0  0  0
 13 14  1  0  0  0
 13 41  1  0  0  0
 14 15  2  0  0  0
 14 42  1  0  0  0
 15 16  1  0  0  0
 15 19  1  0  0  0
 16 17  2  0  0  0
 16 43  1  0  0  0
 17 18  1  0  0  0
 19 20  2  0  0  0
 19 21  1  0  0  0
 20 44  1  0  0  0
 21 45  1  0  0  0
 21 46  1  0  0  0
 22 23  2  0  0  0
 22 24  1  0  0  0
 24 25  1  0  0  0
 24 47  1  0  0  0
 25 26  1  0  0  0
 25 30  1  0  0  0
 25 48  1  0  0  0
 26 27  1  0  0  0
 26 49  1  0  0  0
 26 50  1  0  0  0
 27 28  2  0  0  0
 27 29  1  0  0  0
 29 51  1  0  0  0
 30 31  2  0  0  0
 30 32  1  0  0  0
 32 52  1  0  0  0
M  END
> <s_m_entry_id>
39325

> <s_m_entry_name>
dock_pv.81

> <s_m_Source_Path>
/home/csk/Desktop/cluster/DUD-E-result/try1

> <s_m_Source_File>
dock_pv.maegz

> <i_m_Source_File_Index>
81

> <chembl_id>
CHEMBL3642904

> <chembl_pref_name>
None

> <i_lp_mmshare_version>
53161

> <r_lp_tautomer_probability>
1

> <s_lp_Force_Field>
OPLS_2005

> <r_lp_Energy>
1.170608

> <b_lp_Chiralities_Consistent>
1

> <s_lp_Variant>
CHEMBL209_lig1219-2

> <s_i_glide_gridfile>
glide-grid_2ayw

> <i_i_glide_lignum>
1836

> <i_i_glide_rotatable_bonds>
14

> <r_i_docking_score>
-6.87819163431555

> <r_i_glide_ligand_efficiency>
-0.214943488572361

> <r_i_glide_ligand_efficiency_sa>
-0.682403038958618

> <r_i_glide_ligand_efficiency_ln>
-1.54021459934596

> <r_i_glide_gscore>
-6.87819163431555

> <r_i_glide_lipo>
-1.77877722366484

> <r_i_glide_hbond>
-0.454498141701453

> <r_i_glide_metal>
0

> <r_i_glide_rewards>
-1.2394207625119

> <r_i_glide_evdw>
-42.6259956359863

> <r_i_glide_ecoul>
-15.206976890564

> <r_i_glide_erotb>
1.02396767747906

> <r_i_glide_esite>
-0.0171168685325041

> <r_i_glide_emodel>
-74.4135073717858

> <r_i_glide_energy>
-57.8329725265503

> <r_i_glide_einternal>
12.5672235488892

> <i_i_glide_confnum>
25

> <i_i_glide_posenum>
159

> <r_i_glide_eff_state_penalty>
0

> <s_user_duplicate_titles>
CHEMBL209_lig1219

> <i_f3d_flags>
0

> <s_m_subgroup_title>
dock_pv

> <s_m_subgroupid>
dock_pv

> <b_m_subgroup_collapsed>
1

$$$$
CHEMBL209_lig910
                    3D
 Schrodinger Suite 2021-1.
 48 50  0  0  1  0            999 V2000
   30.0617   14.8590   28.1910 N   0  0  0  0  0  0
   28.2623   16.0659   28.5910 C   0  0  0  0  0  0
   23.5566   25.6749   24.8061 C   0  0  0  0  0  0
   24.7810   20.3297   30.4675 C   0  0  0  0  0  0
   22.9251   24.3836   25.2094 C   0  0  0  0  0  0
   27.8356   14.8320   28.3547 N   0  0  0  0  0  0
   23.2180   23.7371   26.4269 C   0  0  0  0  0  0
   28.9203   14.1154   28.1910 C   0  0  0  0  0  0
   22.6462   22.5077   26.7760 C   0  0  0  0  0  0
   29.6424   16.1330   28.4269 C   0  0  0  0  0  0
   27.3436   17.1543   29.0401 C   0  0  0  0  0  0
   25.6685   19.1866   30.0240 C   0  0  0  0  0  0
   23.1531   26.3069   23.7938 N   0  0  0  0  0  0
   21.7346   21.9042   25.9005 C   0  0  0  0  0  0
   25.2706   21.4322   30.7220 O   0  0  0  0  0  0
   21.9979   23.7506   24.3627 C   0  0  0  0  0  0
   27.0480   19.3969   29.8887 C   0  0  0  0  0  0
   25.1451   17.9313   29.6853 C   0  0  0  0  0  0
   27.8759   18.3941   29.3998 C   0  0  0  0  0  0
   25.9703   16.9330   29.1812 C   0  0  0  0  0  0
   21.4133   22.5330   24.7008 C   0  0  0  0  0  0
   23.4491   20.1226   30.4532 N   0  0  0  0  0  0
   24.5838   26.0945   25.6163 N   0  0  0  0  0  0
   21.1530   20.6962   26.1910 O   0  0  0  0  0  0
   23.0808   21.8326   28.0742 C   0  0  0  0  0  0
   22.4427   21.1869   30.5276 C   0  0  0  0  0  0
   21.9675   21.6862   29.1399 C   0  0  0  0  0  0
   31.0123   14.5363   28.0305 H   0  0  0  0  0  0
   23.9179   24.1784   27.1212 H   0  0  0  0  0  0
   28.9777   13.0455   28.0538 H   0  0  0  0  0  0
   30.3530   16.9330   28.5073 H   0  0  0  0  0  0
   23.6710   27.1590   23.6486 H   0  0  0  0  0  0
   21.7287   24.1949   23.4142 H   0  0  0  0  0  0
   27.4932   20.3480   30.1457 H   0  0  0  0  0  0
   24.0943   17.7064   29.7910 H   0  0  0  0  0  0
   28.9354   18.5869   29.3148 H   0  0  0  0  0  0
   25.5344   15.9770   28.9278 H   0  0  0  0  0  0
   20.7224   22.0768   24.0101 H   0  0  0  0  0  0
   23.1030   19.1770   30.3841 H   0  0  0  0  0  0
   25.0680   26.9541   25.4112 H   0  0  0  0  0  0
   24.9824   25.4703   26.3002 H   0  0  0  0  0  0
   20.4821   20.4499   25.5379 H   0  0  0  0  0  0
   23.4798   20.8506   27.8152 H   0  0  0  0  0  0
   23.9168   22.3861   28.5044 H   0  0  0  0  0  0
   22.8203   22.0290   31.1126 H   0  0  0  0  0  0
   21.5910   20.7880   31.0801 H   0  0  0  0  0  0
   21.4598   22.6427   29.2710 H   0  0  0  0  0  0
   21.2051   20.9997   28.7707 H   0  0  0  0  0  0
  1  8  1  0  0  0
  1 10  1  0  0  0
  1 28  1  0  0  0
  2 10  2  0  0  0
  2 11  1  0  0  0
  2  6  1  0  0  0
  3  5  1  0  0  0
  3 13  2  0  0  0
  3 23  1  0  0  0
  4 12  1  0  0  0
  4 15  2  0  0  0
  4 22  1  0  0  0
  5  7  2  0  0  0
  5 16  1  0  0  0
  6  8  2  0  0  0
  7  9  1  0  0  0
  7 29  1  0  0  0
  8 30  1  0  0  0
  9 25  1  0  0  0
  9 14  2  0  0  0
 10 31  1  0  0  0
 11 19  2  0  0  0
 11 20  1  0  0  0
 12 18  1  0  0  0
 12 17  2  0  0  0
 13 32  1  0  0  0
 14 21  1  0  0  0
 14 24  1  0  0  0
 16 21  2  0  0  0
 16 33  1  0  0  0
 17 19  1  0  0  0
 17 34  1  0  0  0
 18 20  2  0  0  0
 18 35  1  0  0  0
 19 36  1  0  0  0
 20 37  1  0  0  0
 21 38  1  0  0  0
 22 26  1  0  0  0
 22 39  1  0  0  0
 23 40  1  0  0  0
 23 41  1  0  0  0
 24 42  1  0  0  0
 25 27  1  0  0  0
 25 43  1  0  0  0
 25 44  1  0  0  0
 26 27  1  0  0  0
 26 45  1  0  0  0
 26 46  1  0  0  0
 27 47  1  0  0  0
 27 48  1  0  0  0
M  END
> <s_m_entry_id>
39326

> <s_m_entry_name>
dock_pv.82

> <s_m_Source_Path>
/home/csk/Desktop/cluster/DUD-E-result/try1

> <s_m_Source_File>
dock_pv.maegz

> <i_m_Source_File_Index>
82

> <chembl_id>
CHEMBL303211

> <chembl_pref_name>
None

> <i_lp_mmshare_version>
53161

> <r_lp_tautomer_probability>
0.499999999999999

> <s_lp_Force_Field>
OPLS_2005

> <r_lp_Energy>
12.871629

> <b_lp_Chiralities_Consistent>
1

> <s_lp_Variant>
CHEMBL209_lig910-1

> <s_i_glide_gridfile>
glide-grid_2ayw

> <i_i_glide_lignum>
1355

> <i_i_glide_rotatable_bonds>
9

> <r_i_docking_score>
-6.86558786422613

> <r_i_glide_ligand_efficiency>
-0.254281032008375

> <r_i_glide_ligand_efficiency_sa>
-0.762843095187057

> <r_i_glide_ligand_efficiency_ln>
-1.59819566672977

> <r_i_glide_gscore>
-6.86558786422613

> <r_i_glide_lipo>
-2.31305545630408

> <r_i_glide_hbond>
-0.685173867187292

> <r_i_glide_metal>
0

> <r_i_glide_rewards>
-0.927201119807043

> <r_i_glide_evdw>
-35.2970581054688

> <r_i_glide_ecoul>
-13.6240167617798

> <r_i_glide_erotb>
1.01834601324262

> <r_i_glide_esite>
-0.150048014629927

> <r_i_glide_emodel>
-66.7851365542

> <r_i_glide_energy>
-48.9210748672485

> <r_i_glide_einternal>
3.8887574672699

> <i_i_glide_confnum>
18

> <i_i_glide_posenum>
139

> <r_i_glide_eff_state_penalty>
0

> <s_user_duplicate_titles>
CHEMBL209_lig910

> <i_f3d_flags>
0

> <s_m_subgroup_title>
dock_pv

> <s_m_subgroupid>
dock_pv

> <b_m_subgroup_collapsed>
1

$$$$
CHEMBL209_lig860
                    3D
 Schrodinger Suite 2021-1.
 23 24  0  0  1  0            999 V2000
   25.0517   19.6791   30.2819 C   0  0  0  0  0  0
   26.1516   18.7913   29.8205 C   0  0  0  0  0  0
   25.9025   17.4777   29.3911 C   0  0  0  0  0  0
   25.1535   20.9328   30.1933 N   0  0  0  0  0  0
   26.9481   16.6254   28.9696 C   0  0  0  0  0  0
   27.4796   19.2491   29.7912 C   0  0  0  0  0  0
   28.2882   17.1097   28.9691 C   0  0  0  0  0  0
   28.5339   18.4384   29.3773 C   0  0  0  0  0  0
   23.9597   19.0122   30.7916 N   0  0  0  0  0  0
   26.6913   15.2954   28.5671 C   0  0  0  0  0  0
   29.3318   16.2378   28.5697 C   0  0  0  0  0  0
   27.7396   14.4617   28.1909 C   0  0  0  0  0  0
   29.0506   14.9284   28.1905 C   0  0  0  0  0  0
   24.8977   17.0779   29.3792 H   0  0  0  0  0  0
   24.3274   21.3924   30.5495 H   0  0  0  0  0  0
   27.7129   20.2570   30.1045 H   0  0  0  0  0  0
   29.5509   18.8076   29.3775 H   0  0  0  0  0  0
   23.1504   19.5163   31.1203 H   0  0  0  0  0  0
   23.9740   18.0079   30.9044 H   0  0  0  0  0  0
   25.6773   14.9239   28.5821 H   0  0  0  0  0  0
   30.3531   16.5893   28.5663 H   0  0  0  0  0  0
   27.5348   13.4375   27.9120 H   0  0  0  0  0  0
   29.8590   14.2701   27.8988 H   0  0  0  0  0  0
  1  2  1  0  0  0
  1  4  2  0  0  0
  1  9  1  0  0  0
  2  3  2  0  0  0
  2  6  1  0  0  0
  3  5  1  0  0  0
  3 14  1  0  0  0
  4 15  1  0  0  0
  5 10  2  0  0  0
  5  7  1  0  0  0
  6  8  2  0  0  0
  6 16  1  0  0  0
  7  8  1  0  0  0
  7 11  2  0  0  0
  8 17  1  0  0  0
  9 18  1  0  0  0
  9 19  1  0  0  0
 10 12  1  0  0  0
 10 20  1  0  0  0
 11 13  1  0  0  0
 11 21  1  0  0  0
 12 13  2  0  0  0
 12 22  1  0  0  0
 13 23  1  0  0  0
M  END
> <s_m_entry_id>
39327

> <s_m_entry_name>
dock_pv.83

> <s_m_Source_Path>
/home/csk/Desktop/cluster/DUD-E-result/try1

> <s_m_Source_File>
dock_pv.maegz

> <i_m_Source_File_Index>
83

> <chembl_id>
CHEMBL105171

> <chembl_pref_name>
None

> <i_lp_mmshare_version>
53161

> <r_lp_tautomer_probability>
1

> <s_lp_Force_Field>
OPLS_2005

> <r_lp_Energy>
6.051195

> <b_lp_Chiralities_Consistent>
1

> <s_lp_Variant>
CHEMBL209_lig860-1

> <s_i_glide_gridfile>
glide-grid_2ayw

> <i_i_glide_lignum>
1301

> <i_i_glide_rotatable_bonds>
1

> <r_i_docking_score>
-6.86453322348324

> <r_i_glide_ligand_efficiency>
-0.528041017191019

> <r_i_glide_ligand_efficiency_sa>
-1.24160115919905

> <r_i_glide_ligand_efficiency_ln>
-1.92556261959671

> <r_i_glide_gscore>
-6.86453322348324

> <r_i_glide_lipo>
-2.04186608715507

> <r_i_glide_hbond>
-0.32

> <r_i_glide_metal>
0

> <r_i_glide_rewards>
-2.24856477272727

> <r_i_glide_evdw>
-24.2660942077637

> <r_i_glide_ecoul>
-6.72872638702393

> <r_i_glide_erotb>
0

> <r_i_glide_esite>
-0.0314886951591215

> <r_i_glide_emodel>
-43.7501952013029

> <r_i_glide_energy>
-30.9948205947876

> <r_i_glide_einternal>
0.475651681423187

> <i_i_glide_confnum>
1

> <i_i_glide_posenum>
300

> <r_i_glide_eff_state_penalty>
0

> <s_user_duplicate_titles>
CHEMBL209_lig860

> <i_f3d_flags>
0

> <s_m_subgroup_title>
dock_pv

> <s_m_subgroupid>
dock_pv

> <b_m_subgroup_collapsed>
1

$$$$
CHEMBL209_lig1252
                    3D
 Schrodinger Suite 2021-1.
 52 53  0  0  1  0            999 V2000
   18.7874   20.9685   27.2365 C   0  0  0  0  0  0
   20.2380   20.7133   27.7132 C   0  0  2  0  0  0
   20.4369   21.3477   29.1214 C   0  0  0  0  0  0
   21.8332   21.3034   29.7228 C   0  0  0  0  0  0
   22.3750   22.3302   30.4884 C   0  0  0  0  0  0
   23.9751   22.0087   31.0571 S   0  0  0  0  0  0
   23.9773   20.4758   30.2405 C   0  0  0  0  0  0
   22.7517   20.2444   29.6167 C   0  0  0  0  0  0
   25.1743   19.6433   30.2744 C   0  0  0  0  0  0
   26.0895   19.7889   31.0904 O   0  0  0  0  0  0
   25.1510   18.7413   29.2472 O   0  0  0  0  0  0
   26.2285   17.9174   28.9958 C   0  0  0  0  0  0
   27.5254   18.4125   28.8293 C   0  0  0  0  0  0
   28.5818   17.5429   28.5883 C   0  0  0  0  0  0
   28.3773   16.1562   28.4845 C   0  0  0  0  0  0
   27.0536   15.6886   28.5910 C   0  0  0  0  0  0
   25.9973   16.5524   28.8604 C   0  0  0  0  0  0
   29.4968   15.1930   28.2795 C   0  0  0  0  0  0
   29.2722   13.9627   28.1909 N   0  0  0  0  0  0
   30.7531   15.7330   28.1910 N   0  0  0  0  0  0
   21.3126   21.1029   26.6640 C   0  0  0  0  0  0
   22.3529   20.4470   26.5911 O   0  0  0  0  0  0
   21.0554   22.1426   25.8507 N   0  0  0  0  0  0
   21.9396   22.6369   24.7896 C   0  0  1  0  0  0
   21.1318   22.6521   23.4624 C   0  0  0  0  0  0
   21.9308   23.0124   22.2104 C   0  0  0  0  0  0
   23.1529   23.0934   22.1915 O   0  0  0  0  0  0
   21.1531   23.1857   21.1002 O   0  0  0  0  0  0
   22.5085   24.0112   25.2022 C   0  0  0  0  0  0
   22.1433   25.0728   24.7424 O   0  0  0  0  0  0
   23.4758   23.8525   26.1484 O   0  0  0  0  0  0
   18.6061   20.5339   26.2559 H   0  0  0  0  0  0
   18.0651   20.5183   27.9193 H   0  0  0  0  0  0
   18.5577   22.0326   27.1683 H   0  0  0  0  0  0
   20.3266   19.6295   27.8177 H   0  0  0  0  0  0
   20.1077   22.3876   29.0797 H   0  0  0  0  0  0
   19.7521   20.8568   29.8147 H   0  0  0  0  0  0
   21.8990   23.2632   30.7510 H   0  0  0  0  0  0
   22.5323   19.3372   29.0721 H   0  0  0  0  0  0
   27.7211   19.4708   28.9141 H   0  0  0  0  0  0
   29.5618   17.9783   28.4920 H   0  0  0  0  0  0
   26.8323   14.6329   28.5141 H   0  0  0  0  0  0
   25.0010   16.1535   28.9869 H   0  0  0  0  0  0
   30.1319   13.4576   28.0240 H   0  0  0  0  0  0
   31.5209   15.1494   27.8603 H   0  0  0  0  0  0
   30.9426   16.7082   28.3859 H   0  0  0  0  0  0
   20.1924   22.6485   25.9730 H   0  0  0  0  0  0
   22.7780   21.9507   24.6555 H   0  0  0  0  0  0
   20.2840   23.3325   23.5478 H   0  0  0  0  0  0
   20.7530   21.6526   23.2766 H   0  0  0  0  0  0
   20.2001   23.0342   21.1710 H   0  0  0  0  0  0
   23.8514   24.7023   26.3865 H   0  0  0  0  0  0
  1  2  1  0  0  0
  1 32  1  0  0  0
  1 33  1  0  0  0
  1 34  1  0  0  0
  2  3  1  0  0  0
  2 21  1  0  0  0
  2 35  1  0  0  0
  3  4  1  0  0  0
  3 36  1  0  0  0
  3 37  1  0  0  0
  4  5  2  0  0  0
  4  8  1  0  0  0
  5  6  1  0  0  0
  5 38  1  0  0  0
  6  7  1  0  0  0
  7  8  2  0  0  0
  7  9  1  0  0  0
  8 39  1  0  0  0
  9 10  2  0  0  0
  9 11  1  0  0  0
 11 12  1  0  0  0
 12 13  2  0  0  0
 12 17  1  0  0  0
 13 14  1  0  0  0
 13 40  1  0  0  0
 14 15  2  0  0  0
 14 41  1  0  0  0
 15 16  1  0  0  0
 15 18  1  0  0  0
 16 17  2  0  0  0
 16 42  1  0  0  0
 17 43  1  0  0  0
 18 19  2  0  0  0
 18 20  1  0  0  0
 19 44  1  0  0  0
 20 45  1  0  0  0
 20 46  1  0  0  0
 21 22  2  0  0  0
 21 23  1  0  0  0
 23 24  1  0  0  0
 23 47  1  0  0  0
 24 25  1  0  0  0
 24 29  1  0  0  0
 24 48  1  0  0  0
 25 26  1  0  0  0
 25 49  1  0  0  0
 25 50  1  0  0  0
 26 27  2  0  0  0
 26 28  1  0  0  0
 28 51  1  0  0  0
 29 30  2  0  0  0
 29 31  1  0  0  0
 31 52  1  0  0  0
M  END
> <s_m_entry_id>
39328

> <s_m_entry_name>
dock_pv.84

> <s_m_Source_Path>
/home/csk/Desktop/cluster/DUD-E-result/try1

> <s_m_Source_File>
dock_pv.maegz

> <i_m_Source_File_Index>
84

> <chembl_id>
CHEMBL3642971

> <chembl_pref_name>
None

> <i_lp_mmshare_version>
53161

> <r_lp_tautomer_probability>
1

> <s_lp_Force_Field>
OPLS_2005

> <r_lp_Energy>
4.502495

> <b_lp_Chiralities_Consistent>
1

> <s_lp_Variant>
CHEMBL209_lig1252-1

> <s_i_glide_gridfile>
glide-grid_2ayw

> <i_i_glide_lignum>
1891

> <i_i_glide_rotatable_bonds>
14

> <r_i_docking_score>
-6.86364362306545

> <r_i_glide_ligand_efficiency>
-0.221407858808563

> <r_i_glide_ligand_efficiency_sa>
-0.695526363152482

> <r_i_glide_ligand_efficiency_ln>
-1.54796198241678

> <r_i_glide_gscore>
-6.86364362306545

> <r_i_glide_lipo>
-2.30787530633167

> <r_i_glide_hbond>
-0.709583195109859

> <r_i_glide_metal>
0

> <r_i_glide_rewards>
-0.383846098376631

> <r_i_glide_evdw>
-45.0256500244141

> <r_i_glide_ecoul>
-14.8920211791992

> <r_i_glide_erotb>
1.1001388501149

> <r_i_glide_esite>
-0.0773921952615982

> <r_i_glide_emodel>
-76.2565986424813

> <r_i_glide_energy>
-59.9176712036133

> <r_i_glide_einternal>
11.3219814300537

> <i_i_glide_confnum>
18

> <i_i_glide_posenum>
84

> <r_i_glide_eff_state_penalty>
0

> <s_user_duplicate_titles>
CHEMBL209_lig1252

> <i_f3d_flags>
0

> <s_m_subgroup_title>
dock_pv

> <s_m_subgroupid>
dock_pv

> <b_m_subgroup_collapsed>
1

$$$$
CHEMBL209_lig1032
                    3D
 Schrodinger Suite 2021-1.
 59 61  0  0  1  0            999 V2000
   25.0009   19.8457   32.5715 C   0  0  1  0  0  0
   17.8113   24.4654   26.6693 N   0  3  0  0  0  0
   23.5665   19.7172   29.4104 C   0  0  0  0  0  0
   23.2660   19.4721   30.6995 N   0  0  0  0  0  0
   25.0735   21.3227   32.0990 C   0  0  0  0  0  0
   24.1825   18.8523   31.6681 C   0  0  2  0  0  0
   28.4114   17.0187   28.9439 C   0  0  0  0  0  0
   18.6065   23.5063   27.1867 C   0  0  0  0  0  0
   28.3645   18.1873   29.8675 C   0  0  0  0  0  0
   26.3976   19.2881   32.9848 C   0  0  0  0  0  0
   22.6171   20.6233   28.6931 C   0  0  0  0  0  0
   19.9518   23.4082   26.7968 C   0  0  0  0  0  0
   16.5976   24.5041   27.0089 O   0  5  0  0  0  0
   27.4653   16.1907   28.8938 N   0  0  0  0  0  0
   20.8739   22.4106   27.4151 C   0  0  0  0  0  0
   24.5961   19.3328   28.8575 O   0  0  0  0  0  0
   27.5064   18.1893   30.9806 C   0  0  0  0  0  0
   25.5159   21.6423   30.9910 O   0  0  0  0  0  0
   27.4314   19.2741   31.8582 C   0  0  0  0  0  0
   23.1087   21.8054   28.1418 C   0  0  0  0  0  0
   21.2595   20.3121   28.5799 C   0  0  0  0  0  0
   20.3996   21.1946   27.9313 C   0  0  0  0  0  0
   22.2412   22.6967   27.5265 C   0  0  0  0  0  0
   29.5530   16.9320   28.1913 N   0  0  0  0  0  0
   24.6000   22.1839   33.0244 O   0  0  0  0  0  0
   18.2632   25.3790   25.7911 C   0  0  0  0  0  0
   29.1530   19.3347   29.6701 C   0  0  0  0  0  0
   20.4100   24.3177   25.8284 C   0  0  0  0  0  0
   19.5739   25.3136   25.3308 C   0  0  0  0  0  0
   29.1243   20.4048   30.5624 C   0  0  0  0  0  0
   23.4695   17.7596   32.4832 C   0  0  0  0  0  0
   28.2741   20.3713   31.6617 C   0  0  0  0  0  0
   24.5753   23.5787   32.7636 C   0  0  0  0  0  0
   24.4212   19.9156   33.4931 H   0  0  0  0  0  0
   22.3488   19.7188   31.0349 H   0  0  0  0  0  0
   24.9037   18.3048   31.0627 H   0  0  0  0  0  0
   18.1355   22.8637   27.9158 H   0  0  0  0  0  0
   26.2977   18.2739   33.3765 H   0  0  0  0  0  0
   26.7935   19.8541   33.8299 H   0  0  0  0  0  0
   27.6454   15.4543   28.2315 H   0  0  0  0  0  0
   26.8711   17.3359   31.1591 H   0  0  0  0  0  0
   24.1569   22.0596   28.2237 H   0  0  0  0  0  0
   20.8683   19.3907   28.9898 H   0  0  0  0  0  0
   19.3560   20.9289   27.8478 H   0  0  0  0  0  0
   22.6510   23.6242   27.1589 H   0  0  0  0  0  0
   29.6927   16.1540   27.5610 H   0  0  0  0  0  0
   30.3800   17.4599   28.4655 H   0  0  0  0  0  0
   17.5532   26.1153   25.4456 H   0  0  0  0  0  0
   29.8106   19.4128   28.8165 H   0  0  0  0  0  0
   21.4266   24.2734   25.4663 H   0  0  0  0  0  0
   19.9411   26.0223   24.6006 H   0  0  0  0  0  0
   29.7476   21.2715   30.3884 H   0  0  0  0  0  0
   24.1275   17.3302   33.2379 H   0  0  0  0  0  0
   22.5976   18.1497   33.0082 H   0  0  0  0  0  0
   23.1533   16.9340   31.8458 H   0  0  0  0  0  0
   28.2344   21.2175   32.3308 H   0  0  0  0  0  0
   24.1713   24.1118   33.6232 H   0  0  0  0  0  0
   25.5790   23.9598   32.5696 H   0  0  0  0  0  0
   23.9475   23.8040   31.9003 H   0  0  0  0  0  0
  1  5  1  0  0  0
  1  6  1  0  0  0
  1 10  1  0  0  0
  1 34  1  0  0  0
  2  8  2  0  0  0
  2 13  1  0  0  0
  2 26  1  0  0  0
  3  4  1  0  0  0
  3 11  1  0  0  0
  3 16  2  0  0  0
  4  6  1  0  0  0
  4 35  1  0  0  0
  5 18  2  0  0  0
  5 25  1  0  0  0
  6 31  1  0  0  0
  6 36  1  0  0  0
  7  9  1  0  0  0
  7 14  2  0  0  0
  7 24  1  0  0  0
  8 12  1  0  0  0
  8 37  1  0  0  0
  9 17  1  0  0  0
  9 27  2  0  0  0
 10 19  1  0  0  0
 10 38  1  0  0  0
 10 39  1  0  0  0
 11 20  2  0  0  0
 11 21  1  0  0  0
 12 15  1  0  0  0
 12 28  2  0  0  0
 14 40  1  0  0  0
 15 22  1  0  0  0
 15 23  2  0  0  0
 17 19  2  0  0  0
 17 41  1  0  0  0
 19 32  1  0  0  0
 20 23  1  0  0  0
 20 42  1  0  0  0
 21 22  2  0  0  0
 21 43  1  0  0  0
 22 44  1  0  0  0
 23 45  1  0  0  0
 24 46  1  0  0  0
 24 47  1  0  0  0
 25 33  1  0  0  0
 26 29  2  0  0  0
 26 48  1  0  0  0
 27 30  1  0  0  0
 27 49  1  0  0  0
 28 29  1  0  0  0
 28 50  1  0  0  0
 29 51  1  0  0  0
 30 32  2  0  0  0
 30 52  1  0  0  0
 31 53  1  0  0  0
 31 54  1  0  0  0
 31 55  1  0  0  0
 32 56  1  0  0  0
 33 57  1  0  0  0
 33 58  1  0  0  0
 33 59  1  0  0  0
M  CHG  2   2   1  13  -1
M  END
> <s_m_entry_id>
39329

> <s_m_entry_name>
dock_pv.85

> <s_m_Source_Path>
/home/csk/Desktop/cluster/DUD-E-result/try1

> <s_m_Source_File>
dock_pv.maegz

> <i_m_Source_File_Index>
85

> <chembl_id>
CHEMBL46969

> <chembl_pref_name>
None

> <i_lp_mmshare_version>
53161

> <r_lp_tautomer_probability>
1

> <s_lp_Force_Field>
OPLS_2005

> <r_lp_Energy>
17.104946

> <b_lp_Chiralities_Consistent>
1

> <s_lp_Variant>
CHEMBL209_lig1032-1

> <s_i_glide_gridfile>
glide-grid_2ayw

> <i_i_glide_lignum>
1563

> <i_i_glide_rotatable_bonds>
10

> <r_i_docking_score>
-6.85840081460054

> <r_i_glide_ligand_efficiency>
-0.207830327715168

> <r_i_glide_ligand_efficiency_sa>
-0.666622910183734

> <r_i_glide_ligand_efficiency_ln>
-1.52527283026825

> <r_i_glide_gscore>
-6.85840081460054

> <r_i_glide_lipo>
-1.43370847202385

> <r_i_glide_hbond>
-0.808

> <r_i_glide_metal>
0

> <r_i_glide_rewards>
-1.06547103815605

> <r_i_glide_evdw>
-35.5404167175293

> <r_i_glide_ecoul>
-16.8902454376221

> <r_i_glide_erotb>
0.803243788165479

> <r_i_glide_esite>
-0.0439074410663474

> <r_i_glide_emodel>
-67.9370055063751

> <r_i_glide_energy>
-52.4306621551514

> <r_i_glide_einternal>
11.812237739563

> <i_i_glide_confnum>
27

> <i_i_glide_posenum>
336

> <r_i_glide_eff_state_penalty>
0

> <s_user_duplicate_titles>
CHEMBL209_lig1032,67065

> <i_f3d_flags>
0

> <s_m_subgroup_title>
dock_pv

> <s_m_subgroupid>
dock_pv

> <b_m_subgroup_collapsed>
1

$$$$
CHEMBL209_lig852
                    3D
 Schrodinger Suite 2021-1.
 48 51  0  0  1  0            999 V2000
   27.6327   18.2067   29.6473 C   0  0  0  0  0  0
   27.7293   19.4716   30.3278 C   0  0  0  0  0  0
   24.0746   20.6192   30.4504 C   0  0  0  0  0  0
   25.2990   19.7662   30.1911 C   0  0  0  0  0  0
   26.5631   20.2027   30.5908 C   0  0  0  0  0  0
   28.7446   17.3644   29.3306 C   0  0  0  0  0  0
   26.3338   17.7503   29.2641 C   0  0  0  0  0  0
   29.7476   15.2567   28.3070 C   0  0  0  0  0  0
   28.5983   16.1454   28.6423 C   0  0  0  0  0  0
   23.0412   20.4031   29.6052 N   0  0  0  0  0  0
   25.1945   18.5276   29.5559 C   0  0  0  0  0  0
   29.5530   14.1327   27.7910 N   0  0  0  0  0  0
   24.0861   21.4643   31.3456 O   0  0  0  0  0  0
   26.1900   16.5212   28.5913 C   0  0  0  0  0  0
   29.0798   20.0676   30.7730 C   0  0  1  0  0  0
   27.3001   15.7555   28.2838 C   0  0  0  0  0  0
   28.9561   22.3585   31.3174 O   0  0  0  0  0  0
   30.9993   15.7330   28.5908 N   0  0  0  0  0  0
   21.7340   20.9219   29.6055 C   0  0  0  0  0  0
   29.3150   21.4945   30.2504 C   0  0  0  0  0  0
   29.3744   21.7394   32.5244 C   0  0  0  0  0  0
   29.1826   20.2398   32.2914 C   0  0  0  0  0  0
   20.9280   20.5301   28.5319 C   0  0  0  0  0  0
   21.1964   21.7318   30.6182 C   0  0  0  0  0  0
   19.8646   22.1350   30.5502 C   0  0  0  0  0  0
   19.5973   20.9331   28.4674 C   0  0  0  0  0  0
   19.0707   21.7322   29.4785 C   0  0  0  0  0  0
   26.6542   21.1487   31.1069 H   0  0  0  0  0  0
   29.7297   17.6602   29.6418 H   0  0  0  0  0  0
   23.2174   19.7355   28.8731 H   0  0  0  0  0  0
   24.2325   18.1318   29.2694 H   0  0  0  0  0  0
   30.4327   13.6714   27.5870 H   0  0  0  0  0  0
   25.2057   16.1729   28.3101 H   0  0  0  0  0  0
   29.9398   19.5060   30.4196 H   0  0  0  0  0  0
   27.1268   14.8228   27.7651 H   0  0  0  0  0  0
   31.7872   15.1987   28.2290 H   0  0  0  0  0  0
   31.1538   16.7198   28.7723 H   0  0  0  0  0  0
   28.7523   21.7297   29.3487 H   0  0  0  0  0  0
   30.3530   21.6866   29.9801 H   0  0  0  0  0  0
   30.4130   22.0077   32.7262 H   0  0  0  0  0  0
   28.7908   22.1151   33.3657 H   0  0  0  0  0  0
   30.0563   19.7328   32.7007 H   0  0  0  0  0  0
   28.2857   19.9076   32.8175 H   0  0  0  0  0  0
   21.3171   19.8954   27.7486 H   0  0  0  0  0  0
   21.7773   22.0424   31.4721 H   0  0  0  0  0  0
   19.4452   22.7491   31.3334 H   0  0  0  0  0  0
   18.9756   20.6170   27.6418 H   0  0  0  0  0  0
   18.0353   22.0368   29.4359 H   0  0  0  0  0  0
  1  2  2  0  0  0
  1  6  1  0  0  0
  1  7  1  0  0  0
  2  5  1  0  0  0
  2 15  1  0  0  0
  3  4  1  0  0  0
  3 10  1  0  0  0
  3 13  2  0  0  0
  4 11  1  0  0  0
  4  5  2  0  0  0
  5 28  1  0  0  0
  6  9  2  0  0  0
  6 29  1  0  0  0
  7 11  2  0  0  0
  7 14  1  0  0  0
  8  9  1  0  0  0
  8 12  2  0  0  0
  8 18  1  0  0  0
  9 16  1  0  0  0
 10 19  1  0  0  0
 10 30  1  0  0  0
 11 31  1  0  0  0
 12 32  1  0  0  0
 14 16  2  0  0  0
 14 33  1  0  0  0
 15 20  1  0  0  0
 15 22  1  0  0  0
 15 34  1  0  0  0
 16 35  1  0  0  0
 17 20  1  0  0  0
 17 21  1  0  0  0
 18 36  1  0  0  0
 18 37  1  0  0  0
 19 23  2  0  0  0
 19 24  1  0  0  0
 20 38  1  0  0  0
 20 39  1  0  0  0
 21 22  1  0  0  0
 21 40  1  0  0  0
 21 41  1  0  0  0
 22 42  1  0  0  0
 22 43  1  0  0  0
 23 26  1  0  0  0
 23 44  1  0  0  0
 24 25  2  0  0  0
 24 45  1  0  0  0
 25 27  1  0  0  0
 25 46  1  0  0  0
 26 27  2  0  0  0
 26 47  1  0  0  0
 27 48  1  0  0  0
M  END
> <s_m_entry_id>
39330

> <s_m_entry_name>
dock_pv.86

> <s_m_Source_Path>
/home/csk/Desktop/cluster/DUD-E-result/try1

> <s_m_Source_File>
dock_pv.maegz

> <i_m_Source_File_Index>
86

> <chembl_id>
CHEMBL105395

> <chembl_pref_name>
None

> <i_lp_mmshare_version>
53161

> <r_lp_tautomer_probability>
1

> <s_lp_Force_Field>
OPLS_2005

> <r_lp_Energy>
33.982922

> <b_lp_Chiralities_Consistent>
1

> <s_lp_Variant>
CHEMBL209_lig852-2

> <s_i_glide_gridfile>
glide-grid_2ayw

> <i_i_glide_lignum>
1293

> <i_i_glide_rotatable_bonds>
5

> <r_i_docking_score>
-6.84117104521608

> <r_i_glide_ligand_efficiency>
-0.253376705378373

> <r_i_glide_ligand_efficiency_sa>
-0.760130115300031

> <r_i_glide_ligand_efficiency_ln>
-1.59251183380695

> <r_i_glide_gscore>
-6.84117104521608

> <r_i_glide_lipo>
-2.51087202305589

> <r_i_glide_hbond>
-0.622429386954308

> <r_i_glide_metal>
0

> <r_i_glide_rewards>
-1.05070218640103

> <r_i_glide_evdw>
-36.2043952941895

> <r_i_glide_ecoul>
-8.99096393585205

> <r_i_glide_erotb>
0.593487667115264

> <r_i_glide_esite>
-0.0917907608328353

> <r_i_glide_emodel>
-62.0070537151904

> <r_i_glide_energy>
-45.1953592300415

> <r_i_glide_einternal>
1.83503305912018

> <i_i_glide_confnum>
73

> <i_i_glide_posenum>
387

> <r_i_glide_eff_state_penalty>
0

> <s_user_duplicate_titles>
CHEMBL209_lig852

> <i_f3d_flags>
0

> <s_m_subgroup_title>
dock_pv

> <s_m_subgroupid>
dock_pv

> <b_m_subgroup_collapsed>
1

$$$$
CHEMBL209_lig635
                    3D
 Schrodinger Suite 2021-1.
 40 41  0  0  1  0            999 V2000
   22.0335   20.9441   27.6831 C   0  0  0  0  0  0
   23.2650   22.9761   28.0383 C   0  0  0  0  0  0
   27.0333   16.3092   28.6475 C   0  0  0  0  0  0
   28.7553   17.7103   29.5657 C   0  0  0  0  0  0
   22.3166   20.5455   28.9886 C   0  0  0  0  0  0
   23.5526   22.5760   29.3383 C   0  0  0  0  0  0
   26.0655   17.1001   29.2556 C   0  0  0  0  0  0
   27.7893   18.5093   30.1651 C   0  0  0  0  0  0
   23.3985   19.6802   31.5871 C   0  0  0  0  0  0
   24.1927   18.6272   30.7916 C   0  0  0  0  0  0
   22.5220   22.1609   27.1667 C   0  0  0  0  0  0
   28.4030   16.5812   28.8067 C   0  0  0  0  0  0
   23.1161   21.3457   29.8136 C   0  0  0  0  0  0
   26.4410   18.2002   30.0367 C   0  0  0  0  0  0
   22.2926   22.5972   25.7572 C   0  0  0  0  0  0
   29.4176   15.6653   28.2190 C   0  0  0  0  0  0
   21.5530   21.7336   24.9924 N   0  0  0  0  0  0
   22.7732   23.6761   25.3204 N   0  0  0  0  0  0
   30.7060   16.1328   28.1911 N   0  0  0  0  0  0
   29.0854   14.5330   27.7911 N   0  0  0  0  0  0
   23.5151   21.0178   31.0946 O   0  0  0  0  0  0
   25.5601   19.0122   30.7195 O   0  0  0  0  0  0
   21.4328   20.2775   27.0817 H   0  0  0  0  0  0
   23.6549   23.9295   27.7082 H   0  0  0  0  0  0
   26.7002   15.4565   28.0713 H   0  0  0  0  0  0
   29.7885   17.9616   29.7482 H   0  0  0  0  0  0
   21.9118   19.6096   29.3423 H   0  0  0  0  0  0
   24.1414   23.2175   29.9769 H   0  0  0  0  0  0
   25.0328   16.8172   29.1294 H   0  0  0  0  0  0
   28.0913   19.3532   30.7671 H   0  0  0  0  0  0
   23.7590   19.6862   32.6157 H   0  0  0  0  0  0
   22.3531   19.3932   31.6492 H   0  0  0  0  0  0
   24.1027   17.6577   31.2862 H   0  0  0  0  0  0
   23.7801   18.5118   29.7917 H   0  0  0  0  0  0
   21.3547   21.9696   24.0330 H   0  0  0  0  0  0
   20.9973   21.0010   25.4092 H   0  0  0  0  0  0
   22.5484   23.8287   24.3494 H   0  0  0  0  0  0
   31.4279   15.5477   27.7807 H   0  0  0  0  0  0
   30.9755   17.0550   28.5354 H   0  0  0  0  0  0
   29.9045   14.0515   27.4394 H   0  0  0  0  0  0
  1  5  1  0  0  0
  1 11  2  0  0  0
  1 23  1  0  0  0
  2  6  2  0  0  0
  2 11  1  0  0  0
  2 24  1  0  0  0
  3  7  1  0  0  0
  3 12  2  0  0  0
  3 25  1  0  0  0
  4  8  2  0  0  0
  4 12  1  0  0  0
  4 26  1  0  0  0
  5 13  2  0  0  0
  5 27  1  0  0  0
  6 13  1  0  0  0
  6 28  1  0  0  0
  7 14  2  0  0  0
  7 29  1  0  0  0
  8 14  1  0  0  0
  8 30  1  0  0  0
  9 10  1  0  0  0
  9 21  1  0  0  0
  9 31  1  0  0  0
  9 32  1  0  0  0
 10 22  1  0  0  0
 10 33  1  0  0  0
 10 34  1  0  0  0
 11 15  1  0  0  0
 12 16  1  0  0  0
 13 21  1  0  0  0
 14 22  1  0  0  0
 15 17  1  0  0  0
 15 18  2  0  0  0
 16 19  1  0  0  0
 16 20  2  0  0  0
 17 35  1  0  0  0
 17 36  1  0  0  0
 18 37  1  0  0  0
 19 38  1  0  0  0
 19 39  1  0  0  0
 20 40  1  0  0  0
M  END
> <s_m_entry_id>
39331

> <s_m_entry_name>
dock_pv.87

> <s_m_Source_Path>
/home/csk/Desktop/cluster/DUD-E-result/try1

> <s_m_Source_File>
dock_pv.maegz

> <i_m_Source_File_Index>
87

> <chembl_id>
CHEMBL1204158

> <chembl_pref_name>
None

> <i_lp_mmshare_version>
53161

> <r_lp_tautomer_probability>
1

> <s_lp_Force_Field>
OPLS_2005

> <r_lp_Energy>
8.379005

> <b_lp_Chiralities_Consistent>
1

> <s_lp_Variant>
CHEMBL209_lig635-1

> <s_i_glide_gridfile>
glide-grid_2ayw

> <i_i_glide_lignum>
1004

> <i_i_glide_rotatable_bonds>
7

> <r_i_docking_score>
-6.83106603388777

> <r_i_glide_ligand_efficiency>
-0.310503001540353

> <r_i_glide_ligand_efficiency_sa>
-0.870041621706174

> <r_i_glide_ligand_efficiency_ln>
-1.66976170786988

> <r_i_glide_gscore>
-6.83106603388777

> <r_i_glide_lipo>
-1.84641973827302

> <r_i_glide_hbond>
-0.726385340199483

> <r_i_glide_metal>
0

> <r_i_glide_rewards>
-1.78582370201671

> <r_i_glide_evdw>
-29.3053398132324

> <r_i_glide_ecoul>
-13.2307920455933

> <r_i_glide_erotb>
1.0307928492933

> <r_i_glide_esite>
-0.0533443051912399

> <r_i_glide_emodel>
-56.4764630769778

> <r_i_glide_energy>
-42.5361318588257

> <r_i_glide_einternal>
8.086106300354

> <i_i_glide_confnum>
60

> <i_i_glide_posenum>
156

> <r_i_glide_eff_state_penalty>
0

> <s_user_duplicate_titles>
CHEMBL209_lig635

> <i_f3d_flags>
0

> <s_m_subgroup_title>
dock_pv

> <s_m_subgroupid>
dock_pv

> <b_m_subgroup_collapsed>
1

$$$$
CHEMBL209_lig1225
                    3D
 Schrodinger Suite 2021-1.
 58 59  0  0  1  0            999 V2000
   23.0583   22.1630   37.2221 C   0  0  0  0  0  0
   21.8524   23.0734   36.9328 C   0  0  0  0  0  0
   21.7842   23.6051   35.4794 C   0  0  0  0  0  0
   21.7401   22.5392   34.3395 C   0  0  2  0  0  0
   21.8839   23.2228   32.9484 C   0  0  0  0  0  0
   22.1635   22.2826   31.7858 C   0  0  0  0  0  0
   21.3785   22.0112   30.6673 C   0  0  0  0  0  0
   21.9514   21.1165   29.7600 C   0  0  0  0  0  0
   23.1988   20.6521   30.1562 C   0  0  0  0  0  0
   23.6359   21.3520   31.6938 S   0  0  0  0  0  0
   24.0802   19.7328   29.4311 C   0  0  0  0  0  0
   23.8511   19.3863   28.2694 O   0  0  0  0  0  0
   25.1487   19.3222   30.1856 O   0  0  0  0  0  0
   26.0901   18.4574   29.6625 C   0  0  0  0  0  0
   25.7545   17.1453   29.3207 C   0  0  0  0  0  0
   26.7176   16.2772   28.8151 C   0  0  0  0  0  0
   28.0621   16.6660   28.6732 C   0  0  0  0  0  0
   28.3816   17.9924   29.0257 C   0  0  0  0  0  0
   27.4154   18.8746   29.5122 C   0  0  0  0  0  0
   27.7768   20.1333   29.8512 F   0  0  0  0  0  0
   29.0786   15.6873   28.1913 C   0  0  0  0  0  0
   28.7529   14.5330   27.8125 N   0  0  0  0  0  0
   30.3735   16.1330   28.1915 N   0  0  0  0  0  0
   20.5325   21.5671   34.3815 C   0  0  0  0  0  0
   20.5842   20.5113   33.7549 O   0  0  0  0  0  0
   19.4544   21.9083   35.1131 N   0  0  0  0  0  0
   18.1955   21.1460   35.2629 C   0  0  1  0  0  0
   17.4543   20.9323   33.9108 C   0  0  0  0  0  0
   17.3928   22.1316   32.9550 C   0  0  0  0  0  0
   17.4673   23.3066   33.3081 O   0  0  0  0  0  0
   17.2154   21.7330   31.6609 O   0  0  0  0  0  0
   18.3039   19.8008   36.0371 C   0  0  0  0  0  0
   17.3803   19.0184   36.1430 O   0  0  0  0  0  0
   19.5383   19.6206   36.5899 O   0  0  0  0  0  0
   23.1053   21.9100   38.2807 H   0  0  0  0  0  0
   22.9965   21.2224   36.6711 H   0  0  0  0  0  0
   23.9961   22.6513   36.9550 H   0  0  0  0  0  0
   21.8988   23.9301   37.6074 H   0  0  0  0  0  0
   20.9382   22.5474   37.2061 H   0  0  0  0  0  0
   22.6594   24.2385   35.3288 H   0  0  0  0  0  0
   20.9331   24.2808   35.3860 H   0  0  0  0  0  0
   22.6227   21.9158   34.4827 H   0  0  0  0  0  0
   20.9904   23.8157   32.7422 H   0  0  0  0  0  0
   22.7015   23.9444   32.9880 H   0  0  0  0  0  0
   20.4084   22.4609   30.5112 H   0  0  0  0  0  0
   21.4698   20.8164   28.8396 H   0  0  0  0  0  0
   24.7440   16.7900   29.4538 H   0  0  0  0  0  0
   26.4054   15.2712   28.5689 H   0  0  0  0  0  0
   29.3904   18.3662   28.9347 H   0  0  0  0  0  0
   29.5825   14.0159   27.5530 H   0  0  0  0  0  0
   31.0979   15.5364   27.8096 H   0  0  0  0  0  0
   30.6550   17.0338   28.5635 H   0  0  0  0  0  0
   19.4658   22.8088   35.5705 H   0  0  0  0  0  0
   17.5368   21.7380   35.8993 H   0  0  0  0  0  0
   16.4211   20.6384   34.1015 H   0  0  0  0  0  0
   17.9349   20.1064   33.3911 H   0  0  0  0  0  0
   17.1537   20.7683   31.5700 H   0  0  0  0  0  0
   20.1386   20.3148   36.3096 H   0  0  0  0  0  0
  1  2  1  0  0  0
  1 35  1  0  0  0
  1 36  1  0  0  0
  1 37  1  0  0  0
  2  3  1  0  0  0
  2 38  1  0  0  0
  2 39  1  0  0  0
  3  4  1  0  0  0
  3 40  1  0  0  0
  3 41  1  0  0  0
  4  5  1  0  0  0
  4 24  1  0  0  0
  4 42  1  0  0  0
  5  6  1  0  0  0
  5 43  1  0  0  0
  5 44  1  0  0  0
  6  7  2  0  0  0
  6 10  1  0  0  0
  7  8  1  0  0  0
  7 45  1  0  0  0
  8  9  2  0  0  0
  8 46  1  0  0  0
  9 10  1  0  0  0
  9 11  1  0  0  0
 11 12  2  0  0  0
 11 13  1  0  0  0
 13 14  1  0  0  0
 14 15  2  0  0  0
 14 19  1  0  0  0
 15 16  1  0  0  0
 15 47  1  0  0  0
 16 17  2  0  0  0
 16 48  1  0  0  0
 17 18  1  0  0  0
 17 21  1  0  0  0
 18 19  2  0  0  0
 18 49  1  0  0  0
 19 20  1  0  0  0
 21 22  2  0  0  0
 21 23  1  0  0  0
 22 50  1  0  0  0
 23 51  1  0  0  0
 23 52  1  0  0  0
 24 25  2  0  0  0
 24 26  1  0  0  0
 26 27  1  0  0  0
 26 53  1  0  0  0
 27 28  1  0  0  0
 27 32  1  0  0  0
 27 54  1  0  0  0
 28 29  1  0  0  0
 28 55  1  0  0  0
 28 56  1  0  0  0
 29 30  2  0  0  0
 29 31  1  0  0  0
 31 57  1  0  0  0
 32 33  2  0  0  0
 32 34  1  0  0  0
 34 58  1  0  0  0
M  END
> <s_m_entry_id>
39332

> <s_m_entry_name>
dock_pv.88

> <s_m_Source_Path>
/home/csk/Desktop/cluster/DUD-E-result/try1

> <s_m_Source_File>
dock_pv.maegz

> <i_m_Source_File_Index>
88

> <chembl_id>
CHEMBL3642944

> <chembl_pref_name>
None

> <i_lp_mmshare_version>
53161

> <r_lp_tautomer_probability>
1

> <s_lp_Force_Field>
OPLS_2005

> <r_lp_Energy>
3.212179

> <b_lp_Chiralities_Consistent>
1

> <s_lp_Variant>
CHEMBL209_lig1225-1

> <s_i_glide_gridfile>
glide-grid_2ayw

> <i_i_glide_lignum>
1844

> <i_i_glide_rotatable_bonds>
16

> <r_i_docking_score>
-6.80751132950088

> <r_i_glide_ligand_efficiency>
-0.200220921455908

> <r_i_glide_ligand_efficiency_sa>
-0.648638059248768

> <r_i_glide_ligand_efficiency_ln>
-1.50397019691182

> <r_i_glide_gscore>
-6.80751132950088

> <r_i_glide_lipo>
-1.28973775210173

> <r_i_glide_hbond>
-0.985562333904549

> <r_i_glide_metal>
0

> <r_i_glide_rewards>
-0.661314443142513

> <r_i_glide_evdw>
-35.0254173278809

> <r_i_glide_ecoul>
-20.49098777771

> <r_i_glide_erotb>
1.00375877644535

> <r_i_glide_esite>
-0.0497365437468883

> <r_i_glide_emodel>
-76.2670568126135

> <r_i_glide_energy>
-55.5164051055908

> <r_i_glide_einternal>
4.35066318511963

> <i_i_glide_confnum>
3

> <i_i_glide_posenum>
84

> <r_i_glide_eff_state_penalty>
0

> <s_user_duplicate_titles>
CHEMBL209_lig1225

> <i_f3d_flags>
0

> <s_m_subgroup_title>
dock_pv

> <s_m_subgroupid>
dock_pv

> <b_m_subgroup_collapsed>
1

$$$$
CHEMBL209_lig827
                    3D
 Schrodinger Suite 2021-1.
 69 73  0  0  1  0            999 V2000
   22.3367   20.5505   29.9695 N   0  0  0  0  0  0
   25.0577   18.2882   30.3850 C   0  0  0  0  0  0
   23.5877   20.4657   30.4856 C   0  0  0  0  0  0
   24.7053   19.6765   29.7627 C   0  0  0  0  0  0
   21.9096   20.1413   28.6236 C   0  0  2  0  0  0
   25.2348   18.3004   31.9121 C   0  0  0  0  0  0
   26.2066   17.5804   29.6465 C   0  0  0  0  0  0
   22.4929   21.0507   27.5263 C   0  0  0  0  0  0
   27.4340   19.5628   31.7530 C   0  0  0  0  0  0
   27.9433   19.1844   30.5679 C   0  0  0  0  0  0
   22.2917   22.3765   27.6339 N   0  0  0  0  0  0
   27.5319   18.0656   29.7039 C   0  0  0  0  0  0
   26.3199   18.9718   32.5184 C   0  0  0  0  0  0
   23.8770   21.0349   31.5386 O   0  0  0  0  0  0
   23.1529   20.5331   26.6336 O   0  0  0  0  0  0
   21.2384   21.1662   30.7192 C   0  0  0  0  0  0
   22.9263   23.4044   26.7998 C   0  0  0  0  0  0
   21.5528   24.2560   21.1442 N   0  0  0  0  0  0
   22.1633   23.8951   22.4078 C   0  0  1  0  0  0
   22.2649   23.7199   25.4289 C   0  0  1  0  0  0
   22.4953   25.1234   23.2854 C   0  0  0  0  0  0
   21.3262   22.8718   23.2013 C   0  0  0  0  0  0
   23.1434   24.7163   24.6263 C   0  0  0  0  0  0
   21.9989   22.4855   24.5317 C   0  0  0  0  0  0
   20.3737   20.1979   28.6875 C   0  0  0  0  0  0
   24.2494   17.7331   32.7350 C   0  0  0  0  0  0
   25.9530   16.4435   28.8648 C   0  0  0  0  0  0
   20.0542   21.2385   29.7541 C   0  0  0  0  0  0
   28.5362   17.4309   28.9631 C   0  0  0  0  0  0
   26.3703   19.0790   33.9131 C   0  0  0  0  0  0
   24.3117   17.8505   34.1210 C   0  0  0  0  0  0
   26.9631   15.8086   28.1457 C   0  0  0  0  0  0
   25.3693   18.5330   34.7106 C   0  0  0  0  0  0
   28.2583   16.3080   28.1909 C   0  0  0  0  0  0
   24.1741   17.6732   30.2024 H   0  0  0  0  0  0
   25.5832   20.3190   29.7911 H   0  0  0  0  0  0
   24.4922   19.5470   28.7042 H   0  0  0  0  0  0
   22.2156   19.1139   28.4250 H   0  0  0  0  0  0
   27.8843   20.4290   32.2171 H   0  0  0  0  0  0
   28.7620   19.7752   30.1796 H   0  0  0  0  0  0
   21.7368   22.7073   28.4083 H   0  0  0  0  0  0
   21.0164   20.5342   31.5806 H   0  0  0  0  0  0
   21.4971   22.1566   31.0969 H   0  0  0  0  0  0
   23.0469   24.3237   27.3754 H   0  0  0  0  0  0
   23.9527   23.0849   26.6183 H   0  0  0  0  0  0
   21.3264   23.4188   20.6241 H   0  0  0  0  0  0
   20.6712   24.7171   21.3133 H   0  0  0  0  0  0
   23.1145   23.4081   22.1841 H   0  0  0  0  0  0
   21.3033   24.2044   25.6152 H   0  0  0  0  0  0
   21.5820   25.6841   23.4945 H   0  0  0  0  0  0
   23.1638   25.7969   22.7452 H   0  0  0  0  0  0
   20.3508   23.3025   23.4211 H   0  0  0  0  0  0
   21.1542   21.9743   22.6055 H   0  0  0  0  0  0
   23.3369   25.6069   25.2263 H   0  0  0  0  0  0
   24.1303   24.2840   24.4485 H   0  0  0  0  0  0
   22.9373   21.9642   24.3396 H   0  0  0  0  0  0
   21.3718   21.7614   25.0520 H   0  0  0  0  0  0
   19.9898   19.2231   28.9905 H   0  0  0  0  0  0
   19.9059   20.4284   27.7291 H   0  0  0  0  0  0
   23.4071   17.2170   32.2946 H   0  0  0  0  0  0
   24.9585   16.0270   28.8264 H   0  0  0  0  0  0
   19.0923   21.0686   30.2414 H   0  0  0  0  0  0
   20.0189   22.2283   29.2972 H   0  0  0  0  0  0
   29.5531   17.7916   29.0034 H   0  0  0  0  0  0
   27.1936   19.5897   34.3924 H   0  0  0  0  0  0
   23.5375   17.4145   34.7365 H   0  0  0  0  0  0
   26.7384   14.9314   27.5573 H   0  0  0  0  0  0
   25.4210   18.6275   35.7856 H   0  0  0  0  0  0
   29.0502   15.8237   27.6358 H   0  0  0  0  0  0
  1  3  1  0  0  0
  1  5  1  0  0  0
  1 16  1  0  0  0
  2  4  1  0  0  0
  2  6  1  0  0  0
  2  7  1  0  0  0
  2 35  1  0  0  0
  3  4  1  0  0  0
  3 14  2  0  0  0
  4 36  1  0  0  0
  4 37  1  0  0  0
  5  8  1  0  0  0
  5 25  1  0  0  0
  5 38  1  0  0  0
  6 13  2  0  0  0
  6 26  1  0  0  0
  7 12  2  0  0  0
  7 27  1  0  0  0
  8 11  1  0  0  0
  8 15  2  0  0  0
  9 13  1  0  0  0
  9 10  2  0  0  0
  9 39  1  0  0  0
 10 12  1  0  0  0
 10 40  1  0  0  0
 11 17  1  0  0  0
 11 41  1  0  0  0
 12 29  1  0  0  0
 13 30  1  0  0  0
 16 28  1  0  0  0
 16 42  1  0  0  0
 16 43  1  0  0  0
 17 20  1  0  0  0
 17 44  1  0  0  0
 17 45  1  0  0  0
 18 19  1  0  0  0
 18 46  1  0  0  0
 18 47  1  0  0  0
 19 21  1  0  0  0
 19 22  1  0  0  0
 19 48  1  0  0  0
 20 23  1  0  0  0
 20 24  1  0  0  0
 20 49  1  0  0  0
 21 23  1  0  0  0
 21 50  1  0  0  0
 21 51  1  0  0  0
 22 24  1  0  0  0
 22 52  1  0  0  0
 22 53  1  0  0  0
 23 54  1  0  0  0
 23 55  1  0  0  0
 24 56  1  0  0  0
 24 57  1  0  0  0
 25 28  1  0  0  0
 25 58  1  0  0  0
 25 59  1  0  0  0
 26 31  2  0  0  0
 26 60  1  0  0  0
 27 32  2  0  0  0
 27 61  1  0  0  0
 28 62  1  0  0  0
 28 63  1  0  0  0
 29 34  2  0  0  0
 29 64  1  0  0  0
 30 33  2  0  0  0
 30 65  1  0  0  0
 31 33  1  0  0  0
 31 66  1  0  0  0
 32 34  1  0  0  0
 32 67  1  0  0  0
 33 68  1  0  0  0
 34 69  1  0  0  0
M  END
> <s_m_entry_id>
39333

> <s_m_entry_name>
dock_pv.89

> <s_m_Source_Path>
/home/csk/Desktop/cluster/DUD-E-result/try1

> <s_m_Source_File>
dock_pv.maegz

> <i_m_Source_File_Index>
89

> <chembl_id>
CHEMBL555753

> <chembl_pref_name>
None

> <i_lp_mmshare_version>
53161

> <r_lp_tautomer_probability>
1

> <s_lp_Force_Field>
OPLS_2005

> <r_lp_Energy>
37.234436

> <b_lp_Chiralities_Consistent>
1

> <s_lp_Variant>
CHEMBL209_lig827-1

> <s_i_glide_gridfile>
glide-grid_2ayw

> <i_i_glide_lignum>
1261

> <i_i_glide_rotatable_bonds>
7

> <r_i_docking_score>
-6.80597562380106

> <r_i_glide_ligand_efficiency>
-0.200175753641208

> <r_i_glide_ligand_efficiency_sa>
-0.648491733063398

> <r_i_glide_ligand_efficiency_ln>
-1.50363091644765

> <r_i_glide_gscore>
-6.80597562380106

> <r_i_glide_lipo>
-3.67945940483485

> <r_i_glide_hbond>
-0.16208283939983

> <r_i_glide_metal>
0

> <r_i_glide_rewards>
-0.478752914203784

> <r_i_glide_evdw>
-42.9800109863281

> <r_i_glide_ecoul>
-6.6752724647522

> <r_i_glide_erotb>
0.672114206601777

> <r_i_glide_esite>
-0.00750325293513237

> <r_i_glide_emodel>
-67.0162095914667

> <r_i_glide_energy>
-49.6552834510803

> <r_i_glide_einternal>
6.10005760192871

> <i_i_glide_confnum>
86

> <i_i_glide_posenum>
309

> <r_i_glide_eff_state_penalty>
0

> <s_user_duplicate_titles>
CHEMBL209_lig827

> <i_f3d_flags>
0

> <s_m_subgroup_title>
dock_pv

> <s_m_subgroupid>
dock_pv

> <b_m_subgroup_collapsed>
1

$$$$
CHEMBL209_lig717
                    3D
 Schrodinger Suite 2021-1.
 54 56  0  0  1  0            999 V2000
   27.5751   20.3216   32.7793 C   0  0  0  0  0  0
   25.4211   19.7552   31.7955 N   0  0  0  0  0  0
   30.0267   20.7454   34.1499 S   0  0  0  0  0  0
   26.6197   19.2914   32.3321 C   0  0  0  0  0  0
   28.7529   19.7937   33.3760 N   0  0  0  0  0  0
   25.1671   21.1246   31.6673 C   0  0  0  0  0  0
   27.3100   21.6403   32.6253 C   0  0  0  0  0  0
   26.0559   22.0659   32.0467 C   0  0  0  0  0  0
   24.4656   18.7034   31.3462 C   0  0  0  0  0  0
   29.2430   17.0083   28.8387 N   0  0  0  0  0  0
   24.8207   18.2363   29.9272 C   0  0  0  0  0  0
   31.0888   20.9330   33.1563 O   0  0  0  0  0  0
   29.4218   21.9067   34.8109 O   0  0  0  0  0  0
   26.8938   18.0895   32.4232 O   0  0  0  0  0  0
   29.7741   15.8052   28.5303 C   0  0  0  0  0  0
   30.6888   19.6029   35.4945 C   0  0  0  0  0  0
   25.1224   16.9381   29.7910 N   0  0  0  0  0  0
   27.0490   16.0805   28.5062 C   0  0  0  0  0  0
   24.8293   19.0336   28.9908 O   0  0  0  0  0  0
   27.9037   17.1398   28.8124 C   0  0  0  0  0  0
   25.5530   16.2820   28.5571 C   0  0  0  0  0  0
   31.1530   15.7330   28.5910 N   0  0  0  0  0  0
   29.0023   14.6963   28.1910 C   0  0  0  0  0  0
   27.6123   14.8384   28.1910 C   0  0  0  0  0  0
   29.6140   19.1151   36.4483 C   0  0  0  0  0  0
   23.8199   21.5385   31.0807 C   0  0  0  0  0  0
   29.2647   19.8696   37.5704 C   0  0  0  0  0  0
   28.9788   17.9004   36.1933 C   0  0  0  0  0  0
   28.0202   17.4174   37.0767 C   0  0  0  0  0  0
   28.2920   19.3943   38.4476 C   0  0  0  0  0  0
   27.6785   18.1669   38.2005 C   0  0  0  0  0  0
   29.0761   18.8971   32.9905 H   0  0  0  0  0  0
   28.0189   22.3958   32.9276 H   0  0  0  0  0  0
   25.8357   23.1196   31.9505 H   0  0  0  0  0  0
   23.4342   19.0481   31.3788 H   0  0  0  0  0  0
   24.4683   17.8582   32.0374 H   0  0  0  0  0  0
   31.1528   18.7577   34.9914 H   0  0  0  0  0  0
   31.4698   20.1470   36.0242 H   0  0  0  0  0  0
   24.9696   16.3220   30.5829 H   0  0  0  0  0  0
   27.5245   18.1190   29.0655 H   0  0  0  0  0  0
   25.2788   16.8530   27.6665 H   0  0  0  0  0  0
   25.0357   15.3250   28.4923 H   0  0  0  0  0  0
   31.6481   15.0281   28.0390 H   0  0  0  0  0  0
   31.5811   16.6481   28.7204 H   0  0  0  0  0  0
   29.4695   13.7486   27.9650 H   0  0  0  0  0  0
   26.9863   13.9883   27.9639 H   0  0  0  0  0  0
   23.7294   22.6228   31.0023 H   0  0  0  0  0  0
   23.6817   21.1328   30.0784 H   0  0  0  0  0  0
   23.0009   21.1953   31.7138 H   0  0  0  0  0  0
   29.7436   20.8187   37.7629 H   0  0  0  0  0  0
   29.2354   17.3328   35.3124 H   0  0  0  0  0  0
   27.5530   16.4628   36.8893 H   0  0  0  0  0  0
   28.0183   19.9718   39.3181 H   0  0  0  0  0  0
   26.9304   17.7926   38.8845 H   0  0  0  0  0  0
  1  4  1  0  0  0
  1  5  1  0  0  0
  1  7  2  0  0  0
  2  4  1  0  0  0
  2  9  1  0  0  0
  2  6  1  0  0  0
  3  5  1  0  0  0
  3 12  2  0  0  0
  3 13  2  0  0  0
  3 16  1  0  0  0
  4 14  2  0  0  0
  5 32  1  0  0  0
  6  8  2  0  0  0
  6 26  1  0  0  0
  7  8  1  0  0  0
  7 33  1  0  0  0
  8 34  1  0  0  0
  9 11  1  0  0  0
  9 35  1  0  0  0
  9 36  1  0  0  0
 10 20  2  0  0  0
 10 15  1  0  0  0
 11 17  1  0  0  0
 11 19  2  0  0  0
 15 23  2  0  0  0
 15 22  1  0  0  0
 16 25  1  0  0  0
 16 37  1  0  0  0
 16 38  1  0  0  0
 17 21  1  0  0  0
 17 39  1  0  0  0
 18 21  1  0  0  0
 18 20  1  0  0  0
 18 24  2  0  0  0
 20 40  1  0  0  0
 21 41  1  0  0  0
 21 42  1  0  0  0
 22 43  1  0  0  0
 22 44  1  0  0  0
 23 24  1  0  0  0
 23 45  1  0  0  0
 24 46  1  0  0  0
 25 27  2  0  0  0
 25 28  1  0  0  0
 26 47  1  0  0  0
 26 48  1  0  0  0
 26 49  1  0  0  0
 27 30  1  0  0  0
 27 50  1  0  0  0
 28 29  2  0  0  0
 28 51  1  0  0  0
 29 31  1  0  0  0
 29 52  1  0  0  0
 30 31  2  0  0  0
 30 53  1  0  0  0
 31 54  1  0  0  0
M  END
> <s_m_entry_id>
39334

> <s_m_entry_name>
dock_pv.90

> <s_m_Source_Path>
/home/csk/Desktop/cluster/DUD-E-result/try1

> <s_m_Source_File>
dock_pv.maegz

> <i_m_Source_File_Index>
90

> <chembl_id>
CHEMBL355441

> <chembl_pref_name>
None

> <i_lp_mmshare_version>
53161

> <r_lp_tautomer_probability>
0.999999772200052

> <s_lp_Force_Field>
OPLS_2005

> <r_lp_Energy>
20.464043

> <b_lp_Chiralities_Consistent>
1

> <s_lp_Variant>
CHEMBL209_lig717-1

> <s_i_glide_gridfile>
glide-grid_2ayw

> <i_i_glide_lignum>
1123

> <i_i_glide_rotatable_bonds>
9

> <r_i_docking_score>
-6.80159396333219

> <r_i_glide_ligand_efficiency>
-0.219406256881684

> <r_i_glide_ligand_efficiency_sa>
-0.689238569592791

> <r_i_glide_ligand_efficiency_ln>
-1.53396788255323

> <r_i_glide_gscore>
-6.80159396333219

> <r_i_glide_lipo>
-1.63467195309562

> <r_i_glide_hbond>
-1.09550640202602

> <r_i_glide_metal>
0

> <r_i_glide_rewards>
-0.501374557526217

> <r_i_glide_evdw>
-33.7220115661621

> <r_i_glide_ecoul>
-16.8455047607422

> <r_i_glide_erotb>
0.819820945244592

> <r_i_glide_esite>
-0.176935703509502

> <r_i_glide_emodel>
-69.2960918489647

> <r_i_glide_energy>
-50.5675163269043

> <r_i_glide_einternal>
3.97265601158142

> <i_i_glide_confnum>
23

> <i_i_glide_posenum>
236

> <r_i_glide_eff_state_penalty>
0

> <s_user_duplicate_titles>
CHEMBL209_lig717

> <i_f3d_flags>
0

> <s_m_subgroup_title>
dock_pv

> <s_m_subgroupid>
dock_pv

> <b_m_subgroup_collapsed>
1

$$$$
74532
                    3D
 Schrodinger Suite 2021-1.
 50 52  0  0  1  0            999 V2000
   24.4973   19.6071   34.2857 C   0  0  0  0  0  0
   24.8797   19.9631   32.8556 C   0  0  0  0  0  0
   26.0180   19.3951   32.2656 C   0  0  0  0  0  0
   26.3305   19.7248   30.9358 C   0  0  0  0  0  0
   25.5527   20.5517   30.1917 N   0  0  0  0  0  0
   24.4603   21.1061   30.7778 C   0  0  0  0  0  0
   24.0895   20.8399   32.0992 C   0  0  0  0  0  0
   22.9834   21.4160   32.6274 F   0  0  0  0  0  0
   23.7282   21.9639   29.9913 O   0  0  0  0  0  0
   23.0452   21.4763   28.8983 C   0  0  0  0  0  0
   22.3398   20.2702   28.9347 C   0  0  0  0  0  0
   21.6214   19.8508   27.8211 C   0  0  0  0  0  0
   21.6199   20.6190   26.6590 C   0  0  0  0  0  0
   22.3229   21.8390   26.5786 C   0  0  0  0  0  0
   23.0256   22.2436   27.7328 C   0  0  0  0  0  0
   22.3328   22.6791   25.3417 C   0  0  0  0  0  0
   23.0208   23.7323   25.2641 N   0  0  0  0  0  0
   21.5522   22.2111   24.3145 N   0  0  0  0  0  0
   27.4273   19.1418   30.2777 N   0  0  0  0  0  0
   28.7220   19.6819   30.7078 C   0  0  0  0  0  0
   27.3736   17.9147   29.5702 C   0  0  0  0  0  0
   26.1274   17.3704   29.2287 C   0  0  0  0  0  0
   26.0349   16.1492   28.5774 C   0  0  0  0  0  0
   27.1869   15.4499   28.2520 C   0  0  0  0  0  0
   28.4643   15.9479   28.5674 C   0  0  0  0  0  0
   28.5292   17.1972   29.2137 C   0  0  0  0  0  0
   29.6699   15.1416   28.2389 C   0  0  0  0  0  0
   29.5533   13.9801   27.7913 N   0  0  0  0  0  0
   30.8833   15.7335   28.4539 N   0  0  0  0  0  0
   26.7953   18.5333   32.9674 F   0  0  0  0  0  0
   23.4316   19.7505   34.4684 H   0  0  0  0  0  0
   24.7039   18.5552   34.4887 H   0  0  0  0  0  0
   25.0649   20.2090   34.9959 H   0  0  0  0  0  0
   22.3277   19.6693   29.8325 H   0  0  0  0  0  0
   21.0547   18.9328   27.8637 H   0  0  0  0  0  0
   21.0519   20.2406   25.8220 H   0  0  0  0  0  0
   23.5771   23.1722   27.7498 H   0  0  0  0  0  0
   23.5408   23.9364   26.1026 H   0  0  0  0  0  0
   21.5229   22.7450   23.4594 H   0  0  0  0  0  0
   20.8818   21.4666   24.4504 H   0  0  0  0  0  0
   28.6297   20.6974   31.0975 H   0  0  0  0  0  0
   29.1461   19.0673   31.5033 H   0  0  0  0  0  0
   29.4317   19.7247   29.8809 H   0  0  0  0  0  0
   25.2082   17.8803   29.4748 H   0  0  0  0  0  0
   25.0711   15.7324   28.3355 H   0  0  0  0  0  0
   27.0685   14.4935   27.7627 H   0  0  0  0  0  0
   29.4962   17.5930   29.4817 H   0  0  0  0  0  0
   30.4608   13.5787   27.5807 H   0  0  0  0  0  0
   31.7013   15.2433   28.0943 H   0  0  0  0  0  0
   30.9745   16.7292   28.6193 H   0  0  0  0  0  0
  1  2  1  0  0  0
  1 31  1  0  0  0
  1 32  1  0  0  0
  1 33  1  0  0  0
  2  7  1  0  0  0
  2  3  2  0  0  0
  3  4  1  0  0  0
  3 30  1  0  0  0
  4  5  2  0  0  0
  4 19  1  0  0  0
  5  6  1  0  0  0
  6  7  2  0  0  0
  6  9  1  0  0  0
  7  8  1  0  0  0
  9 10  1  0  0  0
 10 15  1  0  0  0
 10 11  2  0  0  0
 11 12  1  0  0  0
 11 34  1  0  0  0
 12 13  2  0  0  0
 12 35  1  0  0  0
 13 14  1  0  0  0
 13 36  1  0  0  0
 14 15  2  0  0  0
 14 16  1  0  0  0
 15 37  1  0  0  0
 16 17  2  3  0  0
 16 18  1  0  0  0
 17 38  1  0  0  0
 18 39  1  0  0  0
 18 40  1  0  0  0
 19 20  1  0  0  0
 19 21  1  0  0  0
 20 41  1  0  0  0
 20 42  1  0  0  0
 20 43  1  0  0  0
 21 26  1  0  0  0
 21 22  2  0  0  0
 22 23  1  0  0  0
 22 44  1  0  0  0
 23 24  2  0  0  0
 23 45  1  0  0  0
 24 25  1  0  0  0
 24 46  1  0  0  0
 25 26  2  0  0  0
 25 27  1  0  0  0
 26 47  1  0  0  0
 27 28  2  3  0  0
 27 29  1  0  0  0
 28 48  1  0  0  0
 29 49  1  0  0  0
 29 50  1  0  0  0
M  END
> <s_m_entry_id>
39960

> <s_m_entry_name>
ligand_docking-pose.1

> <s_m_Source_Path>
/home/csk/Desktop/cluster/DUD-E-result/try1

> <s_m_Source_File>
ligand_docking-pose.sdf

> <i_m_Source_File_Index>
1

> <i_lp_mmshare_version>
53161

> <i_f3d_flags>
0

> <r_lp_tautomer_probability>
1

> <s_lp_Force_Field>
OPLS_2005

> <r_lp_Energy>
18.595908

> <b_lp_Chiralities_Consistent>
1

> <s_lp_Variant>
74532-2

> <s_i_glide_gridfile>
glide-grid_2ayw

> <i_i_glide_lignum>
1242

> <i_i_glide_rotatable_bonds>
6

> <r_i_docking_score>
-8.52275171037528

> <r_i_glide_ligand_efficiency>
-0.284091723679176

> <r_i_glide_ligand_efficiency_sa>
-0.882739037487607

> <r_i_glide_ligand_efficiency_ln>
-1.93646205141488

> <r_i_glide_gscore>
-8.52275171037528

> <r_i_glide_lipo>
-2.64853292683122

> <r_i_glide_hbond>
-1.18863002524925

> <r_i_glide_metal>
0

> <r_i_glide_rewards>
-1.10309009555977

> <r_i_glide_evdw>
-37.7834854125977

> <r_i_glide_ecoul>
-13.9100780487061

> <r_i_glide_erotb>
0.46781059759204

> <r_i_glide_esite>
-0.0746232823912737

> <r_i_glide_emodel>
-73.702719390521

> <r_i_glide_energy>
-51.6935634613037

> <r_i_glide_einternal>
7.56576347351074

> <i_i_glide_confnum>
18

> <i_i_glide_posenum>
273

> <r_i_glide_eff_state_penalty>
0

> <s_user_duplicate_titles>
74532

> <s_m_subgroup_title>
dock_pv

> <s_m_subgroupid>
dock_pv1

> <b_m_subgroup_collapsed>
0

$$$$
289051
                    3D
 Schrodinger Suite 2021-1.
 63 66  0  0  1  0            999 V2000
   29.5678   22.4173   30.4809 C   0  0  0  0  0  0
   28.7283   21.4182   31.0396 O   0  0  0  0  0  0
   29.2117   20.5326   31.9424 C   0  0  0  0  0  0
   30.3523   20.5337   32.4062 O   0  0  0  0  0  0
   28.1703   19.5233   32.4435 C   0  0  0  0  0  0
   27.1096   19.1635   31.4200 C   0  0  0  0  0  0
   25.8034   19.6048   31.3898 C   0  0  0  0  0  0
   25.1484   19.1538   30.2687 N   0  0  0  0  0  0
   26.0271   18.3665   29.5430 C   0  0  0  0  0  0
   27.2460   18.2946   30.2813 C   0  0  0  0  0  0
   28.2791   17.4688   29.8009 C   0  0  0  0  0  0
   28.0772   16.6931   28.6476 C   0  0  0  0  0  0
   26.8897   16.8520   27.9258 C   0  0  0  0  0  0
   25.8686   17.7011   28.3272 C   0  0  0  0  0  0
   29.0566   15.6927   28.1908 C   0  0  0  0  0  0
   28.6514   14.5671   27.7915 N   0  0  0  0  0  0
   30.3531   16.1323   28.1919 N   0  0  0  0  0  0
   23.7617   19.4832   29.9100 C   0  0  0  0  0  0
   23.5050   20.9633   29.5573 C   0  0  0  0  0  0
   24.3529   21.7977   29.8794 O   0  0  0  0  0  0
   22.2920   21.3265   29.0580 N   0  0  0  0  0  0
   21.4130   20.3873   28.3369 C   0  0  0  0  0  0
   21.7861   20.4923   26.8374 C   0  0  0  0  0  0
   21.6756   21.9464   26.3013 C   0  0  0  0  0  0
   22.4497   22.9143   27.2310 C   0  0  0  0  0  0
   22.0412   22.7399   28.7129 C   0  0  0  0  0  0
   22.1087   22.0440   24.8219 C   0  0  0  0  0  0
   21.9503   23.4137   24.1774 C   0  0  0  0  0  0
   20.6752   23.9351   23.9437 C   0  0  0  0  0  0
   20.5347   25.1751   23.3255 C   0  0  0  0  0  0
   21.6695   25.8876   22.9430 C   0  0  0  0  0  0
   22.9436   25.3737   23.1751 C   0  0  0  0  0  0
   23.0849   24.1342   23.7921 C   0  0  0  0  0  0
   28.9871   23.0765   29.8367 H   0  0  0  0  0  0
   30.3521   21.9657   29.8748 H   0  0  0  0  0  0
   30.0307   23.0255   31.2583 H   0  0  0  0  0  0
   28.6983   18.6387   32.7912 H   0  0  0  0  0  0
   27.7128   19.9687   33.3259 H   0  0  0  0  0  0
   25.2847   20.2633   32.0722 H   0  0  0  0  0  0
   29.1974   17.3857   30.3659 H   0  0  0  0  0  0
   26.7321   16.2903   27.0136 H   0  0  0  0  0  0
   24.9726   17.7802   27.7332 H   0  0  0  0  0  0
   27.6552   14.4804   27.9239 H   0  0  0  0  0  0
   31.0624   15.5230   27.8005 H   0  0  0  0  0  0
   30.6237   17.0522   28.5243 H   0  0  0  0  0  0
   23.4682   18.8440   29.0827 H   0  0  0  0  0  0
   23.1330   19.2150   30.7615 H   0  0  0  0  0  0
   21.3985   19.3807   28.7564 H   0  0  0  0  0  0
   20.3888   20.7293   28.4900 H   0  0  0  0  0  0
   22.8007   20.1173   26.6963 H   0  0  0  0  0  0
   21.1607   19.8267   26.2411 H   0  0  0  0  0  0
   20.6214   22.2183   26.3824 H   0  0  0  0  0  0
   22.2988   23.9460   26.9117 H   0  0  0  0  0  0
   23.5248   22.7526   27.1312 H   0  0  0  0  0  0
   20.9741   22.9235   28.8407 H   0  0  0  0  0  0
   22.5137   23.4348   29.4079 H   0  0  0  0  0  0
   23.1488   21.7330   24.7340 H   0  0  0  0  0  0
   21.5362   21.3331   24.2264 H   0  0  0  0  0  0
   19.7976   23.3774   24.2341 H   0  0  0  0  0  0
   19.5528   25.5819   23.1344 H   0  0  0  0  0  0
   21.5618   26.8469   22.4585 H   0  0  0  0  0  0
   23.8193   25.9284   22.8708 H   0  0  0  0  0  0
   24.0757   23.7373   23.9606 H   0  0  0  0  0  0
  1  2  1  0  0  0
  1 34  1  0  0  0
  1 35  1  0  0  0
  1 36  1  0  0  0
  2  3  1  0  0  0
  3  4  2  0  0  0
  3  5  1  0  0  0
  5  6  1  0  0  0
  5 37  1  0  0  0
  5 38  1  0  0  0
  6 10  1  0  0  0
  6  7  2  0  0  0
  7  8  1  0  0  0
  7 39  1  0  0  0
  8  9  1  0  0  0
  8 18  1  0  0  0
  9 14  1  0  0  0
  9 10  2  0  0  0
 10 11  1  0  0  0
 11 12  2  0  0  0
 11 40  1  0  0  0
 12 13  1  0  0  0
 12 15  1  0  0  0
 13 14  2  0  0  0
 13 41  1  0  0  0
 14 42  1  0  0  0
 15 16  2  3  0  0
 15 17  1  0  0  0
 16 43  1  0  0  0
 17 44  1  0  0  0
 17 45  1  0  0  0
 18 19  1  0  0  0
 18 46  1  0  0  0
 18 47  1  0  0  0
 19 20  2  0  0  0
 19 21  1  0  0  0
 21 26  1  0  0  0
 21 22  1  0  0  0
 22 23  1  0  0  0
 22 48  1  0  0  0
 22 49  1  0  0  0
 23 24  1  0  0  0
 23 50  1  0  0  0
 23 51  1  0  0  0
 24 25  1  0  0  0
 24 27  1  0  0  0
 24 52  1  0  0  0
 25 26  1  0  0  0
 25 53  1  0  0  0
 25 54  1  0  0  0
 26 55  1  0  0  0
 26 56  1  0  0  0
 27 28  1  0  0  0
 27 57  1  0  0  0
 27 58  1  0  0  0
 28 33  1  0  0  0
 28 29  2  0  0  0
 29 30  1  0  0  0
 29 59  1  0  0  0
 30 31  2  0  0  0
 30 60  1  0  0  0
 31 32  1  0  0  0
 31 61  1  0  0  0
 32 33  2  0  0  0
 32 62  1  0  0  0
 33 63  1  0  0  0
M  END
> <s_m_entry_id>
39961

> <s_m_entry_name>
ligand_docking-pose.2

> <s_m_Source_Path>
/home/csk/Desktop/cluster/DUD-E-result/try1

> <s_m_Source_File>
ligand_docking-pose.sdf

> <i_m_Source_File_Index>
2

> <i_lp_mmshare_version>
53161

> <i_f3d_flags>
0

> <r_lp_tautomer_probability>
1

> <s_lp_Force_Field>
OPLS_2005

> <r_lp_Energy>
32.108711

> <b_lp_Chiralities_Consistent>
1

> <s_lp_Variant>
289051-2

> <s_i_glide_gridfile>
glide-grid_2ayw

> <i_i_glide_lignum>
2579

> <i_i_glide_rotatable_bonds>
9

> <r_i_docking_score>
-8.38480484046559

> <r_i_glide_ligand_efficiency>
-0.254084995165624

> <r_i_glide_ligand_efficiency_sa>
-0.814986343780694

> <r_i_glide_ligand_efficiency_ln>
-1.86473718232356

> <r_i_glide_gscore>
-8.38480484046559

> <r_i_glide_lipo>
-2.96570009576024

> <r_i_glide_hbond>
-1.23762151276801

> <r_i_glide_metal>
0

> <r_i_glide_rewards>
-0.856631420351567

> <r_i_glide_evdw>
-42.011604309082

> <r_i_glide_ecoul>
-12.6339302062988

> <r_i_glide_erotb>
0.702715171202851

> <r_i_glide_esite>
-0.0318972363896969

> <r_i_glide_emodel>
-77.6719838650251

> <r_i_glide_energy>
-54.6455345153809

> <r_i_glide_einternal>
6.67005920410156

> <i_i_glide_confnum>
17

> <i_i_glide_posenum>
21

> <r_i_glide_eff_state_penalty>
0

> <s_user_duplicate_titles>
289051

> <s_m_subgroup_title>
dock_pv

> <s_m_subgroupid>
dock_pv1

> <b_m_subgroup_collapsed>
0

$$$$
291551
                    3D
 Schrodinger Suite 2021-1.
 51 54  0  0  1  0            999 V2000
   20.8480   22.4086   30.5315 C   0  0  0  0  0  0
   21.5512   21.7150   31.5104 C   0  0  0  0  0  0
   22.3534   20.6281   31.1591 C   0  0  0  0  0  0
   22.4559   20.2568   29.8136 C   0  0  0  0  0  0
   21.7340   20.9229   28.8011 C   0  0  0  0  0  0
   20.9331   22.0126   29.1982 C   0  0  0  0  0  0
   21.8093   20.4694   27.3830 C   0  0  0  0  0  0
   22.7529   19.7331   26.9910 N   0  0  0  0  0  0
   20.7731   20.9019   26.5910 N   0  0  0  0  0  0
   23.0615   19.8212   32.2417 C   0  0  0  0  0  0
   24.0832   20.6221   32.9118 N   0  0  0  0  0  0
   25.3573   20.8293   32.3651 C   0  0  0  0  0  0
   26.0482   21.9610   32.7916 C   0  0  0  0  0  0
   27.3184   22.2674   32.3121 C   0  0  0  0  0  0
   27.9150   21.4114   31.3784 C   0  0  0  0  0  0
   29.1662   21.4272   30.6942 C   0  0  0  0  0  0
   29.1885   20.3076   29.8984 C   0  0  0  0  0  0
   28.0246   19.5782   30.0327 N   0  0  0  0  0  0
   27.2045   20.2457   30.9437 C   0  0  0  0  0  0
   25.9289   19.9419   31.4453 C   0  0  0  0  0  0
   27.7748   18.3643   29.3482 C   0  0  0  0  0  0
   26.4973   18.0330   28.8884 C   0  0  0  0  0  0
   26.2824   16.8128   28.2558 C   0  0  0  0  0  0
   27.3354   15.9201   28.0754 C   0  0  0  0  0  0
   28.6365   16.2163   28.5230 C   0  0  0  0  0  0
   28.8163   17.4421   29.1874 C   0  0  0  0  0  0
   29.7607   15.2693   28.2786 C   0  0  0  0  0  0
   29.5529   14.1330   27.7916 N   0  0  0  0  0  0
   31.0131   15.7330   28.5909 N   0  0  0  0  0  0
   20.2260   23.2477   30.8073 H   0  0  0  0  0  0
   21.4602   22.0132   32.5445 H   0  0  0  0  0  0
   23.0681   19.3989   29.5753 H   0  0  0  0  0  0
   20.3670   22.5820   28.4757 H   0  0  0  0  0  0
   23.4017   19.5338   27.7365 H   0  0  0  0  0  0
   20.6673   20.5335   25.6534 H   0  0  0  0  0  0
   19.9749   21.3452   27.0157 H   0  0  0  0  0  0
   22.3250   19.5091   32.9836 H   0  0  0  0  0  0
   23.4620   18.8949   31.8304 H   0  0  0  0  0  0
   23.7519   21.3121   33.5688 H   0  0  0  0  0  0
   25.5940   22.6274   33.5112 H   0  0  0  0  0  0
   27.8342   23.1515   32.6565 H   0  0  0  0  0  0
   29.9518   22.1647   30.7691 H   0  0  0  0  0  0
   29.9530   19.9626   29.2164 H   0  0  0  0  0  0
   25.4169   19.0422   31.1504 H   0  0  0  0  0  0
   25.6709   18.7199   28.9887 H   0  0  0  0  0  0
   25.2983   16.5583   27.8917 H   0  0  0  0  0  0
   27.1259   14.9900   27.5660 H   0  0  0  0  0  0
   29.7835   17.6878   29.5993 H   0  0  0  0  0  0
   30.4259   13.6427   27.6330 H   0  0  0  0  0  0
   31.7958   15.1787   28.2486 H   0  0  0  0  0  0
   31.1816   16.7237   28.7330 H   0  0  0  0  0  0
  1  6  1  0  0  0
  1  2  2  0  0  0
  1 30  1  0  0  0
  2  3  1  0  0  0
  2 31  1  0  0  0
  3  4  2  0  0  0
  3 10  1  0  0  0
  4  5  1  0  0  0
  4 32  1  0  0  0
  5  6  2  0  0  0
  5  7  1  0  0  0
  6 33  1  0  0  0
  7  8  2  3  0  0
  7  9  1  0  0  0
  8 34  1  0  0  0
  9 35  1  0  0  0
  9 36  1  0  0  0
 10 11  1  0  0  0
 10 37  1  0  0  0
 10 38  1  0  0  0
 11 12  1  0  0  0
 11 39  1  0  0  0
 12 20  1  0  0  0
 12 13  2  0  0  0
 13 14  1  0  0  0
 13 40  1  0  0  0
 14 15  2  0  0  0
 14 41  1  0  0  0
 15 19  1  0  0  0
 15 16  1  0  0  0
 16 17  2  0  0  0
 16 42  1  0  0  0
 17 18  1  0  0  0
 17 43  1  0  0  0
 18 19  1  0  0  0
 18 21  1  0  0  0
 19 20  2  0  0  0
 20 44  1  0  0  0
 21 26  1  0  0  0
 21 22  2  0  0  0
 22 23  1  0  0  0
 22 45  1  0  0  0
 23 24  2  0  0  0
 23 46  1  0  0  0
 24 25  1  0  0  0
 24 47  1  0  0  0
 25 26  2  0  0  0
 25 27  1  0  0  0
 26 48  1  0  0  0
 27 28  2  3  0  0
 27 29  1  0  0  0
 28 49  1  0  0  0
 29 50  1  0  0  0
 29 51  1  0  0  0
M  END
> <s_m_entry_id>
39965

> <s_m_entry_name>
ligand_docking-pose.6

> <s_m_Source_Path>
/home/csk/Desktop/cluster/DUD-E-result/try1

> <s_m_Source_File>
ligand_docking-pose.sdf

> <i_m_Source_File_Index>
6

> <i_lp_mmshare_version>
53161

> <i_f3d_flags>
0

> <r_lp_tautomer_probability>
1

> <s_lp_Force_Field>
OPLS_2005

> <r_lp_Energy>
9.973399

> <b_lp_Chiralities_Consistent>
1

> <s_lp_Variant>
291551-2

> <s_i_glide_gridfile>
glide-grid_2ayw

> <i_i_glide_lignum>
664

> <i_i_glide_rotatable_bonds>
6

> <r_i_docking_score>
-8.25090509315844

> <r_i_glide_ligand_efficiency>
-0.284513968729601

> <r_i_glide_ligand_efficiency_sa>
-0.874117052289474

> <r_i_glide_ligand_efficiency_ln>
-1.88924804143254

> <r_i_glide_gscore>
-8.25090509315844

> <r_i_glide_lipo>
-2.03944232935148

> <r_i_glide_hbond>
-1.20075479836657

> <r_i_glide_metal>
0

> <r_i_glide_rewards>
-1.29768494922085

> <r_i_glide_evdw>
-35.3906326293945

> <r_i_glide_ecoul>
-15.9685325622559

> <r_i_glide_erotb>
0.531100545531838

> <r_i_glide_esite>
-0.0793120459432591

> <r_i_glide_emodel>
-74.780914121368

> <r_i_glide_energy>
-51.3591651916504

> <r_i_glide_einternal>
2.65210461616516

> <i_i_glide_confnum>
35

> <i_i_glide_posenum>
164

> <r_i_glide_eff_state_penalty>
0

> <s_user_duplicate_titles>
291551

> <s_m_subgroup_title>
dock_pv

> <s_m_subgroupid>
dock_pv1

> <b_m_subgroup_collapsed>
0

$$$$
549366
                    3D
 Schrodinger Suite 2021-1.
 60 62  0  0  1  0            999 V2000
   21.6599   21.5381   32.0465 C   0  0  0  0  0  0
   21.2309   21.7794   30.6033 C   0  0  0  0  0  0
   20.2924   22.7815   30.3587 C   0  0  0  0  0  0
   19.8375   23.0236   29.0691 C   0  0  0  0  0  0
   20.3214   22.2792   27.9938 C   0  0  0  0  0  0
   21.2744   21.2720   28.2203 C   0  0  0  0  0  0
   21.7314   21.0113   29.5306 C   0  0  0  0  0  0
   22.7240   19.8678   29.7936 C   0  0  0  0  0  0
   24.1357   20.2901   30.1930 C   0  0  0  0  0  0
   24.6445   21.3336   29.7909 O   0  0  0  0  0  0
   24.7813   19.4026   30.9589 N   0  0  0  0  0  0
   26.2097   19.4263   31.2376 C   0  0  0  0  0  0
   27.0188   18.4688   30.3673 C   0  0  0  0  0  0
   26.4355   17.6407   29.3973 C   0  0  0  0  0  0
   27.2113   16.7147   28.7075 C   0  0  0  0  0  0
   28.5879   16.5954   28.9584 C   0  0  0  0  0  0
   29.1538   17.4761   29.8917 C   0  0  0  0  0  0
   28.3867   18.3951   30.5907 C   0  0  0  0  0  0
   29.3953   15.5357   28.3031 C   0  0  0  0  0  0
   28.8399   14.5331   27.7921 N   0  0  0  0  0  0
   30.7524   15.7342   28.3294 N   0  0  0  0  0  0
   21.7501   20.5434   27.1525 O   0  0  0  0  0  0
   19.7956   22.5333   26.7183 N   0  0  0  0  0  0
   20.0614   24.0776   25.8964 S   0  0  0  0  0  0
   19.0841   24.1339   24.8097 O   0  0  0  0  0  0
   20.1300   25.1330   26.9135 O   0  0  0  0  0  0
   21.6514   23.9314   25.1143 C   0  0  0  0  0  0
   22.7898   24.4816   25.7044 C   0  0  0  0  0  0
   24.0152   24.3858   25.0510 C   0  0  0  0  0  0
   24.1008   23.7286   23.8234 C   0  0  0  0  0  0
   22.9730   23.1652   23.2240 C   0  0  0  0  0  0
   21.7423   23.2700   23.8856 C   0  0  0  0  0  0
   23.1525   22.5334   22.0095 O   0  0  0  0  0  0
   22.0123   22.1494   21.2468 C   0  0  0  0  0  0
   21.0712   22.1222   32.7548 H   0  0  0  0  0  0
   21.5359   20.4900   32.3181 H   0  0  0  0  0  0
   22.7100   21.7964   32.1822 H   0  0  0  0  0  0
   19.8978   23.3719   31.1728 H   0  0  0  0  0  0
   19.0970   23.7940   28.9090 H   0  0  0  0  0  0
   22.8104   19.2117   28.9284 H   0  0  0  0  0  0
   22.3517   19.2401   30.5957 H   0  0  0  0  0  0
   24.2798   18.5823   31.2691 H   0  0  0  0  0  0
   26.3580   19.1535   32.2838 H   0  0  0  0  0  0
   26.6319   20.4282   31.1251 H   0  0  0  0  0  0
   25.3760   17.6714   29.1913 H   0  0  0  0  0  0
   26.7219   16.0661   27.9935 H   0  0  0  0  0  0
   30.1951   17.4056   30.1662 H   0  0  0  0  0  0
   28.8592   19.0143   31.3403 H   0  0  0  0  0  0
   29.5600   13.9217   27.4324 H   0  0  0  0  0  0
   31.3769   15.0914   27.8412 H   0  0  0  0  0  0
   31.1268   16.6399   28.5906 H   0  0  0  0  0  0
   21.3632   20.8243   26.3207 H   0  0  0  0  0  0
   19.5002   21.7578   26.1433 H   0  0  0  0  0  0
   22.7271   24.9888   26.6570 H   0  0  0  0  0  0
   24.9039   24.8062   25.5000 H   0  0  0  0  0  0
   25.0606   23.6467   23.3383 H   0  0  0  0  0  0
   20.8496   22.8475   23.4498 H   0  0  0  0  0  0
   22.3530   21.7335   20.2984 H   0  0  0  0  0  0
   21.4179   21.3859   21.7507 H   0  0  0  0  0  0
   21.3729   23.0045   21.0207 H   0  0  0  0  0  0
  1  2  1  0  0  0
  1 35  1  0  0  0
  1 36  1  0  0  0
  1 37  1  0  0  0
  2  7  1  0  0  0
  2  3  2  0  0  0
  3  4  1  0  0  0
  3 38  1  0  0  0
  4  5  2  0  0  0
  4 39  1  0  0  0
  5  6  1  0  0  0
  5 23  1  0  0  0
  6  7  2  0  0  0
  6 22  1  0  0  0
  7  8  1  0  0  0
  8  9  1  0  0  0
  8 40  1  0  0  0
  8 41  1  0  0  0
  9 10  2  0  0  0
  9 11  1  0  0  0
 11 12  1  0  0  0
 11 42  1  0  0  0
 12 13  1  0  0  0
 12 43  1  0  0  0
 12 44  1  0  0  0
 13 18  1  0  0  0
 13 14  2  0  0  0
 14 15  1  0  0  0
 14 45  1  0  0  0
 15 16  2  0  0  0
 15 46  1  0  0  0
 16 17  1  0  0  0
 16 19  1  0  0  0
 17 18  2  0  0  0
 17 47  1  0  0  0
 18 48  1  0  0  0
 19 20  2  3  0  0
 19 21  1  0  0  0
 20 49  1  0  0  0
 21 50  1  0  0  0
 21 51  1  0  0  0
 22 52  1  0  0  0
 23 24  1  0  0  0
 23 53  1  0  0  0
 24 25  2  0  0  0
 24 26  2  0  0  0
 24 27  1  0  0  0
 27 32  1  0  0  0
 27 28  2  0  0  0
 28 29  1  0  0  0
 28 54  1  0  0  0
 29 30  2  0  0  0
 29 55  1  0  0  0
 30 31  1  0  0  0
 30 56  1  0  0  0
 31 32  2  0  0  0
 31 33  1  0  0  0
 32 57  1  0  0  0
 33 34  1  0  0  0
 34 58  1  0  0  0
 34 59  1  0  0  0
 34 60  1  0  0  0
M  END
> <s_m_entry_id>
39966

> <s_m_entry_name>
ligand_docking-pose.7

> <s_m_Source_Path>
/home/csk/Desktop/cluster/DUD-E-result/try1

> <s_m_Source_File>
ligand_docking-pose.sdf

> <i_m_Source_File_Index>
7

> <i_lp_mmshare_version>
53161

> <i_f3d_flags>
0

> <r_lp_tautomer_probability>
1

> <s_lp_Force_Field>
OPLS_2005

> <r_lp_Energy>
11.043629

> <b_lp_Chiralities_Consistent>
1

> <s_lp_Variant>
549366-1

> <s_i_glide_gridfile>
glide-grid_2ayw

> <i_i_glide_lignum>
1112

> <i_i_glide_rotatable_bonds>
11

> <r_i_docking_score>
-8.22212000702971

> <r_i_glide_ligand_efficiency>
-0.241827059030286

> <r_i_glide_ligand_efficiency_sa>
-0.783425793381859

> <r_i_glide_ligand_efficiency_ln>
-1.81649693220735

> <r_i_glide_gscore>
-8.22212000702971

> <r_i_glide_lipo>
-2.88422799056781

> <r_i_glide_hbond>
-1.1083624973011

> <r_i_glide_metal>
0

> <r_i_glide_rewards>
-0.427782510890534

> <r_i_glide_evdw>
-40.4090843200684

> <r_i_glide_ecoul>
-15.9271669387817

> <r_i_glide_erotb>
0.697229160485134

> <r_i_glide_esite>
-0.0894469119347227

> <r_i_glide_emodel>
-78.6425888526876

> <r_i_glide_energy>
-56.3362512588501

> <r_i_glide_einternal>
10.1420640945435

> <i_i_glide_confnum>
55

> <i_i_glide_posenum>
61

> <r_i_glide_eff_state_penalty>
0

> <s_user_duplicate_titles>
549366

> <s_m_subgroup_title>
dock_pv

> <s_m_subgroupid>
dock_pv1

> <b_m_subgroup_collapsed>
0

$$$$
326153
                    3D
 Schrodinger Suite 2021-1.
 63 67  0  0  1  0            999 V2000
   28.5806   17.2222   37.5413 C   0  0  0  0  0  0
   28.2201   17.3464   36.2068 C   0  0  0  0  0  0
   28.7113   18.3955   35.4340 C   0  0  0  0  0  0
   29.5468   19.4015   36.0033 C   0  0  0  0  0  0
   29.9291   19.2461   37.3778 C   0  0  0  0  0  0
   29.4374   18.1462   38.1253 C   0  0  0  0  0  0
   30.7970   20.1921   37.9732 C   0  0  0  0  0  0
   31.2716   21.2707   37.2404 C   0  0  0  0  0  0
   30.8899   21.4461   35.9181 C   0  0  0  0  0  0
   30.0210   20.5545   35.2792 C   0  0  0  0  0  0
   29.6818   20.8304   33.8304 C   0  0  0  0  0  0
   30.6026   20.7803   33.0091 O   0  0  0  0  0  0
   28.4146   21.2206   33.4991 N   0  0  0  0  0  0
   27.2486   21.1586   34.4133 C   0  0  0  0  0  0
   26.1739   20.1737   33.9204 C   0  0  0  0  0  0
   25.2141   19.5601   34.9542 C   0  0  0  0  0  0
   24.3175   18.5957   34.3058 N   0  3  0  0  0  0
   22.9951   18.3456   34.6506 C   0  0  0  0  0  0
   22.5069   17.3254   33.8391 C   0  0  0  0  0  0
   23.5283   16.9584   32.9910 N   0  0  0  0  0  0
   24.6270   17.7330   33.2651 C   0  0  0  0  0  0
   28.1035   21.6449   32.1098 C   0  0  0  0  0  0
   27.6153   20.5307   31.1819 C   0  0  0  0  0  0
   26.2970   20.5138   30.7170 C   0  0  0  0  0  0
   25.8226   19.4583   29.9382 C   0  0  0  0  0  0
   26.6963   18.4190   29.5404 C   0  0  0  0  0  0
   26.2715   17.3422   28.7272 C   0  0  0  0  0  0
   27.1722   16.3486   28.3494 C   0  0  0  0  0  0
   28.5158   16.3802   28.7508 C   0  0  0  0  0  0
   28.9336   17.4381   29.5680 C   0  0  0  0  0  0
   28.0531   18.4610   29.9701 C   0  0  0  0  0  0
   28.4930   19.5206   30.7930 C   0  0  0  0  0  0
   29.4582   15.3122   28.3506 C   0  0  0  0  0  0
   29.0590   14.1331   28.1894 N   0  0  0  0  0  0
   30.7530   15.7329   28.1912 N   0  0  0  0  0  0
   23.4896   16.2208   32.2869 H   0  0  0  0  0  0
   28.2064   16.3898   38.1218 H   0  0  0  0  0  0
   27.5636   16.6054   35.7762 H   0  0  0  0  0  0
   28.4461   18.4471   34.3891 H   0  0  0  0  0  0
   29.7271   18.0312   39.1601 H   0  0  0  0  0  0
   31.0941   20.0672   39.0050 H   0  0  0  0  0  0
   31.9400   21.9820   37.7026 H   0  0  0  0  0  0
   31.2775   22.3030   35.3841 H   0  0  0  0  0  0
   27.5515   20.8742   35.4197 H   0  0  0  0  0  0
   26.8167   22.1545   34.5270 H   0  0  0  0  0  0
   25.5593   20.6852   33.1823 H   0  0  0  0  0  0
   26.6883   19.3666   33.4042 H   0  0  0  0  0  0
   25.7529   19.0453   35.7505 H   0  0  0  0  0  0
   24.6167   20.3412   35.4273 H   0  0  0  0  0  0
   22.5289   18.8942   35.4579 H   0  0  0  0  0  0
   21.5534   16.8179   33.7944 H   0  0  0  0  0  0
   25.5772   17.6505   32.7583 H   0  0  0  0  0  0
   28.9856   22.0913   31.6449 H   0  0  0  0  0  0
   27.3640   22.4462   32.1376 H   0  0  0  0  0  0
   25.6173   21.3068   30.9948 H   0  0  0  0  0  0
   24.7917   19.4407   29.6146 H   0  0  0  0  0  0
   25.2433   17.2914   28.3954 H   0  0  0  0  0  0
   26.8137   15.5391   27.7281 H   0  0  0  0  0  0
   29.9529   17.4848   29.9236 H   0  0  0  0  0  0
   29.5210   19.5252   31.1220 H   0  0  0  0  0  0
   29.8247   13.5318   27.9213 H   0  0  0  0  0  0
   31.4508   15.1031   27.7926 H   0  0  0  0  0  0
   31.0131   16.7011   28.3280 H   0  0  0  0  0  0
  1  6  1  0  0  0
  1  2  2  0  0  0
  1 37  1  0  0  0
  2  3  1  0  0  0
  2 38  1  0  0  0
  3  4  2  0  0  0
  3 39  1  0  0  0
  4 10  1  0  0  0
  4  5  1  0  0  0
  5  6  2  0  0  0
  5  7  1  0  0  0
  6 40  1  0  0  0
  7  8  2  0  0  0
  7 41  1  0  0  0
  8  9  1  0  0  0
  8 42  1  0  0  0
  9 10  2  0  0  0
  9 43  1  0  0  0
 10 11  1  0  0  0
 11 12  2  0  0  0
 11 13  1  0  0  0
 13 14  1  0  0  0
 13 22  1  0  0  0
 14 15  1  0  0  0
 14 44  1  0  0  0
 14 45  1  0  0  0
 15 16  1  0  0  0
 15 46  1  0  0  0
 15 47  1  0  0  0
 16 17  1  0  0  0
 16 48  1  0  0  0
 16 49  1  0  0  0
 17 21  2  0  0  0
 17 18  1  0  0  0
 18 19  2  0  0  0
 18 50  1  0  0  0
 19 20  1  0  0  0
 19 51  1  0  0  0
 20 36  1  0  0  0
 20 21  1  0  0  0
 21 52  1  0  0  0
 22 23  1  0  0  0
 22 53  1  0  0  0
 22 54  1  0  0  0
 23 32  1  0  0  0
 23 24  2  0  0  0
 24 25  1  0  0  0
 24 55  1  0  0  0
 25 26  2  0  0  0
 25 56  1  0  0  0
 26 31  1  0  0  0
 26 27  1  0  0  0
 27 28  2  0  0  0
 27 57  1  0  0  0
 28 29  1  0  0  0
 28 58  1  0  0  0
 29 30  2  0  0  0
 29 33  1  0  0  0
 30 31  1  0  0  0
 30 59  1  0  0  0
 31 32  2  0  0  0
 32 60  1  0  0  0
 33 34  2  3  0  0
 33 35  1  0  0  0
 34 61  1  0  0  0
 35 62  1  0  0  0
 35 63  1  0  0  0
M  CHG  1  17   1
M  END
> <s_m_entry_id>
39967

> <s_m_entry_name>
ligand_docking-pose.8

> <s_m_Source_Path>
/home/csk/Desktop/cluster/DUD-E-result/try1

> <s_m_Source_File>
ligand_docking-pose.sdf

> <i_m_Source_File_Index>
8

> <i_lp_mmshare_version>
53161

> <i_f3d_flags>
0

> <r_lp_tautomer_probability>
1

> <s_lp_Force_Field>
OPLS_2005

> <r_lp_Energy>
38.890272

> <b_lp_Chiralities_Consistent>
1

> <s_lp_Variant>
326153-1

> <s_i_glide_gridfile>
glide-grid_2ayw

> <i_i_glide_lignum>
97

> <i_i_glide_rotatable_bonds>
9

> <r_i_docking_score>
-8.17415005540482

> <r_i_glide_ligand_efficiency>
-0.233547144440138

> <r_i_glide_ligand_efficiency_sa>
-0.763948195113516

> <r_i_glide_ligand_efficiency_ln>
-1.79440735264743

> <r_i_glide_gscore>
-8.17415005540482

> <r_i_glide_lipo>
-2.36292561454133

> <r_i_glide_hbond>
-1.27410225812721

> <r_i_glide_metal>
0

> <r_i_glide_rewards>
-0.72171960025838

> <r_i_glide_evdw>
-38.5485153198242

> <r_i_glide_ecoul>
-15.6200428009033

> <r_i_glide_erotb>
0.564899209893373

> <r_i_glide_esite>
-0.109869606244559

> <r_i_glide_emodel>
-80.8426807994368

> <r_i_glide_energy>
-54.1685581207275

> <r_i_glide_einternal>
7.74943828582764

> <i_i_glide_confnum>
1

> <i_i_glide_posenum>
15

> <r_i_glide_eff_state_penalty>
0

> <s_user_duplicate_titles>
326153

> <s_m_subgroup_title>
dock_pv

> <s_m_subgroupid>
dock_pv1

> <b_m_subgroup_collapsed>
0

$$$$
22222
                    3D
 Schrodinger Suite 2021-1.
 58 60  0  0  1  0            999 V2000
   20.9990   22.5901   30.4546 C   0  0  0  0  0  0
   21.2700   22.5642   28.9527 C   0  0  0  0  0  0
   20.9604   23.6333   28.1904 C   0  0  0  0  0  0
   21.2286   23.5702   26.7729 C   0  0  0  0  0  0
   21.7912   22.4621   26.2374 C   0  0  0  0  0  0
   22.1745   21.3079   27.0742 C   0  0  0  0  0  0
   22.7518   20.3225   26.5918 O   0  0  0  0  0  0
   21.8576   21.4102   28.4250 N   0  0  0  0  0  0
   22.2299   20.2349   29.2593 C   0  0  0  0  0  0
   23.6592   20.3359   29.8113 C   0  0  0  0  0  0
   24.3530   21.3366   29.6308 O   0  0  0  0  0  0
   24.0692   19.2720   30.5157 N   0  0  0  0  0  0
   25.4007   19.1129   31.1073 C   0  0  0  0  0  0
   26.3821   18.2843   30.2787 C   0  0  0  0  0  0
   27.7531   18.5040   30.4176 C   0  0  0  0  0  0
   28.6646   17.7084   29.7287 C   0  0  0  0  0  0
   28.2320   16.6657   28.8885 C   0  0  0  0  0  0
   26.8467   16.5045   28.7117 C   0  0  0  0  0  0
   25.9346   17.3038   29.3912 C   0  0  0  0  0  0
   29.1812   15.7198   28.2390 C   0  0  0  0  0  0
   28.7858   14.6126   27.7910 N   0  0  0  0  0  0
   30.4883   16.1329   28.1915 N   0  0  0  0  0  0
   22.0534   22.2934   24.8542 N   0  0  0  0  0  0
   21.2164   23.1040   23.5249 S   0  0  0  0  0  0
   21.1536   22.1406   22.4213 O   0  0  0  0  0  0
   19.9947   23.7330   24.0427 O   0  0  0  0  0  0
   22.4060   24.4718   23.0102 C   0  0  0  0  0  0
   21.8793   25.2105   21.7911 C   0  0  0  0  0  0
   20.8829   26.1782   21.9414 C   0  0  0  0  0  0
   20.3613   26.8187   20.8201 C   0  0  0  0  0  0
   20.8417   26.4912   19.5534 C   0  0  0  0  0  0
   21.8367   25.5280   19.3978 C   0  0  0  0  0  0
   22.3529   24.8835   20.5185 C   0  0  0  0  0  0
   20.5931   23.5509   30.7738 H   0  0  0  0  0  0
   20.2711   21.8267   30.7317 H   0  0  0  0  0  0
   21.9158   22.4264   31.0214 H   0  0  0  0  0  0
   20.5136   24.5189   28.6192 H   0  0  0  0  0  0
   20.9734   24.4209   26.1586 H   0  0  0  0  0  0
   22.1035   19.3014   28.7091 H   0  0  0  0  0  0
   21.5523   20.1324   30.0995 H   0  0  0  0  0  0
   23.4368   18.4894   30.6164 H   0  0  0  0  0  0
   25.2880   18.6250   32.0762 H   0  0  0  0  0  0
   25.8487   20.0896   31.3070 H   0  0  0  0  0  0
   28.1215   19.2657   31.0897 H   0  0  0  0  0  0
   29.7154   17.8804   29.9096 H   0  0  0  0  0  0
   26.4583   15.7284   28.0668 H   0  0  0  0  0  0
   24.8798   17.1146   29.2589 H   0  0  0  0  0  0
   29.5830   14.1043   27.4295 H   0  0  0  0  0  0
   31.1812   15.5395   27.7467 H   0  0  0  0  0  0
   30.7963   17.0400   28.5344 H   0  0  0  0  0  0
   22.8189   21.6683   24.5868 H   0  0  0  0  0  0
   22.5246   25.1418   23.8606 H   0  0  0  0  0  0
   23.3712   24.0072   22.8075 H   0  0  0  0  0  0
   20.4996   26.4204   22.9220 H   0  0  0  0  0  0
   19.5845   27.5610   20.9310 H   0  0  0  0  0  0
   20.4373   26.9871   18.6832 H   0  0  0  0  0  0
   22.2025   25.2769   18.4128 H   0  0  0  0  0  0
   23.1176   24.1297   20.3946 H   0  0  0  0  0  0
  1  2  1  0  0  0
  1 34  1  0  0  0
  1 35  1  0  0  0
  1 36  1  0  0  0
  2  8  1  0  0  0
  2  3  2  0  0  0
  3  4  1  0  0  0
  3 37  1  0  0  0
  4  5  2  0  0  0
  4 38  1  0  0  0
  5  6  1  0  0  0
  5 23  1  0  0  0
  6  7  2  0  0  0
  6  8  1  0  0  0
  8  9  1  0  0  0
  9 10  1  0  0  0
  9 39  1  0  0  0
  9 40  1  0  0  0
 10 11  2  0  0  0
 10 12  1  0  0  0
 12 13  1  0  0  0
 12 41  1  0  0  0
 13 14  1  0  0  0
 13 42  1  0  0  0
 13 43  1  0  0  0
 14 19  1  0  0  0
 14 15  2  0  0  0
 15 16  1  0  0  0
 15 44  1  0  0  0
 16 17  2  0  0  0
 16 45  1  0  0  0
 17 18  1  0  0  0
 17 20  1  0  0  0
 18 19  2  0  0  0
 18 46  1  0  0  0
 19 47  1  0  0  0
 20 21  2  3  0  0
 20 22  1  0  0  0
 21 48  1  0  0  0
 22 49  1  0  0  0
 22 50  1  0  0  0
 23 24  1  0  0  0
 23 51  1  0  0  0
 24 25  2  0  0  0
 24 26  2  0  0  0
 24 27  1  0  0  0
 27 28  1  0  0  0
 27 52  1  0  0  0
 27 53  1  0  0  0
 28 33  1  0  0  0
 28 29  2  0  0  0
 29 30  1  0  0  0
 29 54  1  0  0  0
 30 31  2  0  0  0
 30 55  1  0  0  0
 31 32  1  0  0  0
 31 56  1  0  0  0
 32 33  2  0  0  0
 32 57  1  0  0  0
 33 58  1  0  0  0
M  END
> <s_m_entry_id>
39968

> <s_m_entry_name>
ligand_docking-pose.9

> <s_m_Source_Path>
/home/csk/Desktop/cluster/DUD-E-result/try1

> <s_m_Source_File>
ligand_docking-pose.sdf

> <i_m_Source_File_Index>
9

> <i_lp_mmshare_version>
53161

> <i_f3d_flags>
0

> <r_lp_tautomer_probability>
1

> <s_lp_Force_Field>
OPLS_2005

> <r_lp_Energy>
15.842538

> <b_lp_Chiralities_Consistent>
1

> <s_lp_Variant>
22222-1

> <s_i_glide_gridfile>
glide-grid_2ayw

> <i_i_glide_lignum>
1174

> <i_i_glide_rotatable_bonds>
10

> <r_i_docking_score>
-8.13002449952272

> <r_i_glide_ligand_efficiency>
-0.246364378773416

> <r_i_glide_ligand_efficiency_sa>
-0.79022220168282

> <r_i_glide_ligand_efficiency_ln>
-1.80807535367987

> <r_i_glide_gscore>
-8.13002449952272

> <r_i_glide_lipo>
-2.06845380630508

> <r_i_glide_hbond>
-1.11154911009858

> <r_i_glide_metal>
0

> <r_i_glide_rewards>
-0.994541587956214

> <r_i_glide_evdw>
-44.437931060791

> <r_i_glide_ecoul>
-16.1365699768066

> <r_i_glide_erotb>
0.738648708828467

> <r_i_glide_esite>
-0.0517466544307665

> <r_i_glide_emodel>
-88.0625495428993

> <r_i_glide_energy>
-60.5745010375977

> <r_i_glide_einternal>
4.07848024368286

> <i_i_glide_confnum>
25

> <i_i_glide_posenum>
181

> <r_i_glide_eff_state_penalty>
0

> <s_user_duplicate_titles>
22222

> <s_m_subgroup_title>
dock_pv

> <s_m_subgroupid>
dock_pv1

> <b_m_subgroup_collapsed>
0

$$$$
304776
                    3D
 Schrodinger Suite 2021-1.
 61 64  0  0  1  0            999 V2000
   33.4599   23.6052   24.2182 C   0  0  0  0  0  0
   32.3690   24.1386   25.1228 C   0  0  0  0  0  0
   31.5455   24.9327   24.5915 N   0  0  0  0  0  0
   32.4221   23.6936   26.4385 N   0  0  0  0  0  0
   33.6398   23.1702   27.0758 C   0  0  0  0  0  0
   33.3860   23.3889   28.5637 C   0  0  0  0  0  0
   31.8905   23.1974   28.6595 C   0  0  2  0  0  0
   31.3893   23.9739   27.4426 C   0  0  0  0  0  0
   31.4364   23.7311   29.9048 O   0  0  0  0  0  0
   30.3521   23.1712   30.5566 C   0  0  0  0  0  0
   30.0845   23.6413   31.8413 C   0  0  0  0  0  0
   29.0031   23.1498   32.5702 C   0  0  0  0  0  0
   28.1609   22.1776   32.0207 C   0  0  0  0  0  0
   28.4381   21.6995   30.7356 C   0  0  0  0  0  0
   29.5221   22.1848   30.0105 C   0  0  0  0  0  0
   26.9232   21.7042   32.8101 C   0  0  2  0  0  0
   26.8768   20.1677   33.0910 C   0  0  0  0  0  0
   26.6631   19.2353   31.8967 C   0  0  0  0  0  0
   25.3817   19.0133   31.3856 C   0  0  0  0  0  0
   25.1815   18.1820   30.2862 C   0  0  0  0  0  0
   26.2804   17.5281   29.6816 C   0  0  0  0  0  0
   26.1326   16.6384   28.5919 C   0  0  0  0  0  0
   27.2432   15.9480   28.1086 C   0  0  0  0  0  0
   28.4869   16.1330   28.6349 N   0  3  0  0  0  0
   28.6710   17.0402   29.6306 C   0  0  0  0  0  0
   27.5883   17.7340   30.2133 C   0  0  0  0  0  0
   27.7596   18.5874   31.3265 C   0  0  0  0  0  0
   29.5675   15.3115   28.1910 C   0  0  0  0  0  0
   29.3885   14.1331   27.7958 N   0  0  0  0  0  0
   30.8006   15.9069   28.1911 N   0  0  0  0  0  0
   25.6130   22.2534   32.1925 C   0  0  0  0  0  0
   25.3052   22.1175   31.0090 O   0  0  0  0  0  0
   24.8307   22.8803   33.1178 O   0  0  0  0  0  0
   33.6186   22.5362   24.3698 H   0  0  0  0  0  0
   34.3840   24.1319   24.4244 H   0  0  0  0  0  0
   33.2504   23.7329   23.1609 H   0  0  0  0  0  0
   31.7752   25.1096   23.6189 H   0  0  0  0  0  0
   33.7283   22.1068   26.8500 H   0  0  0  0  0  0
   34.5339   23.7197   26.7713 H   0  0  0  0  0  0
   33.9560   22.6753   29.1584 H   0  0  0  0  0  0
   33.6716   24.3951   28.8775 H   0  0  0  0  0  0
   31.6721   22.1336   28.5900 H   0  0  0  0  0  0
   31.2890   25.0441   27.6331 H   0  0  0  0  0  0
   30.4179   23.5978   27.1157 H   0  0  0  0  0  0
   30.7174   24.4014   32.2729 H   0  0  0  0  0  0
   28.8161   23.5446   33.5577 H   0  0  0  0  0  0
   27.7846   20.9871   30.2599 H   0  0  0  0  0  0
   29.6581   21.8105   29.0079 H   0  0  0  0  0  0
   27.0154   22.1569   33.7983 H   0  0  0  0  0  0
   27.7933   19.8738   33.6050 H   0  0  0  0  0  0
   26.1006   19.9505   33.8272 H   0  0  0  0  0  0
   24.5280   19.4980   31.8406 H   0  0  0  0  0  0
   24.1817   18.0107   29.9127 H   0  0  0  0  0  0
   25.1530   16.4575   28.1742 H   0  0  0  0  0  0
   27.1486   15.2235   27.3087 H   0  0  0  0  0  0
   29.6670   17.1450   30.0414 H   0  0  0  0  0  0
   28.7524   18.7373   31.7303 H   0  0  0  0  0  0
   30.2578   13.7049   27.4866 H   0  0  0  0  0  0
   31.5944   15.3923   27.8087 H   0  0  0  0  0  0
   30.9635   16.8690   28.4700 H   0  0  0  0  0  0
   25.2189   22.8928   33.9936 H   0  0  0  0  0  0
  1  2  1  0  0  0
  1 34  1  0  0  0
  1 35  1  0  0  0
  1 36  1  0  0  0
  2  3  2  3  0  0
  2  4  1  0  0  0
  3 37  1  0  0  0
  4  8  1  0  0  0
  4  5  1  0  0  0
  5  6  1  0  0  0
  5 38  1  0  0  0
  5 39  1  0  0  0
  6  7  1  0  0  0
  6 40  1  0  0  0
  6 41  1  0  0  0
  7  8  1  0  0  0
  7  9  1  0  0  0
  7 42  1  0  0  0
  8 43  1  0  0  0
  8 44  1  0  0  0
  9 10  1  0  0  0
 10 15  1  0  0  0
 10 11  2  0  0  0
 11 12  1  0  0  0
 11 45  1  0  0  0
 12 13  2  0  0  0
 12 46  1  0  0  0
 13 14  1  0  0  0
 13 16  1  0  0  0
 14 15  2  0  0  0
 14 47  1  0  0  0
 15 48  1  0  0  0
 16 17  1  0  0  0
 16 31  1  0  0  0
 16 49  1  0  0  0
 17 18  1  0  0  0
 17 50  1  0  0  0
 17 51  1  0  0  0
 18 27  1  0  0  0
 18 19  2  0  0  0
 19 20  1  0  0  0
 19 52  1  0  0  0
 20 21  2  0  0  0
 20 53  1  0  0  0
 21 26  1  0  0  0
 21 22  1  0  0  0
 22 23  2  0  0  0
 22 54  1  0  0  0
 23 24  1  0  0  0
 23 55  1  0  0  0
 24 25  2  0  0  0
 24 28  1  0  0  0
 25 26  1  0  0  0
 25 56  1  0  0  0
 26 27  2  0  0  0
 27 57  1  0  0  0
 28 29  2  3  0  0
 28 30  1  0  0  0
 29 58  1  0  0  0
 30 59  1  0  0  0
 30 60  1  0  0  0
 31 32  2  0  0  0
 31 33  1  0  0  0
 33 61  1  0  0  0
M  CHG  1  24   1
M  END
> <s_m_entry_id>
39969

> <s_m_entry_name>
ligand_docking-pose.10

> <s_m_Source_Path>
/home/csk/Desktop/cluster/DUD-E-result/try1

> <s_m_Source_File>
ligand_docking-pose.sdf

> <i_m_Source_File_Index>
10

> <i_lp_mmshare_version>
53161

> <i_f3d_flags>
0

> <r_lp_tautomer_probability>
0.499900269896156

> <s_lp_Force_Field>
OPLS_2005

> <r_lp_Energy>
46.972112

> <b_lp_Chiralities_Consistent>
1

> <s_lp_Variant>
304776-6

> <s_i_glide_gridfile>
glide-grid_2ayw

> <i_i_glide_lignum>
1819

> <i_i_glide_rotatable_bonds>
9

> <r_i_docking_score>
-8.11321771100988

> <r_i_glide_ligand_efficiency>
-0.245855082151815

> <r_i_glide_ligand_efficiency_sa>
-0.788588615286788

> <r_i_glide_ligand_efficiency_ln>
-1.80433761093551

> <r_i_glide_gscore>
-8.11321771100988

> <r_i_glide_lipo>
-2.09482342880032

> <r_i_glide_hbond>
-1.30809730958587

> <r_i_glide_metal>
0

> <r_i_glide_rewards>
-1.52086804878681

> <r_i_glide_evdw>
-30.4802169799805

> <r_i_glide_ecoul>
-14.6082887649536

> <r_i_glide_erotb>
0.602376017314966

> <r_i_glide_esite>
-0.0765507774097848

> <r_i_glide_emodel>
-65.7453341095084

> <r_i_glide_energy>
-45.0885057449341

> <r_i_glide_einternal>
12.0151290893555

> <i_i_glide_confnum>
33

> <i_i_glide_posenum>
367

> <r_i_glide_eff_state_penalty>
0

> <s_user_duplicate_titles>
304776

> <s_m_subgroup_title>
dock_pv

> <s_m_subgroupid>
dock_pv1

> <b_m_subgroup_collapsed>
0

$$$$
232391
                    3D
 Schrodinger Suite 2021-1.
 68 70  0  0  1  0            999 V2000
   22.1740   23.3298   20.1730 C   0  0  0  0  0  0
   22.4644   22.2880   21.2822 C   0  0  0  0  0  0
   21.8625   22.6944   22.6415 C   0  0  0  0  0  0
   22.3837   24.1010   23.0089 C   0  0  0  0  0  0
   21.8871   25.1309   21.9715 C   0  0  0  0  0  0
   22.4768   24.7907   20.5886 C   0  0  0  0  0  0
   21.9423   24.5589   24.3558 N   0  0  2  0  0  0
   20.2897   24.3351   24.9278 S   0  0  0  0  0  0
   19.4176   24.1334   23.7745 O   0  0  0  0  0  0
   20.0124   25.4011   25.8945 O   0  0  0  0  0  0
   20.3353   22.8150   25.7856 N   0  0  2  0  0  0
   21.0670   22.7804   27.0694 C   0  0  1  0  0  0
   20.0536   23.0773   28.1900 C   0  0  0  0  0  0
   20.6945   22.7939   29.5395 C   0  0  0  0  0  0
   21.1043   21.3193   29.6259 C   0  0  0  0  0  0
   21.7848   20.8098   28.4111 N   0  0  0  0  0  0
   21.7853   21.4108   27.1778 C   0  0  0  0  0  0
   22.3515   20.9163   26.1971 O   0  0  0  0  0  0
   22.4918   19.5266   28.5621 C   0  0  0  0  0  0
   23.9550   19.7290   28.9901 C   0  0  0  0  0  0
   24.3530   20.7909   29.4734 O   0  0  0  0  0  0
   24.7530   18.6726   28.7641 N   0  0  0  0  0  0
   26.1870   18.5502   29.0370 C   0  0  1  0  0  0
   26.6044   18.8285   30.5073 C   0  0  0  0  0  0
   28.1225   18.7133   30.7253 C   0  0  0  0  0  0
   28.6414   17.3768   30.1901 C   0  0  0  0  0  0
   28.3457   17.1721   28.6958 C   0  0  2  0  0  0
   26.7965   17.2329   28.4778 C   0  0  1  0  0  0
   26.0803   16.1077   28.9773 O   0  0  0  0  0  0
   29.0312   15.8820   28.1898 C   0  0  0  0  0  0
   28.3430   14.9078   27.7910 N   0  0  0  0  0  0
   30.3994   15.9257   28.1911 N   0  0  0  0  0  0
   21.8723   23.5176   27.0747 H   0  0  0  0  0  0
   26.6696   19.3330   28.4611 H   0  0  0  0  0  0
   22.7414   23.0769   19.2752 H   0  0  0  0  0  0
   21.1238   23.2585   19.8905 H   0  0  0  0  0  0
   23.5396   22.1372   21.3824 H   0  0  0  0  0  0
   22.0426   21.3325   20.9826 H   0  0  0  0  0  0
   22.1318   21.9746   23.4155 H   0  0  0  0  0  0
   20.7776   22.6563   22.5391 H   0  0  0  0  0  0
   23.4738   24.1380   22.9535 H   0  0  0  0  0  0
   20.7983   25.1306   21.9044 H   0  0  0  0  0  0
   22.1765   26.1429   22.2568 H   0  0  0  0  0  0
   23.5525   24.9508   20.6073 H   0  0  0  0  0  0
   22.0873   25.4772   19.8361 H   0  0  0  0  0  0
   22.2515   25.5143   24.5482 H   0  0  0  0  0  0
   20.6386   22.0501   25.1742 H   0  0  0  0  0  0
   19.1522   22.4708   28.0747 H   0  0  0  0  0  0
   19.7292   24.1178   28.1470 H   0  0  0  0  0  0
   20.0109   23.0386   30.3536 H   0  0  0  0  0  0
   21.5716   23.4271   29.6847 H   0  0  0  0  0  0
   20.1753   20.7476   29.6636 H   0  0  0  0  0  0
   21.6356   21.0472   30.5386 H   0  0  0  0  0  0
   22.4351   18.9331   27.6486 H   0  0  0  0  0  0
   21.9762   18.9338   29.3114 H   0  0  0  0  0  0
   24.3529   17.8895   28.2643 H   0  0  0  0  0  0
   26.2869   19.8222   30.8236 H   0  0  0  0  0  0
   26.0974   18.1184   31.1633 H   0  0  0  0  0  0
   28.6369   19.5361   30.2268 H   0  0  0  0  0  0
   28.3536   18.8037   31.7877 H   0  0  0  0  0  0
   28.2024   16.5336   30.7048 H   0  0  0  0  0  0
   29.7127   17.3185   30.3900 H   0  0  0  0  0  0
   28.7971   17.9978   28.1423 H   0  0  0  0  0  0
   26.6155   17.2144   27.4000 H   0  0  0  0  0  0
   25.1770   16.3656   29.1817 H   0  0  0  0  0  0
   27.3566   15.1157   27.9166 H   0  0  0  0  0  0
   30.9265   15.1539   27.7972 H   0  0  0  0  0  0
   30.8992   16.7619   28.4710 H   0  0  0  0  0  0
  1  6  1  0  0  0
  1  2  1  0  0  0
  1 35  1  0  0  0
  1 36  1  0  0  0
  2  3  1  0  0  0
  2 37  1  0  0  0
  2 38  1  0  0  0
  3  4  1  0  0  0
  3 39  1  0  0  0
  3 40  1  0  0  0
  4  5  1  0  0  0
  4  7  1  0  0  0
  4 41  1  0  0  0
  5  6  1  0  0  0
  5 42  1  0  0  0
  5 43  1  0  0  0
  6 44  1  0  0  0
  6 45  1  0  0  0
  7  8  1  0  0  0
  7 46  1  0  0  0
  8  9  2  0  0  0
  8 10  2  0  0  0
  8 11  1  0  0  0
 11 12  1  0  0  0
 11 47  1  0  0  0
 12 33  1  0  0  0
 12 17  1  0  0  0
 12 13  1  0  0  0
 13 14  1  0  0  0
 13 48  1  0  0  0
 13 49  1  0  0  0
 14 15  1  0  0  0
 14 50  1  0  0  0
 14 51  1  0  0  0
 15 16  1  0  0  0
 15 52  1  0  0  0
 15 53  1  0  0  0
 16 17  1  0  0  0
 16 19  1  0  0  0
 17 18  2  0  0  0
 19 20  1  0  0  0
 19 54  1  0  0  0
 19 55  1  0  0  0
 20 21  2  0  0  0
 20 22  1  0  0  0
 22 23  1  0  0  0
 22 56  1  0  0  0
 23 34  1  0  0  0
 23 28  1  0  0  0
 23 24  1  0  0  0
 24 25  1  0  0  0
 24 57  1  0  0  0
 24 58  1  0  0  0
 25 26  1  0  0  0
 25 59  1  0  0  0
 25 60  1  0  0  0
 26 27  1  0  0  0
 26 61  1  0  0  0
 26 62  1  0  0  0
 27 28  1  0  0  0
 27 30  1  0  0  0
 27 63  1  0  0  0
 28 29  1  0  0  0
 28 64  1  0  0  0
 29 65  1  0  0  0
 30 31  2  3  0  0
 30 32  1  0  0  0
 31 66  1  0  0  0
 32 67  1  0  0  0
 32 68  1  0  0  0
M  END
> <s_m_entry_id>
39972

> <s_m_entry_name>
ligand_docking-pose.13

> <s_m_Source_Path>
/home/csk/Desktop/cluster/DUD-E-result/try1

> <s_m_Source_File>
ligand_docking-pose.sdf

> <i_m_Source_File_Index>
13

> <i_lp_mmshare_version>
53161

> <i_f3d_flags>
0

> <r_lp_tautomer_probability>
1

> <s_lp_Force_Field>
OPLS_2005

> <r_lp_Energy>
26.62528

> <b_lp_Chiralities_Consistent>
1

> <s_lp_Variant>
232391-4

> <s_i_glide_gridfile>
glide-grid_2ayw

> <i_i_glide_lignum>
966

> <i_i_glide_rotatable_bonds>
10

> <r_i_docking_score>
-7.88345623394104

> <r_i_glide_ligand_efficiency>
-0.246358007310658

> <r_i_glide_ligand_efficiency_sa>
-0.782137919027893

> <r_i_glide_ligand_efficiency_ln>
-1.76532074568015

> <r_i_glide_gscore>
-7.88345623394104

> <r_i_glide_lipo>
-2.55506550354972

> <r_i_glide_hbond>
-0.897937754741283

> <r_i_glide_metal>
0

> <r_i_glide_rewards>
-1.22887206524299

> <r_i_glide_evdw>
-37.860538482666

> <r_i_glide_ecoul>
-12.6961908340454

> <r_i_glide_erotb>
0.63374415093623

> <r_i_glide_esite>
-0.0378695121031684

> <r_i_glide_emodel>
-68.2700440397325

> <r_i_glide_energy>
-50.5567293167114

> <r_i_glide_einternal>
9.57427024841309

> <i_i_glide_confnum>
13

> <i_i_glide_posenum>
294

> <r_i_glide_eff_state_penalty>
0

> <s_user_duplicate_titles>
232391

> <s_m_subgroup_title>
dock_pv

> <s_m_subgroupid>
dock_pv1

> <b_m_subgroup_collapsed>
0

$$$$
74803
                    3D
 Schrodinger Suite 2021-1.
 56 58  0  0  1  0            999 V2000
   25.9530   16.1321   28.5435 C   0  0  0  0  0  0
   27.1012   15.4185   28.2340 C   0  0  0  0  0  0
   28.3773   15.8996   28.5808 C   0  0  0  0  0  0
   28.4504   17.1527   29.2231 C   0  0  0  0  0  0
   27.2946   17.8605   29.5714 C   0  0  0  0  0  0
   26.0437   17.3465   29.2104 C   0  0  0  0  0  0
   27.4180   19.0285   30.2929 O   0  0  0  0  0  0
   26.5909   19.2028   31.3783 C   0  0  0  0  0  0
   26.9157   18.6648   32.6233 C   0  0  0  0  0  0
   26.0149   18.8272   33.6769 C   0  0  0  0  0  0
   24.8115   19.5094   33.4630 C   0  0  0  0  0  0
   24.5564   20.0411   32.1833 C   0  0  0  0  0  0
   25.4469   19.8977   31.1550 N   0  0  0  0  0  0
   23.3981   20.7668   31.9511 O   0  0  0  0  0  0
   23.1928   21.4197   30.7569 C   0  0  0  0  0  0
   23.6821   22.7124   30.5822 C   0  0  0  0  0  0
   23.5010   23.3638   29.3650 C   0  0  0  0  0  0
   22.8203   22.7275   28.3280 C   0  0  0  0  0  0
   22.2793   21.4360   28.4821 C   0  0  0  0  0  0
   22.4881   20.7977   29.7236 C   0  0  0  0  0  0
   21.5075   20.8066   27.3715 C   0  0  0  0  0  0
   21.5519   21.2635   26.1971 N   0  0  0  0  0  0
   20.7453   19.7323   27.7510 N   0  0  0  0  0  0
   23.9464   19.6879   34.5553 N   0  0  0  0  0  0
   22.6930   19.2052   34.6404 C   0  0  0  0  0  0
   22.1382   18.5354   33.7727 O   0  0  0  0  0  0
   22.1151   19.5236   35.8099 N   0  0  0  0  0  0
   20.8393   18.9742   36.2959 C   0  0  0  0  0  0
   19.5817   19.7083   35.7915 C   0  0  0  0  0  0
   18.4757   19.3335   36.1744 O   0  0  0  0  0  0
   19.6909   20.7307   34.9428 N   0  0  0  0  0  0
   29.5682   15.0622   28.3074 C   0  0  0  0  0  0
   29.4495   13.8184   28.1909 N   0  0  0  0  0  0
   30.7532   15.7331   28.1910 N   0  0  0  0  0  0
   24.9909   15.7239   28.2838 H   0  0  0  0  0  0
   26.9755   14.4727   27.7283 H   0  0  0  0  0  0
   29.4052   17.5617   29.5254 H   0  0  0  0  0  0
   25.1362   17.8747   29.4604 H   0  0  0  0  0  0
   27.8449   18.1325   32.7643 H   0  0  0  0  0  0
   26.2509   18.4140   34.6479 H   0  0  0  0  0  0
   24.2157   23.1984   31.3853 H   0  0  0  0  0  0
   23.8894   24.3618   29.2232 H   0  0  0  0  0  0
   22.6941   23.2662   27.3979 H   0  0  0  0  0  0
   22.1269   19.7960   29.9059 H   0  0  0  0  0  0
   20.9415   20.7544   25.5698 H   0  0  0  0  0  0
   20.1344   19.2849   27.0818 H   0  0  0  0  0  0
   20.6963   19.4402   28.7143 H   0  0  0  0  0  0
   24.3546   20.0958   35.3836 H   0  0  0  0  0  0
   22.5871   20.1593   36.4339 H   0  0  0  0  0  0
   20.8370   19.0050   37.3847 H   0  0  0  0  0  0
   20.7529   17.9193   36.0293 H   0  0  0  0  0  0
   18.8549   21.1890   34.6149 H   0  0  0  0  0  0
   20.5952   21.0050   34.5898 H   0  0  0  0  0  0
   28.5138   13.4948   28.3771 H   0  0  0  0  0  0
   31.5617   15.2039   27.8614 H   0  0  0  0  0  0
   30.8378   16.7336   28.3050 H   0  0  0  0  0  0
  1  6  1  0  0  0
  1  2  2  0  0  0
  1 35  1  0  0  0
  2  3  1  0  0  0
  2 36  1  0  0  0
  3  4  2  0  0  0
  3 32  1  0  0  0
  4  5  1  0  0  0
  4 37  1  0  0  0
  5  6  2  0  0  0
  5  7  1  0  0  0
  6 38  1  0  0  0
  7  8  1  0  0  0
  8 13  1  0  0  0
  8  9  2  0  0  0
  9 10  1  0  0  0
  9 39  1  0  0  0
 10 11  2  0  0  0
 10 40  1  0  0  0
 11 12  1  0  0  0
 11 24  1  0  0  0
 12 13  2  0  0  0
 12 14  1  0  0  0
 14 15  1  0  0  0
 15 20  1  0  0  0
 15 16  2  0  0  0
 16 17  1  0  0  0
 16 41  1  0  0  0
 17 18  2  0  0  0
 17 42  1  0  0  0
 18 19  1  0  0  0
 18 43  1  0  0  0
 19 20  2  0  0  0
 19 21  1  0  0  0
 20 44  1  0  0  0
 21 22  2  3  0  0
 21 23  1  0  0  0
 22 45  1  0  0  0
 23 46  1  0  0  0
 23 47  1  0  0  0
 24 25  1  0  0  0
 24 48  1  0  0  0
 25 26  2  0  0  0
 25 27  1  0  0  0
 27 28  1  0  0  0
 27 49  1  0  0  0
 28 29  1  0  0  0
 28 50  1  0  0  0
 28 51  1  0  0  0
 29 30  2  0  0  0
 29 31  1  0  0  0
 31 52  1  0  0  0
 31 53  1  0  0  0
 32 33  2  3  0  0
 32 34  1  0  0  0
 33 54  1  0  0  0
 34 55  1  0  0  0
 34 56  1  0  0  0
M  END
> <s_m_entry_id>
39973

> <s_m_entry_name>
ligand_docking-pose.14

> <s_m_Source_Path>
/home/csk/Desktop/cluster/DUD-E-result/try1

> <s_m_Source_File>
ligand_docking-pose.sdf

> <i_m_Source_File_Index>
14

> <i_lp_mmshare_version>
53161

> <i_f3d_flags>
0

> <r_lp_tautomer_probability>
1

> <s_lp_Force_Field>
OPLS_2005

> <r_lp_Energy>
10.763096

> <b_lp_Chiralities_Consistent>
1

> <s_lp_Variant>
74803-3

> <s_i_glide_gridfile>
glide-grid_2ayw

> <i_i_glide_lignum>
988

> <i_i_glide_rotatable_bonds>
11

> <r_i_docking_score>
-7.732327977243

> <r_i_glide_ligand_efficiency>
-0.227421411095382

> <r_i_glide_ligand_efficiency_sa>
-0.736757086381755

> <r_i_glide_ligand_efficiency_ln>
-1.70828813462637

> <r_i_glide_gscore>
-7.732327977243

> <r_i_glide_lipo>
-2.38195538239671

> <r_i_glide_hbond>
-0.967221376941663

> <r_i_glide_metal>
0

> <r_i_glide_rewards>
-0.801033688071521

> <r_i_glide_evdw>
-45.7540092468262

> <r_i_glide_ecoul>
-13.167534828186

> <r_i_glide_erotb>
0.753508340119886

> <r_i_glide_esite>
-0.0727951833837755

> <r_i_glide_emodel>
-79.1147371290006

> <r_i_glide_energy>
-58.9215440750122

> <r_i_glide_einternal>
11.7196493148804

> <i_i_glide_confnum>
49

> <i_i_glide_posenum>
353

> <r_i_glide_eff_state_penalty>
0

> <s_user_duplicate_titles>
74803

> <s_m_subgroup_title>
dock_pv

> <s_m_subgroupid>
dock_pv1

> <b_m_subgroup_collapsed>
0

$$$$
22842
                    3D
 Schrodinger Suite 2021-1.
 55 57  0  0  1  0            999 V2000
   19.8128   22.1869   29.6539 C   0  0  0  0  0  0
   21.0885   21.3783   29.4283 C   0  0  0  0  0  0
   21.9573   21.1934   30.4444 C   0  0  0  0  0  0
   23.1329   20.3874   30.2097 C   0  0  0  0  0  0
   23.3643   19.8669   28.9825 C   0  0  0  0  0  0
   22.4533   20.1309   27.8498 C   0  0  0  0  0  0
   22.7209   19.7332   26.7089 O   0  0  0  0  0  0
   21.3061   20.8571   28.1477 N   0  0  0  0  0  0
   20.3503   21.0490   27.0185 C   0  0  0  0  0  0
   20.5414   22.3925   26.2854 C   0  0  0  0  0  0
   19.5533   22.9333   25.7925 O   0  0  0  0  0  0
   21.7741   22.9256   26.1925 N   0  0  0  0  0  0
   22.0928   24.1836   25.5079 C   0  0  0  0  0  0
   21.8668   24.1124   24.0065 C   0  0  0  0  0  0
   21.0369   24.8914   23.2052 C   0  0  0  0  0  0
   21.0398   24.5418   21.8528 C   0  0  0  0  0  0
   21.8835   23.4724   21.5491 C   0  0  0  0  0  0
   22.6741   22.9331   23.0116 S   0  0  0  0  0  0
   22.1178   22.8191   20.2463 C   0  0  0  0  0  0
   22.7530   21.7330   20.1909 N   0  0  0  0  0  0
   21.5533   23.4898   19.1893 N   0  0  0  0  0  0
   24.4632   19.0169   28.6874 N   0  0  0  0  0  0
   25.9265   18.8933   29.6697 S   0  0  0  0  0  0
   26.2006   20.2216   30.2316 O   0  0  0  0  0  0
   25.7663   17.7330   30.5510 O   0  0  0  0  0  0
   27.2540   18.5399   28.3688 C   0  0  0  0  0  0
   27.7707   17.1146   28.3417 C   0  0  0  0  0  0
   26.9072   16.0523   28.0654 C   0  0  0  0  0  0
   27.4122   14.7565   28.0060 C   0  0  0  0  0  0
   28.7748   14.5330   28.1910 C   0  0  0  0  0  0
   29.6389   15.5885   28.4591 C   0  0  0  0  0  0
   29.1313   16.8790   28.5450 C   0  0  0  0  0  0
   19.7641   22.5855   30.6670 H   0  0  0  0  0  0
   19.7612   23.0376   28.9736 H   0  0  0  0  0  0
   18.9281   21.5655   29.5109 H   0  0  0  0  0  0
   21.7701   21.6031   31.4275 H   0  0  0  0  0  0
   23.7858   20.1615   31.0418 H   0  0  0  0  0  0
   19.3401   21.0134   27.4235 H   0  0  0  0  0  0
   20.3630   20.2273   26.3013 H   0  0  0  0  0  0
   22.5450   22.4292   26.6146 H   0  0  0  0  0  0
   23.1325   24.4325   25.7226 H   0  0  0  0  0  0
   21.5047   24.9892   25.9530 H   0  0  0  0  0  0
   20.4253   25.6904   23.5995 H   0  0  0  0  0  0
   20.4274   25.0505   21.1227 H   0  0  0  0  0  0
   22.8394   21.3788   19.2468 H   0  0  0  0  0  0
   21.6330   23.1279   18.2517 H   0  0  0  0  0  0
   20.9665   24.2911   19.3538 H   0  0  0  0  0  0
   24.2704   18.2082   28.0871 H   0  0  0  0  0  0
   26.8468   18.8106   27.3973 H   0  0  0  0  0  0
   28.0665   19.2349   28.5839 H   0  0  0  0  0  0
   25.8515   16.2226   27.9043 H   0  0  0  0  0  0
   26.7529   13.9244   27.8146 H   0  0  0  0  0  0
   29.1701   13.5279   28.1489 H   0  0  0  0  0  0
   30.6964   15.4061   28.5911 H   0  0  0  0  0  0
   29.8047   17.6964   28.7464 H   0  0  0  0  0  0
  1  2  1  0  0  0
  1 33  1  0  0  0
  1 34  1  0  0  0
  1 35  1  0  0  0
  2  8  1  0  0  0
  2  3  2  0  0  0
  3  4  1  0  0  0
  3 36  1  0  0  0
  4  5  2  0  0  0
  4 37  1  0  0  0
  5  6  1  0  0  0
  5 22  1  0  0  0
  6  7  2  0  0  0
  6  8  1  0  0  0
  8  9  1  0  0  0
  9 10  1  0  0  0
  9 38  1  0  0  0
  9 39  1  0  0  0
 10 11  2  0  0  0
 10 12  1  0  0  0
 12 13  1  0  0  0
 12 40  1  0  0  0
 13 14  1  0  0  0
 13 41  1  0  0  0
 13 42  1  0  0  0
 14 18  1  0  0  0
 14 15  2  0  0  0
 15 16  1  0  0  0
 15 43  1  0  0  0
 16 17  2  0  0  0
 16 44  1  0  0  0
 17 18  1  0  0  0
 17 19  1  0  0  0
 19 20  2  3  0  0
 19 21  1  0  0  0
 20 45  1  0  0  0
 21 46  1  0  0  0
 21 47  1  0  0  0
 22 23  1  0  0  0
 22 48  1  0  0  0
 23 24  2  0  0  0
 23 25  2  0  0  0
 23 26  1  0  0  0
 26 27  1  0  0  0
 26 49  1  0  0  0
 26 50  1  0  0  0
 27 32  1  0  0  0
 27 28  2  0  0  0
 28 29  1  0  0  0
 28 51  1  0  0  0
 29 30  2  0  0  0
 29 52  1  0  0  0
 30 31  1  0  0  0
 30 53  1  0  0  0
 31 32  2  0  0  0
 31 54  1  0  0  0
 32 55  1  0  0  0
M  END
> <s_m_entry_id>
39974

> <s_m_entry_name>
ligand_docking-pose.15

> <s_m_Source_Path>
/home/csk/Desktop/cluster/DUD-E-result/try1

> <s_m_Source_File>
ligand_docking-pose.sdf

> <i_m_Source_File_Index>
15

> <i_lp_mmshare_version>
53161

> <i_f3d_flags>
0

> <r_lp_tautomer_probability>
1

> <s_lp_Force_Field>
OPLS_2005

> <r_lp_Energy>
15.586601

> <b_lp_Chiralities_Consistent>
1

> <s_lp_Variant>
22842-1

> <s_i_glide_gridfile>
glide-grid_2ayw

> <i_i_glide_lignum>
1182

> <i_i_glide_rotatable_bonds>
10

> <r_i_docking_score>
-7.71877557284444

> <r_i_glide_ligand_efficiency>
-0.241211736651389

> <r_i_glide_ligand_efficiency_sa>
-0.765799528130295

> <r_i_glide_ligand_efficiency_ln>
-1.72844425663534

> <r_i_glide_gscore>
-7.71877557284444

> <r_i_glide_lipo>
-2.79058408693665

> <r_i_glide_hbond>
-0.691400690772491

> <r_i_glide_metal>
0

> <r_i_glide_rewards>
-0.824207591780612

> <r_i_glide_evdw>
-49.1613121032715

> <r_i_glide_ecoul>
-11.0096759796143

> <r_i_glide_erotb>
0.721580449003112

> <r_i_glide_esite>
-0.0246466502520805

> <r_i_glide_emodel>
-82.3742327554145

> <r_i_glide_energy>
-60.1709880828857

> <r_i_glide_einternal>
9.5380916595459

> <i_i_glide_confnum>
9

> <i_i_glide_posenum>
259

> <r_i_glide_eff_state_penalty>
0

> <s_user_duplicate_titles>
22842

> <s_m_subgroup_title>
dock_pv

> <s_m_subgroupid>
dock_pv1

> <b_m_subgroup_collapsed>
0

$$$$
256368
                    3D
 Schrodinger Suite 2021-1.
 51 54  0  0  1  0            999 V2000
   23.1544   17.1657   33.7880 C   0  0  0  0  0  0
   23.7395   18.0579   32.7210 C   0  0  0  0  0  0
   23.1561   19.1644   32.1021 C   0  0  0  0  0  0
   24.0671   19.6116   31.1579 C   0  0  0  0  0  0
   25.1639   18.7841   31.3152 N   0  0  0  0  0  0
   24.9464   17.8374   32.2453 N   0  0  0  0  0  0
   26.3844   18.7892   30.6058 C   0  0  0  0  0  0
   27.2342   19.8906   30.7083 C   0  0  0  0  0  0
   28.4165   19.9169   29.9803 C   0  0  0  0  0  0
   28.7531   18.8450   29.1568 C   0  0  0  0  0  0
   27.9388   17.6990   29.0497 C   0  0  0  0  0  0
   26.7371   17.7043   29.7906 C   0  0  0  0  0  0
   28.3207   16.5349   28.1916 C   0  0  0  0  0  0
   27.4860   15.6437   27.8766 N   0  0  0  0  0  0
   29.6348   16.5325   27.7911 N   0  0  0  0  0  0
   23.9430   20.6873   30.2215 C   0  0  0  0  0  0
   24.7535   21.6119   30.1910 O   0  0  0  0  0  0
   22.9038   20.5142   29.3828 N   0  0  0  0  0  0
   22.5830   21.2797   28.2507 C   0  0  0  0  0  0
   22.8417   22.6532   28.1385 C   0  0  0  0  0  0
   22.4835   23.3357   26.9760 C   0  0  0  0  0  0
   21.8732   22.6598   25.9128 C   0  0  0  0  0  0
   21.6201   21.2915   26.0415 C   0  0  0  0  0  0
   21.9552   20.6065   27.2042 C   0  0  0  0  0  0
   21.4989   23.3741   24.6610 C   0  0  0  0  0  0
   21.9153   22.8738   23.4176 C   0  0  0  0  0  0
   21.5589   23.5109   22.2292 C   0  0  0  0  0  0
   20.7809   24.6668   22.2658 C   0  0  0  0  0  0
   20.3632   25.1811   23.4925 C   0  0  0  0  0  0
   20.7176   24.5427   24.6821 C   0  0  0  0  0  0
   20.2785   25.0587   25.8548 F   0  0  0  0  0  0
   22.1171   17.4209   34.0035 H   0  0  0  0  0  0
   23.1605   16.1162   33.4874 H   0  0  0  0  0  0
   23.7053   17.2490   34.7256 H   0  0  0  0  0  0
   22.1718   19.5631   32.2989 H   0  0  0  0  0  0
   26.9772   20.7280   31.3432 H   0  0  0  0  0  0
   29.0692   20.7741   30.0447 H   0  0  0  0  0  0
   29.6663   18.9325   28.5914 H   0  0  0  0  0  0
   26.0611   16.8617   29.7414 H   0  0  0  0  0  0
   26.5630   15.8092   28.2504 H   0  0  0  0  0  0
   29.9584   15.8070   27.1586 H   0  0  0  0  0  0
   30.3163   17.1610   28.1949 H   0  0  0  0  0  0
   22.3585   19.6751   29.5156 H   0  0  0  0  0  0
   23.3053   23.2035   28.9435 H   0  0  0  0  0  0
   22.6886   24.3947   26.9010 H   0  0  0  0  0  0
   21.1530   20.7516   25.2330 H   0  0  0  0  0  0
   21.7339   19.5515   27.2771 H   0  0  0  0  0  0
   22.5222   21.9810   23.3730 H   0  0  0  0  0  0
   21.8855   23.1096   21.2799 H   0  0  0  0  0  0
   20.5041   25.1598   21.3459 H   0  0  0  0  0  0
   19.7605   26.0780   23.5228 H   0  0  0  0  0  0
  1  2  1  0  0  0
  1 32  1  0  0  0
  1 33  1  0  0  0
  1 34  1  0  0  0
  2  6  2  0  0  0
  2  3  1  0  0  0
  3  4  2  0  0  0
  3 35  1  0  0  0
  4  5  1  0  0  0
  4 16  1  0  0  0
  5  6  1  0  0  0
  5  7  1  0  0  0
  7 12  1  0  0  0
  7  8  2  0  0  0
  8  9  1  0  0  0
  8 36  1  0  0  0
  9 10  2  0  0  0
  9 37  1  0  0  0
 10 11  1  0  0  0
 10 38  1  0  0  0
 11 12  2  0  0  0
 11 13  1  0  0  0
 12 39  1  0  0  0
 13 14  2  3  0  0
 13 15  1  0  0  0
 14 40  1  0  0  0
 15 41  1  0  0  0
 15 42  1  0  0  0
 16 17  2  0  0  0
 16 18  1  0  0  0
 18 19  1  0  0  0
 18 43  1  0  0  0
 19 24  1  0  0  0
 19 20  2  0  0  0
 20 21  1  0  0  0
 20 44  1  0  0  0
 21 22  2  0  0  0
 21 45  1  0  0  0
 22 23  1  0  0  0
 22 25  1  0  0  0
 23 24  2  0  0  0
 23 46  1  0  0  0
 24 47  1  0  0  0
 25 30  1  0  0  0
 25 26  2  0  0  0
 26 27  1  0  0  0
 26 48  1  0  0  0
 27 28  2  0  0  0
 27 49  1  0  0  0
 28 29  1  0  0  0
 28 50  1  0  0  0
 29 30  2  0  0  0
 29 51  1  0  0  0
 30 31  1  0  0  0
M  END
> <s_m_entry_id>
39975

> <s_m_entry_name>
ligand_docking-pose.16

> <s_m_Source_Path>
/home/csk/Desktop/cluster/DUD-E-result/try1

> <s_m_Source_File>
ligand_docking-pose.sdf

> <i_m_Source_File_Index>
16

> <i_lp_mmshare_version>
53161

> <i_f3d_flags>
0

> <r_lp_tautomer_probability>
1

> <s_lp_Force_Field>
OPLS_2005

> <r_lp_Energy>
31.008491

> <b_lp_Chiralities_Consistent>
1

> <s_lp_Variant>
256368-2

> <s_i_glide_gridfile>
glide-grid_2ayw

> <i_i_glide_lignum>
1269

> <i_i_glide_rotatable_bonds>
6

> <r_i_docking_score>
-7.71304769395393

> <r_i_glide_ligand_efficiency>
-0.248807990127546

> <r_i_glide_ligand_efficiency_sa>
-0.781600605452394

> <r_i_glide_ligand_efficiency_ln>
-1.73952863151068

> <r_i_glide_gscore>
-7.71304769395393

> <r_i_glide_lipo>
-2.5606780404432

> <r_i_glide_hbond>
-0.846705862776165

> <r_i_glide_metal>
0

> <r_i_glide_rewards>
-1.00551451572778

> <r_i_glide_evdw>
-45.650074005127

> <r_i_glide_ecoul>
-10.4001750946045

> <r_i_glide_erotb>
0.577059781478614

> <r_i_glide_esite>
-0.0346790920383865

> <r_i_glide_emodel>
-76.3665068611045

> <r_i_glide_energy>
-56.0502490997314

> <r_i_glide_einternal>
9.32049465179443

> <i_i_glide_confnum>
62

> <i_i_glide_posenum>
392

> <r_i_glide_eff_state_penalty>
0

> <s_user_duplicate_titles>
256368

> <s_m_subgroup_title>
dock_pv

> <s_m_subgroupid>
dock_pv1

> <b_m_subgroup_collapsed>
0

$$$$
261815
                    3D
 Schrodinger Suite 2021-1.
 51 52  0  0  1  0            999 V2000
   23.1320   19.7329   36.7071 C   0  0  0  0  0  0
   22.6875   19.6965   35.3172 N   0  0  0  0  0  0
   23.2623   18.9757   34.3407 C   0  0  0  0  0  0
   24.2337   18.2428   34.5201 O   0  0  0  0  0  0
   22.6452   19.1066   32.9396 C   0  0  0  0  0  0
   23.5645   19.8261   31.9055 C   0  0  1  0  0  0
   24.6040   18.8535   31.2814 C   0  0  0  0  0  0
   25.6878   19.5328   30.4140 C   0  0  0  0  0  0
   26.6863   18.5340   29.8480 C   0  0  0  0  0  0
   26.2661   17.5954   28.9082 C   0  0  0  0  0  0
   27.1595   16.6447   28.4302 C   0  0  0  0  0  0
   28.4990   16.6118   28.8620 C   0  0  0  0  0  0
   28.9087   17.5930   29.7829 C   0  0  0  0  0  0
   28.0132   18.5381   30.2771 C   0  0  0  0  0  0
   29.4123   15.5426   28.3686 C   0  0  0  0  0  0
   28.9483   14.5329   27.7910 N   0  0  0  0  0  0
   30.7531   15.7330   28.5895 N   0  0  0  0  0  0
   22.7336   20.6500   30.9025 C   0  0  0  0  0  0
   22.1436   21.8372   31.3435 C   0  0  0  0  0  0
   21.3672   22.6049   30.4829 C   0  0  0  0  0  0
   21.1777   22.1989   29.1647 C   0  0  0  0  0  0
   21.7604   21.0176   28.6672 C   0  0  0  0  0  0
   22.5326   20.2561   29.5699 C   0  0  0  0  0  0
   21.5822   20.5829   27.2508 C   0  0  0  0  0  0
   22.3531   19.7330   26.7346 N   0  0  0  0  0  0
   20.5339   21.1749   26.5918 N   0  0  0  0  0  0
   22.3069   19.4640   37.3678 H   0  0  0  0  0  0
   23.9582   19.0481   36.9079 H   0  0  0  0  0  0
   23.4590   20.7399   36.9670 H   0  0  0  0  0  0
   21.8859   20.2639   35.0878 H   0  0  0  0  0  0
   21.6940   19.6331   33.0327 H   0  0  0  0  0  0
   22.3812   18.1073   32.5911 H   0  0  0  0  0  0
   24.1525   20.5761   32.4409 H   0  0  0  0  0  0
   25.1141   18.3145   32.0809 H   0  0  0  0  0  0
   24.0862   18.0800   30.7117 H   0  0  0  0  0  0
   25.2379   20.0692   29.5797 H   0  0  0  0  0  0
   26.2114   20.2850   31.0064 H   0  0  0  0  0  0
   25.2419   17.5800   28.5637 H   0  0  0  0  0  0
   26.7894   15.9193   27.7184 H   0  0  0  0  0  0
   29.9213   17.6137   30.1603 H   0  0  0  0  0  0
   28.3528   19.2580   31.0075 H   0  0  0  0  0  0
   29.7111   13.9200   27.5342 H   0  0  0  0  0  0
   31.4145   15.0998   28.1471 H   0  0  0  0  0  0
   31.0927   16.6640   28.8121 H   0  0  0  0  0  0
   22.2800   22.1655   32.3639 H   0  0  0  0  0  0
   20.9140   23.5192   30.8367 H   0  0  0  0  0  0
   20.5820   22.8386   28.5302 H   0  0  0  0  0  0
   22.9681   19.3264   29.2395 H   0  0  0  0  0  0
   23.0523   19.4215   27.3908 H   0  0  0  0  0  0
   20.2846   20.8274   25.6706 H   0  0  0  0  0  0
   19.8497   21.7056   27.1047 H   0  0  0  0  0  0
  1  2  1  0  0  0
  1 27  1  0  0  0
  1 28  1  0  0  0
  1 29  1  0  0  0
  2  3  1  0  0  0
  2 30  1  0  0  0
  3  4  2  0  0  0
  3  5  1  0  0  0
  5  6  1  0  0  0
  5 31  1  0  0  0
  5 32  1  0  0  0
  6  7  1  0  0  0
  6 18  1  0  0  0
  6 33  1  0  0  0
  7  8  1  0  0  0
  7 34  1  0  0  0
  7 35  1  0  0  0
  8  9  1  0  0  0
  8 36  1  0  0  0
  8 37  1  0  0  0
  9 14  1  0  0  0
  9 10  2  0  0  0
 10 11  1  0  0  0
 10 38  1  0  0  0
 11 12  2  0  0  0
 11 39  1  0  0  0
 12 13  1  0  0  0
 12 15  1  0  0  0
 13 14  2  0  0  0
 13 40  1  0  0  0
 14 41  1  0  0  0
 15 16  2  3  0  0
 15 17  1  0  0  0
 16 42  1  0  0  0
 17 43  1  0  0  0
 17 44  1  0  0  0
 18 23  1  0  0  0
 18 19  2  0  0  0
 19 20  1  0  0  0
 19 45  1  0  0  0
 20 21  2  0  0  0
 20 46  1  0  0  0
 21 22  1  0  0  0
 21 47  1  0  0  0
 22 23  2  0  0  0
 22 24  1  0  0  0
 23 48  1  0  0  0
 24 25  2  3  0  0
 24 26  1  0  0  0
 25 49  1  0  0  0
 26 50  1  0  0  0
 26 51  1  0  0  0
M  END
> <s_m_entry_id>
39976

> <s_m_entry_name>
ligand_docking-pose.17

> <s_m_Source_Path>
/home/csk/Desktop/cluster/DUD-E-result/try1

> <s_m_Source_File>
ligand_docking-pose.sdf

> <i_m_Source_File_Index>
17

> <i_lp_mmshare_version>
53161

> <i_f3d_flags>
0

> <r_lp_tautomer_probability>
1

> <s_lp_Force_Field>
OPLS_2005

> <r_lp_Energy>
5.900167

> <b_lp_Chiralities_Consistent>
1

> <s_lp_Variant>
261815-7

> <s_i_glide_gridfile>
glide-grid_2ayw

> <i_i_glide_lignum>
2344

> <i_i_glide_rotatable_bonds>
9

> <r_i_docking_score>
-7.69796054304557

> <r_i_glide_ligand_efficiency>
-0.296075405501753

> <r_i_glide_ligand_efficiency_sa>
-0.877122223798478

> <r_i_glide_ligand_efficiency_ln>
-1.80784077446549

> <r_i_glide_gscore>
-7.69796054304557

> <r_i_glide_lipo>
-1.70651203071059

> <r_i_glide_hbond>
-1.38186079356061

> <r_i_glide_metal>
0

> <r_i_glide_rewards>
-1.65164314677454

> <r_i_glide_evdw>
-34.7264709472656

> <r_i_glide_ecoul>
-13.9598350524902

> <r_i_glide_erotb>
0.926518807031222

> <r_i_glide_esite>
-0.0541645737942354

> <r_i_glide_emodel>
-69.7701136533597

> <r_i_glide_energy>
-48.6863059997559

> <r_i_glide_einternal>
6.10701751708984

> <i_i_glide_confnum>
78

> <i_i_glide_posenum>
264

> <r_i_glide_eff_state_penalty>
0

> <s_user_duplicate_titles>
261815

> <s_m_subgroup_title>
dock_pv

> <s_m_subgroupid>
dock_pv1

> <b_m_subgroup_collapsed>
0

$$$$
256367
                    3D
 Schrodinger Suite 2021-1.
 51 54  0  0  1  0            999 V2000
   23.1520   17.2229   33.7906 C   0  0  0  0  0  0
   23.7290   18.1063   32.7165 C   0  0  0  0  0  0
   23.1532   19.2154   32.0962 C   0  0  0  0  0  0
   24.0660   19.6519   31.1490 C   0  0  0  0  0  0
   25.1550   18.8156   31.3048 N   0  0  0  0  0  0
   24.9330   17.8751   32.2383 N   0  0  0  0  0  0
   26.3768   18.8162   30.5975 C   0  0  0  0  0  0
   27.2369   19.9111   30.7030 C   0  0  0  0  0  0
   28.4219   19.9283   29.9782 C   0  0  0  0  0  0
   28.7531   18.8522   29.1599 C   0  0  0  0  0  0
   27.9270   17.7155   29.0497 C   0  0  0  0  0  0
   26.7236   17.7296   29.7837 C   0  0  0  0  0  0
   28.3032   16.5501   28.1923 C   0  0  0  0  0  0
   27.4570   15.6732   27.8625 N   0  0  0  0  0  0
   29.6225   16.5330   27.8068 N   0  0  0  0  0  0
   23.9529   20.7253   30.2113 C   0  0  0  0  0  0
   24.7538   21.6597   30.2119 O   0  0  0  0  0  0
   22.9504   20.5390   29.3307 N   0  0  0  0  0  0
   22.6601   21.3005   28.1867 C   0  0  0  0  0  0
   21.9866   20.6467   27.1560 C   0  0  0  0  0  0
   21.6672   21.3350   25.9911 C   0  0  0  0  0  0
   21.9912   22.6877   25.8317 C   0  0  0  0  0  0
   22.6650   23.3347   26.8764 C   0  0  0  0  0  0
   22.9961   22.6531   28.0436 C   0  0  0  0  0  0
   21.6073   23.4273   24.5896 C   0  0  0  0  0  0
   21.2417   24.7806   24.6454 C   0  0  0  0  0  0
   20.8626   25.4669   23.4944 C   0  0  0  0  0  0
   20.8465   24.8052   22.2717 C   0  0  0  0  0  0
   21.2141   23.4651   22.1910 C   0  0  0  0  0  0
   21.5895   22.7829   23.3448 C   0  0  0  0  0  0
   22.1133   17.4745   34.0062 H   0  0  0  0  0  0
   23.1693   16.1705   33.5064 H   0  0  0  0  0  0
   23.7039   17.3246   34.7252 H   0  0  0  0  0  0
   22.1741   19.6284   32.2956 H   0  0  0  0  0  0
   26.9844   20.7485   31.3370 H   0  0  0  0  0  0
   29.0812   20.7798   30.0423 H   0  0  0  0  0  0
   29.6661   18.9318   28.5928 H   0  0  0  0  0  0
   26.0389   16.8941   29.7368 H   0  0  0  0  0  0
   26.5347   15.8643   28.2237 H   0  0  0  0  0  0
   29.9525   15.8042   27.1818 H   0  0  0  0  0  0
   30.3015   17.1679   28.2089 H   0  0  0  0  0  0
   22.4005   19.6993   29.4515 H   0  0  0  0  0  0
   21.7113   19.6057   27.2462 H   0  0  0  0  0  0
   21.1534   20.8055   25.2064 H   0  0  0  0  0  0
   22.9423   24.3758   26.7894 H   0  0  0  0  0  0
   23.5003   23.1968   28.8276 H   0  0  0  0  0  0
   21.2315   25.3093   25.5881 H   0  0  0  0  0  0
   20.5765   26.5085   23.5523 H   0  0  0  0  0  0
   20.5484   25.3324   21.3773 H   0  0  0  0  0  0
   21.1944   22.9554   21.2387 H   0  0  0  0  0  0
   21.8702   21.7440   23.2621 H   0  0  0  0  0  0
  1  2  1  0  0  0
  1 31  1  0  0  0
  1 32  1  0  0  0
  1 33  1  0  0  0
  2  6  2  0  0  0
  2  3  1  0  0  0
  3  4  2  0  0  0
  3 34  1  0  0  0
  4  5  1  0  0  0
  4 16  1  0  0  0
  5  6  1  0  0  0
  5  7  1  0  0  0
  7 12  1  0  0  0
  7  8  2  0  0  0
  8  9  1  0  0  0
  8 35  1  0  0  0
  9 10  2  0  0  0
  9 36  1  0  0  0
 10 11  1  0  0  0
 10 37  1  0  0  0
 11 12  2  0  0  0
 11 13  1  0  0  0
 12 38  1  0  0  0
 13 14  2  3  0  0
 13 15  1  0  0  0
 14 39  1  0  0  0
 15 40  1  0  0  0
 15 41  1  0  0  0
 16 17  2  0  0  0
 16 18  1  0  0  0
 18 19  1  0  0  0
 18 42  1  0  0  0
 19 24  1  0  0  0
 19 20  2  0  0  0
 20 21  1  0  0  0
 20 43  1  0  0  0
 21 22  2  0  0  0
 21 44  1  0  0  0
 22 23  1  0  0  0
 22 25  1  0  0  0
 23 24  2  0  0  0
 23 45  1  0  0  0
 24 46  1  0  0  0
 25 30  1  0  0  0
 25 26  2  0  0  0
 26 27  1  0  0  0
 26 47  1  0  0  0
 27 28  2  0  0  0
 27 48  1  0  0  0
 28 29  1  0  0  0
 28 49  1  0  0  0
 29 30  2  0  0  0
 29 50  1  0  0  0
 30 51  1  0  0  0
M  END
> <s_m_entry_id>
39977

> <s_m_entry_name>
ligand_docking-pose.18

> <s_m_Source_Path>
/home/csk/Desktop/cluster/DUD-E-result/try1

> <s_m_Source_File>
ligand_docking-pose.sdf

> <i_m_Source_File_Index>
18

> <i_lp_mmshare_version>
53161

> <i_f3d_flags>
0

> <r_lp_tautomer_probability>
1

> <s_lp_Force_Field>
OPLS_2005

> <r_lp_Energy>
29.802944

> <b_lp_Chiralities_Consistent>
1

> <s_lp_Variant>
256367-2

> <s_i_glide_gridfile>
glide-grid_2ayw

> <i_i_glide_lignum>
1265

> <i_i_glide_rotatable_bonds>
6

> <r_i_docking_score>
-7.68827189753748

> <r_i_glide_ligand_efficiency>
-0.256275729917916

> <r_i_glide_ligand_efficiency_sa>
-0.7963082775852

> <r_i_glide_ligand_efficiency_ln>
-1.74685914555232

> <r_i_glide_gscore>
-7.68827189753748

> <r_i_glide_lipo>
-2.47717723035599

> <r_i_glide_hbond>
-0.841858515833019

> <r_i_glide_metal>
0

> <r_i_glide_rewards>
-1.14521547459171

> <r_i_glide_evdw>
-44.9149780273438

> <r_i_glide_ecoul>
-10.4766874313354

> <r_i_glide_erotb>
0.625218699148501

> <r_i_glide_esite>
-0.0319873598377561

> <r_i_glide_emodel>
-75.1470136376916

> <r_i_glide_energy>
-55.3916654586792

> <r_i_glide_einternal>
9.48612499237061

> <i_i_glide_confnum>
4

> <i_i_glide_posenum>
219

> <r_i_glide_eff_state_penalty>
0

> <s_user_duplicate_titles>
256367

> <s_m_subgroup_title>
dock_pv

> <s_m_subgroupid>
dock_pv1

> <b_m_subgroup_collapsed>
0

$$$$
74608
                    3D
 Schrodinger Suite 2021-1.
 52 54  0  0  1  0            999 V2000
   28.0459   17.0348   37.2026 C   0  0  0  0  0  0
   28.7752   18.0079   36.2636 C   0  0  0  0  0  0
   28.0869   18.2501   35.0373 O   0  0  0  0  0  0
   26.9350   18.9714   34.9825 C   0  0  0  0  0  0
   26.3063   19.3361   35.9796 O   0  0  0  0  0  0
   26.4931   19.2706   33.5804 C   0  0  0  0  0  0
   27.3465   19.0971   32.4774 C   0  0  0  0  0  0
   26.9073   19.4913   31.2133 C   0  0  0  0  0  0
   25.6919   20.0498   30.9959 N   0  0  0  0  0  0
   24.8458   20.1777   32.0563 C   0  0  0  0  0  0
   25.2142   19.8038   33.3498 C   0  0  0  0  0  0
   23.5912   20.7249   31.8501 O   0  0  0  0  0  0
   23.2687   21.3290   30.6552 C   0  0  0  0  0  0
   23.6391   22.6553   30.4437 C   0  0  0  0  0  0
   23.3420   23.2753   29.2350 C   0  0  0  0  0  0
   22.6623   22.5726   28.2430 C   0  0  0  0  0  0
   22.2372   21.2433   28.4355 C   0  0  0  0  0  0
   22.5633   20.6359   29.6671 C   0  0  0  0  0  0
   21.4599   20.5493   27.3703 C   0  0  0  0  0  0
   21.4496   20.9908   26.1907 N   0  0  0  0  0  0
   20.7534   19.4505   27.7944 N   0  0  0  0  0  0
   27.7061   19.3379   30.1078 O   0  0  0  0  0  0
   27.5604   18.1836   29.3764 C   0  0  0  0  0  0
   26.3316   17.8225   28.8158 C   0  0  0  0  0  0
   26.2099   16.6353   28.1072 C   0  0  0  0  0  0
   27.3150   15.8097   27.9462 C   0  0  0  0  0  0
   28.5768   16.1500   28.4730 C   0  0  0  0  0  0
   28.6715   17.3585   29.1878 C   0  0  0  0  0  0
   29.7335   15.2415   28.2633 C   0  0  0  0  0  0
   29.5531   14.0972   27.7910 N   0  0  0  0  0  0
   30.9696   15.7329   28.5909 N   0  0  0  0  0  0
   28.6910   16.7335   38.0279 H   0  0  0  0  0  0
   27.7381   16.1333   36.6746 H   0  0  0  0  0  0
   27.1540   17.4869   37.6346 H   0  0  0  0  0  0
   28.9759   18.9513   36.7745 H   0  0  0  0  0  0
   29.7484   17.5859   36.0047 H   0  0  0  0  0  0
   28.3405   18.6849   32.5862 H   0  0  0  0  0  0
   24.5160   19.9526   34.1610 H   0  0  0  0  0  0
   24.1680   23.1955   31.2154 H   0  0  0  0  0  0
   23.6390   24.3009   29.0669 H   0  0  0  0  0  0
   22.4430   23.0902   27.3192 H   0  0  0  0  0  0
   22.2937   19.6113   29.8714 H   0  0  0  0  0  0
   20.8353   20.4644   25.5809 H   0  0  0  0  0  0
   20.1194   18.9845   27.1612 H   0  0  0  0  0  0
   20.7548   19.1601   28.7619 H   0  0  0  0  0  0
   25.4645   18.4537   28.9313 H   0  0  0  0  0  0
   25.2600   16.3502   27.6787 H   0  0  0  0  0  0
   27.1753   14.8959   27.3857 H   0  0  0  0  0  0
   29.6057   17.6677   29.6325 H   0  0  0  0  0  0
   30.4364   13.6192   27.6511 H   0  0  0  0  0  0
   31.7695   15.1899   28.2732 H   0  0  0  0  0  0
   31.1252   16.7228   28.7450 H   0  0  0  0  0  0
  1  2  1  0  0  0
  1 32  1  0  0  0
  1 33  1  0  0  0
  1 34  1  0  0  0
  2  3  1  0  0  0
  2 35  1  0  0  0
  2 36  1  0  0  0
  3  4  1  0  0  0
  4  5  2  0  0  0
  4  6  1  0  0  0
  6 11  1  0  0  0
  6  7  2  0  0  0
  7  8  1  0  0  0
  7 37  1  0  0  0
  8  9  2  0  0  0
  8 22  1  0  0  0
  9 10  1  0  0  0
 10 11  2  0  0  0
 10 12  1  0  0  0
 11 38  1  0  0  0
 12 13  1  0  0  0
 13 18  1  0  0  0
 13 14  2  0  0  0
 14 15  1  0  0  0
 14 39  1  0  0  0
 15 16  2  0  0  0
 15 40  1  0  0  0
 16 17  1  0  0  0
 16 41  1  0  0  0
 17 18  2  0  0  0
 17 19  1  0  0  0
 18 42  1  0  0  0
 19 20  2  3  0  0
 19 21  1  0  0  0
 20 43  1  0  0  0
 21 44  1  0  0  0
 21 45  1  0  0  0
 22 23  1  0  0  0
 23 28  1  0  0  0
 23 24  2  0  0  0
 24 25  1  0  0  0
 24 46  1  0  0  0
 25 26  2  0  0  0
 25 47  1  0  0  0
 26 27  1  0  0  0
 26 48  1  0  0  0
 27 28  2  0  0  0
 27 29  1  0  0  0
 28 49  1  0  0  0
 29 30  2  3  0  0
 29 31  1  0  0  0
 30 50  1  0  0  0
 31 51  1  0  0  0
 31 52  1  0  0  0
M  END
> <s_m_entry_id>
39978

> <s_m_entry_name>
ligand_docking-pose.19

> <s_m_Source_Path>
/home/csk/Desktop/cluster/DUD-E-result/try1

> <s_m_Source_File>
ligand_docking-pose.sdf

> <i_m_Source_File_Index>
19

> <i_lp_mmshare_version>
53161

> <i_f3d_flags>
0

> <r_lp_tautomer_probability>
1

> <s_lp_Force_Field>
OPLS_2005

> <r_lp_Energy>
8.438827

> <b_lp_Chiralities_Consistent>
1

> <s_lp_Variant>
74608-1

> <s_i_glide_gridfile>
glide-grid_2ayw

> <i_i_glide_lignum>
1988

> <i_i_glide_rotatable_bonds>
9

> <r_i_docking_score>
-7.67966521453788

> <r_i_glide_ligand_efficiency>
-0.247731135952835

> <r_i_glide_ligand_efficiency_sa>
-0.77821779658638

> <r_i_glide_ligand_efficiency_ln>
-1.73199985935223

> <r_i_glide_gscore>
-7.67966521453788

> <r_i_glide_lipo>
-2.19931076214721

> <r_i_glide_hbond>
-0.991307980523852

> <r_i_glide_metal>
0

> <r_i_glide_rewards>
-0.988864480189047

> <r_i_glide_evdw>
-39.5776252746582

> <r_i_glide_ecoul>
-14.1067743301392

> <r_i_glide_erotb>
0.674721814484407

> <r_i_glide_esite>
-0.0800063929083911

> <r_i_glide_emodel>
-71.4248873543996

> <r_i_glide_energy>
-53.6843996047974

> <r_i_glide_einternal>
12.6449813842773

> <i_i_glide_confnum>
8

> <i_i_glide_posenum>
89

> <r_i_glide_eff_state_penalty>
0

> <s_user_duplicate_titles>
74608

> <s_m_subgroup_title>
dock_pv

> <s_m_subgroupid>
dock_pv1

> <b_m_subgroup_collapsed>
0

$$$$
303041
                    3D
 Schrodinger Suite 2021-1.
 70 73  0  0  1  0            999 V2000
   22.6566   16.8229   33.5168 C   0  0  0  0  0  0
   23.6781   17.5125   34.2277 O   0  0  0  0  0  0
   24.4690   18.4334   33.5620 C   0  0  0  0  0  0
   24.3836   18.6657   32.1773 C   0  0  0  0  0  0
   25.1830   19.6313   31.5549 C   0  0  0  0  0  0
   26.0969   20.3488   32.3282 C   0  0  0  0  0  0
   26.1985   20.1240   33.6966 C   0  0  0  0  0  0
   25.3830   19.1739   34.3320 C   0  0  0  0  0  0
   25.3978   18.9328   35.6961 O   0  0  0  0  0  0
   26.2919   19.6149   36.5770 C   0  0  0  0  0  0
   27.5563   18.7941   36.8083 C   0  0  0  0  0  0
   28.6556   18.9266   35.9538 C   0  0  0  0  0  0
   29.8159   18.1940   36.1910 C   0  0  0  0  0  0
   29.8762   17.3330   37.2834 C   0  0  0  0  0  0
   28.7811   17.1818   38.1305 C   0  0  0  0  0  0
   27.6202   17.9130   37.8926 C   0  0  0  0  0  0
   25.0421   19.9426   30.0797 C   0  0  2  0  0  0
   23.7360   20.7416   29.7681 C   0  0  0  0  0  0
   23.3634   21.5994   30.5696 O   0  0  0  0  0  0
   23.0944   20.5259   28.5996 N   0  0  0  0  0  0
   21.8374   21.1707   28.1626 C   0  0  1  0  0  0
   21.9954   22.6703   27.9661 C   0  0  0  0  0  0
   23.1528   23.2150   27.3932 C   0  0  0  0  0  0
   23.2798   24.5909   27.2280 C   0  0  0  0  0  0
   22.2467   25.4304   27.6362 C   0  0  0  0  0  0
   21.0900   24.9048   28.2069 C   0  0  0  0  0  0
   20.9658   23.5276   28.3713 C   0  0  0  0  0  0
   21.3108   20.5032   26.8725 C   0  0  0  0  0  0
   21.9530   19.7331   26.1915 O   0  0  0  0  0  0
   20.0437   20.9145   26.5911 O   0  0  0  0  0  0
   25.1737   18.7742   29.2228 N   0  0  0  0  0  0
   26.2886   17.9575   28.9992 C   0  0  0  0  0  0
   27.5414   18.2085   29.5637 C   0  0  0  0  0  0
   28.5991   17.3297   29.3300 C   0  0  0  0  0  0
   28.4208   16.1912   28.5256 C   0  0  0  0  0  0
   27.1614   15.9786   27.9433 C   0  0  0  0  0  0
   26.1089   16.8485   28.1823 C   0  0  0  0  0  0
   29.4961   15.2053   28.2988 C   0  0  0  0  0  0
   29.2097   13.9877   28.1910 N   0  0  0  0  0  0
   30.7530   15.7330   28.1910 N   0  0  0  0  0  0
   25.8575   20.6056   29.7921 H   0  0  0  0  0  0
   21.1024   20.9729   28.9469 H   0  0  0  0  0  0
   22.0851   16.1881   34.1910 H   0  0  0  0  0  0
   21.9597   17.5260   33.0622 H   0  0  0  0  0  0
   23.0667   16.1746   32.7469 H   0  0  0  0  0  0
   23.6832   18.1134   31.5687 H   0  0  0  0  0  0
   26.7236   21.1027   31.8756 H   0  0  0  0  0  0
   26.9089   20.7222   34.2409 H   0  0  0  0  0  0
   26.5225   20.6403   36.2909 H   0  0  0  0  0  0
   25.7690   19.7234   37.5280 H   0  0  0  0  0  0
   28.6242   19.5955   35.1083 H   0  0  0  0  0  0
   30.6636   18.2915   35.5283 H   0  0  0  0  0  0
   30.7744   16.7618   37.4705 H   0  0  0  0  0  0
   28.8344   16.4989   38.9663 H   0  0  0  0  0  0
   26.7729   17.7928   38.5525 H   0  0  0  0  0  0
   23.4673   19.8388   27.9613 H   0  0  0  0  0  0
   23.9530   22.5681   27.0743 H   0  0  0  0  0  0
   24.1757   25.0027   26.7864 H   0  0  0  0  0  0
   22.3434   26.4987   27.5101 H   0  0  0  0  0  0
   20.2936   25.5624   28.5227 H   0  0  0  0  0  0
   20.0663   23.1258   28.8152 H   0  0  0  0  0  0
   19.7641   20.5378   25.7375 H   0  0  0  0  0  0
   24.3117   18.3629   28.9049 H   0  0  0  0  0  0
   27.6986   19.0655   30.1997 H   0  0  0  0  0  0
   29.5526   17.5293   29.7998 H   0  0  0  0  0  0
   26.9782   15.1289   27.3004 H   0  0  0  0  0  0
   25.1528   16.6476   27.7226 H   0  0  0  0  0  0
   28.2334   13.8057   28.3663 H   0  0  0  0  0  0
   31.4987   15.1253   27.8544 H   0  0  0  0  0  0
   30.9406   16.7197   28.3121 H   0  0  0  0  0  0
  1  2  1  0  0  0
  1 43  1  0  0  0
  1 44  1  0  0  0
  1 45  1  0  0  0
  2  3  1  0  0  0
  3  8  1  0  0  0
  3  4  2  0  0  0
  4  5  1  0  0  0
  4 46  1  0  0  0
  5  6  2  0  0  0
  5 17  1  0  0  0
  6  7  1  0  0  0
  6 47  1  0  0  0
  7  8  2  0  0  0
  7 48  1  0  0  0
  8  9  1  0  0  0
  9 10  1  0  0  0
 10 11  1  0  0  0
 10 49  1  0  0  0
 10 50  1  0  0  0
 11 16  1  0  0  0
 11 12  2  0  0  0
 12 13  1  0  0  0
 12 51  1  0  0  0
 13 14  2  0  0  0
 13 52  1  0  0  0
 14 15  1  0  0  0
 14 53  1  0  0  0
 15 16  2  0  0  0
 15 54  1  0  0  0
 16 55  1  0  0  0
 17 41  1  0  0  0
 17 18  1  0  0  0
 17 31  1  0  0  0
 18 19  2  0  0  0
 18 20  1  0  0  0
 20 21  1  0  0  0
 20 56  1  0  0  0
 21 42  1  0  0  0
 21 22  1  0  0  0
 21 28  1  0  0  0
 22 27  1  0  0  0
 22 23  2  0  0  0
 23 24  1  0  0  0
 23 57  1  0  0  0
 24 25  2  0  0  0
 24 58  1  0  0  0
 25 26  1  0  0  0
 25 59  1  0  0  0
 26 27  2  0  0  0
 26 60  1  0  0  0
 27 61  1  0  0  0
 28 29  2  0  0  0
 28 30  1  0  0  0
 30 62  1  0  0  0
 31 32  1  0  0  0
 31 63  1  0  0  0
 32 37  1  0  0  0
 32 33  2  0  0  0
 33 34  1  0  0  0
 33 64  1  0  0  0
 34 35  2  0  0  0
 34 65  1  0  0  0
 35 36  1  0  0  0
 35 38  1  0  0  0
 36 37  2  0  0  0
 36 66  1  0  0  0
 37 67  1  0  0  0
 38 39  2  3  0  0
 38 40  1  0  0  0
 39 68  1  0  0  0
 40 69  1  0  0  0
 40 70  1  0  0  0
M  END
> <s_m_entry_id>
39979

> <s_m_entry_name>
ligand_docking-pose.20

> <s_m_Source_Path>
/home/csk/Desktop/cluster/DUD-E-result/try1

> <s_m_Source_File>
ligand_docking-pose.sdf

> <i_m_Source_File_Index>
20

> <i_lp_mmshare_version>
53161

> <i_f3d_flags>
0

> <r_lp_tautomer_probability>
1

> <s_lp_Force_Field>
OPLS_2005

> <r_lp_Energy>
26.51402

> <b_lp_Chiralities_Consistent>
1

> <s_lp_Variant>
303041-2

> <s_i_glide_gridfile>
glide-grid_2ayw

> <i_i_glide_lignum>
2425

> <i_i_glide_rotatable_bonds>
14

> <r_i_docking_score>
-7.6677994340104

> <r_i_glide_ligand_efficiency>
-0.19169498585026

> <r_i_glide_ligand_efficiency_sa>
-0.655587628998821

> <r_i_glide_ligand_efficiency_ln>
-1.63531596601035

> <r_i_glide_gscore>
-7.6677994340104

> <r_i_glide_lipo>
-2.38945274568737

> <r_i_glide_hbond>
-0.869788372764546

> <r_i_glide_metal>
0

> <r_i_glide_rewards>
-0.451013743820614

> <r_i_glide_evdw>
-48.0453453063965

> <r_i_glide_ecoul>
-14.5623397827148

> <r_i_glide_erotb>
0.712328278377118

> <r_i_glide_esite>
-0.0832546173879351

> <r_i_glide_emodel>
-87.2497023841248

> <r_i_glide_energy>
-62.6076850891113

> <r_i_glide_einternal>
4.86298990249634

> <i_i_glide_confnum>
25

> <i_i_glide_posenum>
118

> <r_i_glide_eff_state_penalty>
0

> <s_user_duplicate_titles>
303041

> <s_m_subgroup_title>
dock_pv

> <s_m_subgroupid>
dock_pv1

> <b_m_subgroup_collapsed>
0

$$$$
290911
                    3D
 Schrodinger Suite 2021-1.
 77 81  0  0  1  0            999 V2000
   26.5974   18.8195   34.9714 C   0  0  0  0  0  0
   27.9384   19.4901   34.7712 C   0  0  0  0  0  0
   28.9833   19.2417   35.5198 N   0  0  0  0  0  0
   29.9764   20.0256   34.9990 C   0  0  0  0  0  0
   31.3020   20.1688   35.4172 C   0  0  0  0  0  0
   32.1204   21.0563   34.7166 C   0  0  0  0  0  0
   31.6699   21.7929   33.6033 C   0  0  0  0  0  0
   30.3467   21.6241   33.1636 C   0  0  0  0  0  0
   29.5158   20.7649   33.8882 C   0  0  0  0  0  0
   28.1831   20.4224   33.7786 N   0  0  0  0  0  0
   27.2371   20.9168   32.7780 C   0  0  0  0  0  0
   26.9815   19.9576   31.6212 C   0  0  0  0  0  0
   25.6987   19.8666   31.0814 C   0  0  0  0  0  0
   25.4155   18.9665   30.0586 C   0  0  0  0  0  0
   26.4287   18.1151   29.5586 C   0  0  0  0  0  0
   26.1627   17.1487   28.5657 C   0  0  0  0  0  0
   27.1664   16.2790   28.1514 C   0  0  0  0  0  0
   28.4650   16.3368   28.6841 C   0  0  0  0  0  0
   28.7539   17.3368   29.6207 C   0  0  0  0  0  0
   27.7478   18.2133   30.0914 C   0  0  0  0  0  0
   28.0080   19.1570   31.1113 C   0  0  0  0  0  0
   29.4613   15.3057   28.3316 C   0  0  0  0  0  0
   29.0802   14.1223   28.1910 N   0  0  0  0  0  0
   30.7530   15.7386   28.1911 N   0  0  0  0  0  0
   32.5387   22.6969   32.9225 N   0  0  0  0  0  0
   33.9927   22.4585   33.0192 C   0  0  0  0  0  0
   34.8639   22.8552   31.7992 C   0  0  0  0  0  0
   36.3656   23.0456   32.1157 C   0  0  0  0  0  0
   37.1083   21.7992   32.6135 C   0  0  0  0  0  0
   36.6601   20.6536   32.5885 O   0  0  0  0  0  0
   38.3429   22.1330   33.0839 O   0  0  0  0  0  0
   32.0705   24.0078   32.4073 C   0  0  0  0  0  0
   31.6263   23.9140   30.9220 C   0  0  0  0  0  0
   31.0215   25.2420   30.4058 C   0  0  0  0  0  0
   29.9605   25.6723   31.3352 N   0  0  0  0  0  0
   30.5074   26.0117   32.6615 C   0  0  0  0  0  0
   31.0266   24.7159   33.3159 C   0  0  0  0  0  0
   28.6271   25.8360   30.9514 C   0  0  0  0  0  0
   28.1368   25.7328   29.7911 N   0  0  0  0  0  0
   27.6325   26.1708   32.0544 C   0  0  0  0  0  0
   26.6167   18.1070   35.7953 H   0  0  0  0  0  0
   25.8140   19.5427   35.1955 H   0  0  0  0  0  0
   26.2871   18.2674   34.0841 H   0  0  0  0  0  0
   31.6756   19.6213   36.2697 H   0  0  0  0  0  0
   33.1269   21.1800   35.0849 H   0  0  0  0  0  0
   29.9543   22.1616   32.3203 H   0  0  0  0  0  0
   26.3063   21.1591   33.2941 H   0  0  0  0  0  0
   27.6115   21.8582   32.3734 H   0  0  0  0  0  0
   24.9020   20.4843   31.4695 H   0  0  0  0  0  0
   24.4124   18.8908   29.6632 H   0  0  0  0  0  0
   25.1619   17.0635   28.1594 H   0  0  0  0  0  0
   26.9095   15.5301   27.4141 H   0  0  0  0  0  0
   29.7388   17.4031   30.0637 H   0  0  0  0  0  0
   29.0074   19.2146   31.5208 H   0  0  0  0  0  0
   28.1011   14.0061   28.4039 H   0  0  0  0  0  0
   31.4480   15.0918   27.8194 H   0  0  0  0  0  0
   31.0131   16.7051   28.3387 H   0  0  0  0  0  0
   34.3250   23.0578   33.8684 H   0  0  0  0  0  0
   34.2534   21.4403   33.3080 H   0  0  0  0  0  0
   34.7326   22.1332   30.9970 H   0  0  0  0  0  0
   34.5193   23.7907   31.3635 H   0  0  0  0  0  0
   36.8742   23.3840   31.2112 H   0  0  0  0  0  0
   36.4720   23.8463   32.8505 H   0  0  0  0  0  0
   38.4953   23.0782   33.0206 H   0  0  0  0  0  0
   32.9355   24.6713   32.4250 H   0  0  0  0  0  0
   30.8985   23.1226   30.7666 H   0  0  0  0  0  0
   32.4685   23.6403   30.2871 H   0  0  0  0  0  0
   30.6924   25.1779   29.3672 H   0  0  0  0  0  0
   31.7907   26.0150   30.4506 H   0  0  0  0  0  0
   31.3706   26.6527   32.4725 H   0  0  0  0  0  0
   29.8494   26.5936   33.3063 H   0  0  0  0  0  0
   31.4649   24.9434   34.2875 H   0  0  0  0  0  0
   30.1601   24.0976   33.5300 H   0  0  0  0  0  0
   28.8328   25.5133   29.0938 H   0  0  0  0  0  0
   27.7292   25.4807   32.8911 H   0  0  0  0  0  0
   26.5981   26.1127   31.7135 H   0  0  0  0  0  0
   27.7901   27.1832   32.4256 H   0  0  0  0  0  0
  1  2  1  0  0  0
  1 41  1  0  0  0
  1 42  1  0  0  0
  1 43  1  0  0  0
  2 10  1  0  0  0
  2  3  2  0  0  0
  3  4  1  0  0  0
  4  9  2  0  0  0
  4  5  1  0  0  0
  5  6  2  0  0  0
  5 44  1  0  0  0
  6  7  1  0  0  0
  6 45  1  0  0  0
  7  8  2  0  0  0
  7 25  1  0  0  0
  8  9  1  0  0  0
  8 46  1  0  0  0
  9 10  1  0  0  0
 10 11  1  0  0  0
 11 12  1  0  0  0
 11 47  1  0  0  0
 11 48  1  0  0  0
 12 21  1  0  0  0
 12 13  2  0  0  0
 13 14  1  0  0  0
 13 49  1  0  0  0
 14 15  2  0  0  0
 14 50  1  0  0  0
 15 20  1  0  0  0
 15 16  1  0  0  0
 16 17  2  0  0  0
 16 51  1  0  0  0
 17 18  1  0  0  0
 17 52  1  0  0  0
 18 19  2  0  0  0
 18 22  1  0  0  0
 19 20  1  0  0  0
 19 53  1  0  0  0
 20 21  2  0  0  0
 21 54  1  0  0  0
 22 23  2  3  0  0
 22 24  1  0  0  0
 23 55  1  0  0  0
 24 56  1  0  0  0
 24 57  1  0  0  0
 25 26  1  0  0  0
 25 32  1  0  0  0
 26 27  1  0  0  0
 26 58  1  0  0  0
 26 59  1  0  0  0
 27 28  1  0  0  0
 27 60  1  0  0  0
 27 61  1  0  0  0
 28 29  1  0  0  0
 28 62  1  0  0  0
 28 63  1  0  0  0
 29 30  2  0  0  0
 29 31  1  0  0  0
 31 64  1  0  0  0
 32 37  1  0  0  0
 32 33  1  0  0  0
 32 65  1  0  0  0
 33 34  1  0  0  0
 33 66  1  0  0  0
 33 67  1  0  0  0
 34 35  1  0  0  0
 34 68  1  0  0  0
 34 69  1  0  0  0
 35 36  1  0  0  0
 35 38  1  0  0  0
 36 37  1  0  0  0
 36 70  1  0  0  0
 36 71  1  0  0  0
 37 72  1  0  0  0
 37 73  1  0  0  0
 38 39  2  3  0  0
 38 40  1  0  0  0
 39 74  1  0  0  0
 40 75  1  0  0  0
 40 76  1  0  0  0
 40 77  1  0  0  0
M  END
> <s_m_entry_id>
39980

> <s_m_entry_name>
ligand_docking-pose.21

> <s_m_Source_Path>
/home/csk/Desktop/cluster/DUD-E-result/try1

> <s_m_Source_File>
ligand_docking-pose.sdf

> <i_m_Source_File_Index>
21

> <i_lp_mmshare_version>
53161

> <i_f3d_flags>
0

> <r_lp_tautomer_probability>
0.499900269896156

> <s_lp_Force_Field>
OPLS_2005

> <r_lp_Energy>
31.062876

> <b_lp_Chiralities_Consistent>
1

> <s_lp_Variant>
290911-4

> <s_i_glide_gridfile>
glide-grid_2ayw

> <i_i_glide_lignum>
1342

> <i_i_glide_rotatable_bonds>
11

> <r_i_docking_score>
-7.60928510463649

> <r_i_glide_ligand_efficiency>
-0.190232127615912

> <r_i_glide_ligand_efficiency_sa>
-0.650584724216708

> <r_i_glide_ligand_efficiency_ln>
-1.62283658155474

> <r_i_glide_gscore>
-7.60928510463649

> <r_i_glide_lipo>
-2.14928675937944

> <r_i_glide_hbond>
-1.18054272186524

> <r_i_glide_metal>
0

> <r_i_glide_rewards>
-0.20032995707232

> <r_i_glide_evdw>
-38.8445587158203

> <r_i_glide_ecoul>
-17.5381641387939

> <r_i_glide_erotb>
0.567766887960444

> <r_i_glide_esite>
-0.0739399976698278

> <r_i_glide_emodel>
-72.7786277038328

> <r_i_glide_energy>
-56.3827228546143

> <r_i_glide_einternal>
14.648645401001

> <i_i_glide_confnum>
21

> <i_i_glide_posenum>
328

> <r_i_glide_eff_state_penalty>
0

> <s_user_duplicate_titles>
290911

> <s_m_subgroup_title>
dock_pv

> <s_m_subgroupid>
dock_pv1

> <b_m_subgroup_collapsed>
0

$$$$
74730
                    3D
 Schrodinger Suite 2021-1.
 47 49  0  0  1  0            999 V2000
   23.3008   24.2579   28.3048 C   0  0  0  0  0  0
   22.7457   23.4228   27.3356 C   0  0  0  0  0  0
   22.4148   22.0811   27.6184 C   0  0  0  0  0  0
   22.7121   21.6119   28.9133 C   0  0  0  0  0  0
   23.2828   22.4387   29.8847 C   0  0  0  0  0  0
   23.5528   23.7702   29.5831 C   0  0  0  0  0  0
   23.5210   21.9718   31.1568 O   0  0  0  0  0  0
   24.4561   20.9864   31.4123 C   0  0  0  0  0  0
   24.3591   20.2881   32.6156 C   0  0  0  0  0  0
   25.2790   19.2668   32.8944 C   0  0  0  0  0  0
   26.2744   18.9904   31.9507 C   0  0  0  0  0  0
   26.2951   19.7118   30.7535 C   0  0  0  0  0  0
   25.4150   20.7096   30.4815 N   0  0  0  0  0  0
   27.1828   19.4023   29.7456 O   0  0  0  0  0  0
   27.1588   18.1231   29.2256 C   0  0  0  0  0  0
   25.9529   17.4389   29.0369 C   0  0  0  0  0  0
   25.9529   16.1259   28.5916 C   0  0  0  0  0  0
   27.1492   15.4861   28.3167 C   0  0  0  0  0  0
   28.3841   16.1400   28.4719 C   0  0  0  0  0  0
   28.3615   17.4810   28.9098 C   0  0  0  0  0  0
   29.6316   15.3857   28.2018 C   0  0  0  0  0  0
   29.6176   14.1326   28.1705 N   0  0  0  0  0  0
   30.7532   16.1329   27.9825 N   0  0  0  0  0  0
   25.2052   18.4711   34.1698 C   0  0  0  0  0  0
   26.2169   18.1356   34.7784 O   0  0  0  0  0  0
   23.9870   18.1316   34.5919 N   0  0  0  0  0  0
   21.7439   21.1884   26.6291 C   0  0  0  0  0  0
   21.3667   20.0318   26.9493 N   0  0  0  0  0  0
   21.5532   21.7347   25.3855 N   0  0  0  0  0  0
   23.5268   25.2868   28.0663 H   0  0  0  0  0  0
   22.5540   23.8575   26.3668 H   0  0  0  0  0  0
   22.4819   20.5929   29.1924 H   0  0  0  0  0  0
   23.9703   24.4190   30.3388 H   0  0  0  0  0  0
   23.5769   20.5457   33.3148 H   0  0  0  0  0  0
   26.9978   18.2046   32.1175 H   0  0  0  0  0  0
   25.0093   17.9146   29.2594 H   0  0  0  0  0  0
   25.0211   15.5932   28.4776 H   0  0  0  0  0  0
   27.1003   14.4565   27.9896 H   0  0  0  0  0  0
   29.2814   18.0249   29.0669 H   0  0  0  0  0  0
   30.5313   13.7649   27.9326 H   0  0  0  0  0  0
   31.5924   15.6366   27.6967 H   0  0  0  0  0  0
   30.8478   17.0990   28.2795 H   0  0  0  0  0  0
   23.8963   17.5928   35.4398 H   0  0  0  0  0  0
   23.1754   18.3191   34.0240 H   0  0  0  0  0  0
   20.8762   19.5724   26.1955 H   0  0  0  0  0  0
   20.9763   21.2407   24.7158 H   0  0  0  0  0  0
   21.8555   22.6719   25.1746 H   0  0  0  0  0  0
  1  6  1  0  0  0
  1  2  2  0  0  0
  1 30  1  0  0  0
  2  3  1  0  0  0
  2 31  1  0  0  0
  3  4  2  0  0  0
  3 27  1  0  0  0
  4  5  1  0  0  0
  4 32  1  0  0  0
  5  6  2  0  0  0
  5  7  1  0  0  0
  6 33  1  0  0  0
  7  8  1  0  0  0
  8 13  1  0  0  0
  8  9  2  0  0  0
  9 10  1  0  0  0
  9 34  1  0  0  0
 10 11  2  0  0  0
 10 24  1  0  0  0
 11 12  1  0  0  0
 11 35  1  0  0  0
 12 13  2  0  0  0
 12 14  1  0  0  0
 14 15  1  0  0  0
 15 20  1  0  0  0
 15 16  2  0  0  0
 16 17  1  0  0  0
 16 36  1  0  0  0
 17 18  2  0  0  0
 17 37  1  0  0  0
 18 19  1  0  0  0
 18 38  1  0  0  0
 19 20  2  0  0  0
 19 21  1  0  0  0
 20 39  1  0  0  0
 21 22  2  3  0  0
 21 23  1  0  0  0
 22 40  1  0  0  0
 23 41  1  0  0  0
 23 42  1  0  0  0
 24 25  2  0  0  0
 24 26  1  0  0  0
 26 43  1  0  0  0
 26 44  1  0  0  0
 27 28  2  3  0  0
 27 29  1  0  0  0
 28 45  1  0  0  0
 29 46  1  0  0  0
 29 47  1  0  0  0
M  END
> <s_m_entry_id>
39981

> <s_m_entry_name>
ligand_docking-pose.22

> <s_m_Source_Path>
/home/csk/Desktop/cluster/DUD-E-result/try1

> <s_m_Source_File>
ligand_docking-pose.sdf

> <i_m_Source_File_Index>
22

> <i_lp_mmshare_version>
53161

> <i_f3d_flags>
0

> <r_lp_tautomer_probability>
1

> <s_lp_Force_Field>
OPLS_2005

> <r_lp_Energy>
3.572577

> <b_lp_Chiralities_Consistent>
1

> <s_lp_Variant>
74730-1

> <s_i_glide_gridfile>
glide-grid_2ayw

> <i_i_glide_lignum>
980

> <i_i_glide_rotatable_bonds>
7

> <r_i_docking_score>
-7.59480412615925

> <r_i_glide_ligand_efficiency>
-0.261889797453767

> <r_i_glide_ligand_efficiency_sa>
-0.804608430289549

> <r_i_glide_ligand_efficiency_ln>
-1.73901755727474

> <r_i_glide_gscore>
-7.59480412615925

> <r_i_glide_lipo>
-2.04292446089685

> <r_i_glide_hbond>
-1.00180084722091

> <r_i_glide_metal>
0

> <r_i_glide_rewards>
-1.1969950533053

> <r_i_glide_evdw>
-38.9575805664062

> <r_i_glide_ecoul>
-12.3272113800049

> <r_i_glide_erotb>
0.511888244383576

> <r_i_glide_esite>
-0.0680112737987141

> <r_i_glide_emodel>
-71.8839858819153

> <r_i_glide_energy>
-51.2847919464111

> <r_i_glide_einternal>
4.73107767105103

> <i_i_glide_confnum>
10

> <i_i_glide_posenum>
81

> <r_i_glide_eff_state_penalty>
0

> <s_user_duplicate_titles>
74730

> <s_m_subgroup_title>
dock_pv

> <s_m_subgroupid>
dock_pv1

> <b_m_subgroup_collapsed>
0

$$$$
195896
                    3D
 Schrodinger Suite 2021-1.
 52 54  0  0  1  0            999 V2000
   21.4413   18.9340   35.3340 C   0  0  0  0  0  0
   22.2255   19.0565   34.1905 C   0  0  0  0  0  0
   23.3360   19.9009   34.1900 C   0  0  0  0  0  0
   23.6444   20.6152   35.3557 C   0  0  0  0  0  0
   22.8809   20.5003   36.5354 C   0  0  0  0  0  0
   21.7600   19.6523   36.4841 C   0  0  0  0  0  0
   23.2576   21.2578   37.7682 C   0  0  0  0  0  0
   24.1709   22.1270   37.7424 N   0  0  0  0  0  0
   22.5406   20.9331   38.8957 N   0  0  0  0  0  0
   24.1294   20.0656   32.9527 C   0  0  0  0  0  0
   25.4814   19.9809   32.8064 C   0  0  0  0  0  0
   26.4204   19.5627   33.9476 C   0  0  0  0  0  0
   27.3745   20.6691   34.4484 C   0  0  0  0  0  0
   28.5952   20.9534   33.5446 C   0  0  0  0  0  0
   28.2705   21.4097   32.1068 C   0  0  0  0  0  0
   27.5080   20.3699   31.2911 C   0  0  0  0  0  0
   28.1833   19.5065   30.4877 C   0  0  0  0  0  0
   27.7989   18.3488   29.6344 C   0  0  0  0  0  0
   26.5345   18.1155   29.0805 C   0  0  0  0  0  0
   26.2952   16.9727   28.3211 C   0  0  0  0  0  0
   27.3150   16.0546   28.0892 C   0  0  0  0  0  0
   28.6075   16.2577   28.5983 C   0  0  0  0  0  0
   28.8066   17.4104   29.3810 C   0  0  0  0  0  0
   29.6986   15.2816   28.3223 C   0  0  0  0  0  0
   29.4471   14.1353   27.8677 N   0  0  0  0  0  0
   30.9679   15.7329   28.5794 N   0  0  0  0  0  0
   26.0578   20.3168   31.4790 C   0  0  0  0  0  0
   25.3492   20.7120   30.5480 O   0  0  0  0  0  0
   20.5861   18.2736   35.3389 H   0  0  0  0  0  0
   21.9660   18.4941   33.3043 H   0  0  0  0  0  0
   24.4999   21.2756   35.3360 H   0  0  0  0  0  0
   21.1207   19.5178   37.3452 H   0  0  0  0  0  0
   24.3105   22.5528   38.6444 H   0  0  0  0  0  0
   22.7383   21.4037   39.7635 H   0  0  0  0  0  0
   22.0062   20.0723   38.9350 H   0  0  0  0  0  0
   23.5160   20.3166   32.0966 H   0  0  0  0  0  0
   25.8239   19.2205   34.7926 H   0  0  0  0  0  0
   26.9898   18.6802   33.6461 H   0  0  0  0  0  0
   26.8165   21.5923   34.6124 H   0  0  0  0  0  0
   27.7490   20.3815   35.4321 H   0  0  0  0  0  0
   29.2129   21.7149   34.0207 H   0  0  0  0  0  0
   29.2186   20.0588   33.5008 H   0  0  0  0  0  0
   27.7317   22.3595   32.1211 H   0  0  0  0  0  0
   29.2097   21.6378   31.5985 H   0  0  0  0  0  0
   29.2494   19.6838   30.4587 H   0  0  0  0  0  0
   25.7165   18.7992   29.2137 H   0  0  0  0  0  0
   25.3149   16.7949   27.9061 H   0  0  0  0  0  0
   27.0888   15.1833   27.4906 H   0  0  0  0  0  0
   29.7785   17.5825   29.8225 H   0  0  0  0  0  0
   30.3007   13.6183   27.6878 H   0  0  0  0  0  0
   31.7363   15.1670   28.2262 H   0  0  0  0  0  0
   31.1473   16.7216   28.7231 H   0  0  0  0  0  0
  1  6  1  0  0  0
  1  2  2  0  0  0
  1 29  1  0  0  0
  2  3  1  0  0  0
  2 30  1  0  0  0
  3  4  2  0  0  0
  3 10  1  0  0  0
  4  5  1  0  0  0
  4 31  1  0  0  0
  5  6  2  0  0  0
  5  7  1  0  0  0
  6 32  1  0  0  0
  7  8  2  3  0  0
  7  9  1  0  0  0
  8 33  1  0  0  0
  9 34  1  0  0  0
  9 35  1  0  0  0
 10 11  2  0  0  0
 10 36  1  0  0  0
 11 27  1  0  0  0
 11 12  1  0  0  0
 12 13  1  0  0  0
 12 37  1  0  0  0
 12 38  1  0  0  0
 13 14  1  0  0  0
 13 39  1  0  0  0
 13 40  1  0  0  0
 14 15  1  0  0  0
 14 41  1  0  0  0
 14 42  1  0  0  0
 15 16  1  0  0  0
 15 43  1  0  0  0
 15 44  1  0  0  0
 16 17  2  0  0  0
 16 27  1  0  0  0
 17 18  1  0  0  0
 17 45  1  0  0  0
 18 23  1  0  0  0
 18 19  2  0  0  0
 19 20  1  0  0  0
 19 46  1  0  0  0
 20 21  2  0  0  0
 20 47  1  0  0  0
 21 22  1  0  0  0
 21 48  1  0  0  0
 22 23  2  0  0  0
 22 24  1  0  0  0
 23 49  1  0  0  0
 24 25  2  3  0  0
 24 26  1  0  0  0
 25 50  1  0  0  0
 26 51  1  0  0  0
 26 52  1  0  0  0
 27 28  2  0  0  0
M  END
> <s_m_entry_id>
39982

> <s_m_entry_name>
ligand_docking-pose.23

> <s_m_Source_Path>
/home/csk/Desktop/cluster/DUD-E-result/try1

> <s_m_Source_File>
ligand_docking-pose.sdf

> <i_m_Source_File_Index>
23

> <i_lp_mmshare_version>
53161

> <i_f3d_flags>
0

> <r_lp_tautomer_probability>
1

> <s_lp_Force_Field>
OPLS_2005

> <r_lp_Energy>
25.331349

> <b_lp_Chiralities_Consistent>
1

> <s_lp_Variant>
195896-1

> <s_i_glide_gridfile>
glide-grid_2ayw

> <i_i_glide_lignum>
624

> <i_i_glide_rotatable_bonds>
4

> <r_i_docking_score>
-7.57636962854392

> <r_i_glide_ligand_efficiency>
-0.270584629590854

> <r_i_glide_ligand_efficiency_sa>
-0.821654301262009

> <r_i_glide_ligand_efficiency_ln>
-1.74884856214637

> <r_i_glide_gscore>
-7.57636962854392

> <r_i_glide_lipo>
-2.21432216006184

> <r_i_glide_hbond>
-1.10996440901692

> <r_i_glide_metal>
0

> <r_i_glide_rewards>
-0.996948234832018

> <r_i_glide_evdw>
-30.3369159698486

> <r_i_glide_ecoul>
-12.8593330383301

> <r_i_glide_erotb>
0.278448852013895

> <r_i_glide_esite>
-0.0878379224050938

> <r_i_glide_emodel>
-59.584431731741

> <r_i_glide_energy>
-43.1962490081787

> <r_i_glide_einternal>
5.68641901016235

> <i_i_glide_confnum>
5

> <i_i_glide_posenum>
21

> <r_i_glide_eff_state_penalty>
0

> <s_user_duplicate_titles>
195896

> <s_m_subgroup_title>
dock_pv

> <s_m_subgroupid>
dock_pv1

> <b_m_subgroup_collapsed>
0

$$$$
290848
                    3D
 Schrodinger Suite 2021-1.
 76 80  0  0  1  0            999 V2000
   28.3286   19.9187   34.6186 C   0  0  0  0  0  0
   29.2961   20.7747   33.8289 C   0  0  0  0  0  0
   30.5485   20.9426   34.1722 N   0  0  0  0  0  0
   31.0652   21.7625   33.2083 C   0  0  0  0  0  0
   32.3589   22.2886   33.1050 C   0  0  0  0  0  0
   32.6503   23.0920   32.0005 C   0  0  0  0  0  0
   31.7052   23.3499   30.9934 C   0  0  0  0  0  0
   30.3963   22.8428   31.0978 C   0  0  0  0  0  0
   30.0964   22.0679   32.2230 C   0  0  0  0  0  0
   28.9438   21.4559   32.6779 N   0  0  0  0  0  0
   27.6232   21.5017   32.0471 C   0  0  0  0  0  0
   27.2420   20.2803   31.2137 C   0  0  0  0  0  0
   25.8909   20.0049   30.9949 C   0  0  0  0  0  0
   25.4938   18.8951   30.2514 C   0  0  0  0  0  0
   26.4620   18.0198   29.7067 C   0  0  0  0  0  0
   26.1044   16.8681   28.9716 C   0  0  0  0  0  0
   27.0842   16.0148   28.4738 C   0  0  0  0  0  0
   28.4510   16.2512   28.6832 C   0  0  0  0  0  0
   28.8080   17.4007   29.4067 C   0  0  0  0  0  0
   27.8414   18.2933   29.9215 C   0  0  0  0  0  0
   28.2141   19.4360   30.6669 C   0  0  0  0  0  0
   29.4662   15.2854   28.1941 C   0  0  0  0  0  0
   29.1530   14.1331   27.8244 N   0  0  0  0  0  0
   30.7543   15.7335   28.1983 N   0  0  0  0  0  0
   32.0478   24.1815   29.8827 N   0  0  0  0  0  0
   31.1569   25.3362   29.5800 C   0  0  0  0  0  0
   30.1343   25.1335   28.4161 C   0  0  0  0  0  0
   29.1954   26.3364   28.1800 C   0  0  0  0  0  0
   28.6030   26.7186   29.4672 N   0  0  0  0  0  0
   29.6205   27.2623   30.3772 C   0  0  0  0  0  0
   30.5575   26.1103   30.7935 C   0  0  0  0  0  0
   27.2453   26.5666   29.7567 C   0  0  0  0  0  0
   26.3382   26.1341   28.9928 N   0  0  0  0  0  0
   26.7970   26.9477   31.1629 C   0  0  0  0  0  0
   33.1244   23.8662   29.0824 C   0  0  0  0  0  0
   33.8935   22.9331   29.3254 O   0  0  0  0  0  0
   33.4623   24.6639   27.8022 C   0  0  0  0  0  0
   33.5133   23.7463   26.5513 C   0  0  0  0  0  0
   33.5466   24.5164   25.2324 C   0  0  0  0  0  0
   33.8649   25.7001   25.1290 O   0  0  0  0  0  0
   33.1607   23.7320   24.1907 O   0  0  0  0  0  0
   28.8040   19.4396   35.4777 H   0  0  0  0  0  0
   27.4940   20.5079   35.0027 H   0  0  0  0  0  0
   27.9092   19.1236   34.0024 H   0  0  0  0  0  0
   33.1047   22.0792   33.8592 H   0  0  0  0  0  0
   33.6430   23.5139   31.9212 H   0  0  0  0  0  0
   29.6485   23.0417   30.3491 H   0  0  0  0  0  0
   26.8868   21.6616   32.8360 H   0  0  0  0  0  0
   27.5750   22.3823   31.4055 H   0  0  0  0  0  0
   25.1326   20.6511   31.4128 H   0  0  0  0  0  0
   24.4442   18.6892   30.0993 H   0  0  0  0  0  0
   25.0629   16.6316   28.8214 H   0  0  0  0  0  0
   26.7592   15.1366   27.9340 H   0  0  0  0  0  0
   29.8427   17.6147   29.6304 H   0  0  0  0  0  0
   29.2656   19.6261   30.8236 H   0  0  0  0  0  0
   29.9812   13.6246   27.5371 H   0  0  0  0  0  0
   31.4817   15.1518   27.7852 H   0  0  0  0  0  0
   30.9935   16.6898   28.4303 H   0  0  0  0  0  0
   31.8130   26.1227   29.2138 H   0  0  0  0  0  0
   29.4976   24.2765   28.6303 H   0  0  0  0  0  0
   30.6346   24.8963   27.4755 H   0  0  0  0  0  0
   28.4605   26.1553   27.3920 H   0  0  0  0  0  0
   29.8083   27.1789   27.8588 H   0  0  0  0  0  0
   30.2158   27.9586   29.7822 H   0  0  0  0  0  0
   29.2345   27.8466   31.2118 H   0  0  0  0  0  0
   31.3499   26.4985   31.4355 H   0  0  0  0  0  0
   29.9585   25.4417   31.4094 H   0  0  0  0  0  0
   26.6877   25.9044   28.0715 H   0  0  0  0  0  0
   27.3711   26.4137   31.9194 H   0  0  0  0  0  0
   25.7430   26.7218   31.3447 H   0  0  0  0  0  0
   26.9216   28.0179   31.3318 H   0  0  0  0  0  0
   32.8002   25.5055   27.6152 H   0  0  0  0  0  0
   34.4513   25.0867   27.9779 H   0  0  0  0  0  0
   34.4236   23.1413   26.5674 H   0  0  0  0  0  0
   32.6530   23.0697   26.5338 H   0  0  0  0  0  0
   33.1532   24.2553   23.3769 H   0  0  0  0  0  0
  1  2  1  0  0  0
  1 42  1  0  0  0
  1 43  1  0  0  0
  1 44  1  0  0  0
  2 10  1  0  0  0
  2  3  2  0  0  0
  3  4  1  0  0  0
  4  9  2  0  0  0
  4  5  1  0  0  0
  5  6  2  0  0  0
  5 45  1  0  0  0
  6  7  1  0  0  0
  6 46  1  0  0  0
  7  8  2  0  0  0
  7 25  1  0  0  0
  8  9  1  0  0  0
  8 47  1  0  0  0
  9 10  1  0  0  0
 10 11  1  0  0  0
 11 12  1  0  0  0
 11 48  1  0  0  0
 11 49  1  0  0  0
 12 21  1  0  0  0
 12 13  2  0  0  0
 13 14  1  0  0  0
 13 50  1  0  0  0
 14 15  2  0  0  0
 14 51  1  0  0  0
 15 20  1  0  0  0
 15 16  1  0  0  0
 16 17  2  0  0  0
 16 52  1  0  0  0
 17 18  1  0  0  0
 17 53  1  0  0  0
 18 19  2  0  0  0
 18 22  1  0  0  0
 19 20  1  0  0  0
 19 54  1  0  0  0
 20 21  2  0  0  0
 21 55  1  0  0  0
 22 23  2  3  0  0
 22 24  1  0  0  0
 23 56  1  0  0  0
 24 57  1  0  0  0
 24 58  1  0  0  0
 25 26  1  0  0  0
 25 35  1  0  0  0
 26 31  1  0  0  0
 26 27  1  0  0  0
 26 59  1  0  0  0
 27 28  1  0  0  0
 27 60  1  0  0  0
 27 61  1  0  0  0
 28 29  1  0  0  0
 28 62  1  0  0  0
 28 63  1  0  0  0
 29 30  1  0  0  0
 29 32  1  0  0  0
 30 31  1  0  0  0
 30 64  1  0  0  0
 30 65  1  0  0  0
 31 66  1  0  0  0
 31 67  1  0  0  0
 32 33  2  3  0  0
 32 34  1  0  0  0
 33 68  1  0  0  0
 34 69  1  0  0  0
 34 70  1  0  0  0
 34 71  1  0  0  0
 35 36  2  0  0  0
 35 37  1  0  0  0
 37 38  1  0  0  0
 37 72  1  0  0  0
 37 73  1  0  0  0
 38 39  1  0  0  0
 38 74  1  0  0  0
 38 75  1  0  0  0
 39 40  2  0  0  0
 39 41  1  0  0  0
 41 76  1  0  0  0
M  END
> <s_m_entry_id>
39983

> <s_m_entry_name>
ligand_docking-pose.24

> <s_m_Source_Path>
/home/csk/Desktop/cluster/DUD-E-result/try1

> <s_m_Source_File>
ligand_docking-pose.sdf

> <i_m_Source_File_Index>
24

> <i_lp_mmshare_version>
53161

> <i_f3d_flags>
0

> <r_lp_tautomer_probability>
0.499900269896156

> <s_lp_Force_Field>
OPLS_2005

> <r_lp_Energy>
34.19938

> <b_lp_Chiralities_Consistent>
1

> <s_lp_Variant>
290848-3

> <s_i_glide_gridfile>
glide-grid_2ayw

> <i_i_glide_lignum>
1317

> <i_i_glide_rotatable_bonds>
11

> <r_i_docking_score>
-7.54875506951843

> <r_i_glide_ligand_efficiency>
-0.184115977305328

> <r_i_glide_ligand_efficiency_sa>
-0.634871886388265

> <r_i_glide_ligand_efficiency_ln>
-1.60149350910348

> <r_i_glide_gscore>
-7.54875506951843

> <r_i_glide_lipo>
-2.04455775310327

> <r_i_glide_hbond>
-1.23329914601695

> <r_i_glide_metal>
0

> <r_i_glide_rewards>
0.172729362377106

> <r_i_glide_evdw>
-36.0958671569824

> <r_i_glide_ecoul>
-20.1987743377686

> <r_i_glide_erotb>
0.468940777635646

> <r_i_glide_esite>
-0.0779588018965563

> <r_i_glide_emodel>
-76.6413298479702

> <r_i_glide_energy>
-56.294641494751

> <r_i_glide_einternal>
6.73002672195435

> <i_i_glide_confnum>
15

> <i_i_glide_posenum>
133

> <r_i_glide_eff_state_penalty>
0

> <s_user_duplicate_titles>
290848

> <s_m_subgroup_title>
dock_pv

> <s_m_subgroupid>
dock_pv1

> <b_m_subgroup_collapsed>
0

$$$$
79304
                    3D
 Schrodinger Suite 2021-1.
 27 27  0  0  1  0            999 V2000
   27.2244   16.1476   28.1632 C   0  0  0  0  0  0
   26.2034   17.0357   28.4768 C   0  0  0  0  0  0
   26.4446   18.0829   29.3628 C   0  0  0  0  0  0
   27.7140   18.2497   29.9206 C   0  0  0  0  0  0
   28.7362   17.3590   29.5991 C   0  0  0  0  0  0
   28.5061   16.2826   28.7252 C   0  0  0  0  0  0
   29.5497   15.2714   28.4304 C   0  0  0  0  0  0
   29.2256   14.0847   28.1908 N   0  0  0  0  0  0
   30.8373   15.7331   28.4257 N   0  0  0  0  0  0
   25.1036   19.1916   29.7911 S   0  0  0  0  0  0
   25.7003   20.3659   30.4404 O   0  0  0  0  0  0
   24.2718   19.3337   28.5920 O   0  0  0  0  0  0
   24.1509   18.3138   30.9746 N   0  0  0  0  0  0
   24.4174   18.2154   32.3727 C   0  0  0  0  0  0
   25.3148   18.8277   32.9949 N   0  0  0  0  0  0
   23.5571   17.3321   33.0383 N   0  0  0  0  0  0
   27.0031   15.3335   27.4862 H   0  0  0  0  0  0
   25.2249   16.8966   28.0396 H   0  0  0  0  0  0
   27.9108   19.0555   30.6133 H   0  0  0  0  0  0
   29.7026   17.4953   30.0654 H   0  0  0  0  0  0
   30.0444   13.5292   27.9821 H   0  0  0  0  0  0
   31.5793   15.1423   28.0504 H   0  0  0  0  0  0
   31.0518   16.7120   28.5906 H   0  0  0  0  0  0
   23.4240   17.7030   30.5932 H   0  0  0  0  0  0
   25.8283   19.4438   32.3798 H   0  0  0  0  0  0
   23.7836   17.1368   34.0007 H   0  0  0  0  0  0
   23.3570   16.4647   32.5568 H   0  0  0  0  0  0
  1  6  1  0  0  0
  1  2  2  0  0  0
  1 17  1  0  0  0
  2  3  1  0  0  0
  2 18  1  0  0  0
  3  4  2  0  0  0
  3 10  1  0  0  0
  4  5  1  0  0  0
  4 19  1  0  0  0
  5  6  2  0  0  0
  5 20  1  0  0  0
  6  7  1  0  0  0
  7  8  2  3  0  0
  7  9  1  0  0  0
  8 21  1  0  0  0
  9 22  1  0  0  0
  9 23  1  0  0  0
 10 11  2  0  0  0
 10 12  2  0  0  0
 10 13  1  0  0  0
 13 14  1  0  0  0
 13 24  1  0  0  0
 14 15  2  3  0  0
 14 16  1  0  0  0
 15 25  1  0  0  0
 16 26  1  0  0  0
 16 27  1  0  0  0
M  END
> <s_m_entry_id>
39984

> <s_m_entry_name>
ligand_docking-pose.25

> <s_m_Source_Path>
/home/csk/Desktop/cluster/DUD-E-result/try1

> <s_m_Source_File>
ligand_docking-pose.sdf

> <i_m_Source_File_Index>
25

> <i_lp_mmshare_version>
53161

> <i_f3d_flags>
0

> <r_lp_tautomer_probability>
1

> <s_lp_Force_Field>
OPLS_2005

> <r_lp_Energy>
3.63352

> <b_lp_Chiralities_Consistent>
1

> <s_lp_Variant>
79304-3

> <s_i_glide_gridfile>
glide-grid_2ayw

> <i_i_glide_lignum>
673

> <i_i_glide_rotatable_bonds>
4

> <r_i_docking_score>
-7.53178762567274

> <r_i_glide_ligand_efficiency>
-0.470736726604546

> <r_i_glide_ligand_efficiency_sa>
-1.18618222051909

> <r_i_glide_ligand_efficiency_ln>
-1.99645076105755

> <r_i_glide_gscore>
-7.53178762567274

> <r_i_glide_lipo>
-1.68616901793979

> <r_i_glide_hbond>
-1.00415853527689

> <r_i_glide_metal>
0

> <r_i_glide_rewards>
-2.05281537150525

> <r_i_glide_evdw>
-29.7548046112061

> <r_i_glide_ecoul>
-13.5433311462402

> <r_i_glide_erotb>
0.892651815035275

> <r_i_glide_esite>
-0.162056613489742

> <r_i_glide_emodel>
-62.2885987980374

> <r_i_glide_energy>
-43.2981357574463

> <r_i_glide_einternal>
2.0009286403656

> <i_i_glide_confnum>
11

> <i_i_glide_posenum>
265

> <r_i_glide_eff_state_penalty>
0

> <s_user_duplicate_titles>
79304

> <s_m_subgroup_title>
dock_pv

> <s_m_subgroupid>
dock_pv1

> <b_m_subgroup_collapsed>
0

$$$$
74880
                    3D
 Schrodinger Suite 2021-1.
 52 54  0  0  1  0            999 V2000
   22.6528   20.1288   37.3428 C   0  0  0  0  0  0
   22.8876   20.1569   35.9017 N   0  0  0  0  0  0
   24.0459   19.8369   35.3058 C   0  0  0  0  0  0
   25.0023   19.3349   35.8968 O   0  0  0  0  0  0
   24.0207   20.1610   33.9979 N   0  0  0  0  0  0
   25.0049   19.9364   33.0116 C   0  0  0  0  0  0
   26.0268   18.9782   33.1322 C   0  0  0  0  0  0
   26.9128   18.7768   32.0764 C   0  0  0  0  0  0
   26.7493   19.5298   30.9122 C   0  0  0  0  0  0
   25.7944   20.4821   30.7783 N   0  0  0  0  0  0
   24.9243   20.6698   31.8140 C   0  0  0  0  0  0
   23.9175   21.6119   31.6646 O   0  0  0  0  0  0
   23.5456   22.1282   30.4411 C   0  0  0  0  0  0
   23.4671   23.5105   30.2962 C   0  0  0  0  0  0
   23.0471   24.0636   29.0903 C   0  0  0  0  0  0
   22.6905   23.2342   28.0277 C   0  0  0  0  0  0
   22.7458   21.8307   28.1387 C   0  0  0  0  0  0
   23.1823   21.3026   29.3705 C   0  0  0  0  0  0
   22.3592   20.9288   27.0187 C   0  0  0  0  0  0
   22.7528   19.7332   26.9908 N   0  0  0  0  0  0
   21.5574   21.5070   26.0661 N   0  0  0  0  0  0
   27.5078   19.2917   29.7913 O   0  0  0  0  0  0
   27.3986   18.0429   29.2216 C   0  0  0  0  0  0
   26.1461   17.4885   28.9366 C   0  0  0  0  0  0
   26.0536   16.1997   28.4290 C   0  0  0  0  0  0
   27.2047   15.4658   28.1907 C   0  0  0  0  0  0
   28.4850   15.9920   28.4490 C   0  0  0  0  0  0
   28.5550   17.3041   28.9585 C   0  0  0  0  0  0
   29.6821   15.1509   28.1923 C   0  0  0  0  0  0
   29.5531   13.9726   27.7914 N   0  0  0  0  0  0
   30.8994   15.7330   28.4138 N   0  0  0  0  0  0
   22.2208   21.0763   37.6665 H   0  0  0  0  0  0
   21.9487   19.3335   37.5913 H   0  0  0  0  0  0
   23.5658   19.9627   37.9180 H   0  0  0  0  0  0
   22.0978   20.4044   35.3258 H   0  0  0  0  0  0
   23.2187   20.6796   33.6732 H   0  0  0  0  0  0
   26.1307   18.3633   34.0133 H   0  0  0  0  0  0
   27.6881   18.0276   32.1414 H   0  0  0  0  0  0
   23.7308   24.1540   31.1227 H   0  0  0  0  0  0
   22.9942   25.1369   28.9793 H   0  0  0  0  0  0
   22.3811   23.7089   27.1078 H   0  0  0  0  0  0
   23.2222   20.2347   29.5302 H   0  0  0  0  0  0
   23.3322   19.5008   27.7832 H   0  0  0  0  0  0
   21.1623   20.9222   25.3424 H   0  0  0  0  0  0
   21.1551   22.4169   26.2221 H   0  0  0  0  0  0
   25.2427   18.0465   29.1328 H   0  0  0  0  0  0
   25.0960   15.7477   28.2301 H   0  0  0  0  0  0
   27.0802   14.4623   27.8078 H   0  0  0  0  0  0
   29.5067   17.7591   29.1920 H   0  0  0  0  0  0
   30.4568   13.5471   27.6172 H   0  0  0  0  0  0
   31.7149   15.2250   28.0720 H   0  0  0  0  0  0
   31.0059   16.7250   28.5910 H   0  0  0  0  0  0
  1  2  1  0  0  0
  1 32  1  0  0  0
  1 33  1  0  0  0
  1 34  1  0  0  0
  2  3  1  0  0  0
  2 35  1  0  0  0
  3  4  2  0  0  0
  3  5  1  0  0  0
  5  6  1  0  0  0
  5 36  1  0  0  0
  6 11  1  0  0  0
  6  7  2  0  0  0
  7  8  1  0  0  0
  7 37  1  0  0  0
  8  9  2  0  0  0
  8 38  1  0  0  0
  9 10  1  0  0  0
  9 22  1  0  0  0
 10 11  2  0  0  0
 11 12  1  0  0  0
 12 13  1  0  0  0
 13 18  1  0  0  0
 13 14  2  0  0  0
 14 15  1  0  0  0
 14 39  1  0  0  0
 15 16  2  0  0  0
 15 40  1  0  0  0
 16 17  1  0  0  0
 16 41  1  0  0  0
 17 18  2  0  0  0
 17 19  1  0  0  0
 18 42  1  0  0  0
 19 20  2  3  0  0
 19 21  1  0  0  0
 20 43  1  0  0  0
 21 44  1  0  0  0
 21 45  1  0  0  0
 22 23  1  0  0  0
 23 28  1  0  0  0
 23 24  2  0  0  0
 24 25  1  0  0  0
 24 46  1  0  0  0
 25 26  2  0  0  0
 25 47  1  0  0  0
 26 27  1  0  0  0
 26 48  1  0  0  0
 27 28  2  0  0  0
 27 29  1  0  0  0
 28 49  1  0  0  0
 29 30  2  3  0  0
 29 31  1  0  0  0
 30 50  1  0  0  0
 31 51  1  0  0  0
 31 52  1  0  0  0
M  END
> <s_m_entry_id>
39987

> <s_m_entry_name>
ligand_docking-pose.28

> <s_m_Source_Path>
/home/csk/Desktop/cluster/DUD-E-result/try1

> <s_m_Source_File>
ligand_docking-pose.sdf

> <i_m_Source_File_Index>
28

> <i_lp_mmshare_version>
53161

> <i_f3d_flags>
0

> <r_lp_tautomer_probability>
1

> <s_lp_Force_Field>
OPLS_2005

> <r_lp_Energy>
10.441497

> <b_lp_Chiralities_Consistent>
1

> <s_lp_Variant>
74880-2

> <s_i_glide_gridfile>
glide-grid_2ayw

> <i_i_glide_lignum>
2347

> <i_i_glide_rotatable_bonds>
9

> <r_i_docking_score>
-7.47620333588284

> <r_i_glide_ligand_efficiency>
-0.241167849544608

> <r_i_glide_ligand_efficiency_sa>
-0.757600015671073

> <r_i_glide_ligand_efficiency_ln>
-1.68611297035778

> <r_i_glide_gscore>
-7.47620333588284

> <r_i_glide_lipo>
-2.17573584677677

> <r_i_glide_hbond>
-1.03244259244157

> <r_i_glide_metal>
0

> <r_i_glide_rewards>
-0.829428270372629

> <r_i_glide_evdw>
-36.9357414245605

> <r_i_glide_ecoul>
-14.5912857055664

> <r_i_glide_erotb>
0.674712219477478

> <r_i_glide_esite>
-0.0778289187063573

> <r_i_glide_emodel>
-74.162759828101

> <r_i_glide_energy>
-51.527027130127

> <r_i_glide_einternal>
3.64309048652649

> <i_i_glide_confnum>
23

> <i_i_glide_posenum>
356

> <r_i_glide_eff_state_penalty>
0

> <s_user_duplicate_titles>
74880

> <s_m_subgroup_title>
dock_pv

> <s_m_subgroupid>
dock_pv1

> <b_m_subgroup_collapsed>
0

$$$$
208545
                    3D
 Schrodinger Suite 2021-1.
 42 45  0  0  1  0            999 V2000
   29.0572   14.8537   28.1531 C   0  0  0  0  0  0
   29.6507   16.0315   28.5910 C   0  0  0  0  0  0
   28.8536   17.0626   29.0771 C   0  0  0  0  0  0
   27.4603   16.9333   29.1039 C   0  0  0  0  0  0
   26.8750   15.7670   28.5919 C   0  0  0  0  0  0
   27.6709   14.7217   28.1371 C   0  0  0  0  0  0
   26.6212   17.9943   29.7335 C   0  0  0  0  0  0
   26.9616   18.4630   31.0101 C   0  0  0  0  0  0
   26.1847   19.4220   31.6549 C   0  0  0  0  0  0
   25.0586   19.9428   31.0246 C   0  0  0  0  0  0
   24.7064   19.5103   29.7447 C   0  0  0  0  0  0
   25.4836   18.5323   29.1042 C   0  0  0  0  0  0
   25.1532   18.1330   27.8352 O   0  0  0  0  0  0
   23.5472   20.1685   29.0869 C   0  0  0  0  0  0
   23.5078   21.2764   28.2626 C   0  0  0  0  0  0
   22.1473   21.5401   27.9336 C   0  0  0  0  0  0
   21.5116   22.5110   27.1587 C   0  0  0  0  0  0
   20.1115   22.5328   27.0644 C   0  0  0  0  0  0
   19.3600   21.5667   27.7704 C   0  0  0  0  0  0
   19.9713   20.5524   28.5147 C   0  0  0  0  0  0
   21.3652   20.5590   28.5895 C   0  0  0  0  0  0
   22.2547   19.7331   29.2464 N   0  0  0  0  0  0
   17.6274   21.5842   27.7911 Cl  0  0  0  0  0  0
   19.5069   23.5578   26.1937 C   0  0  0  0  0  0
   18.7063   24.4133   26.6531 N   0  0  0  0  0  0
   19.9506   23.4590   24.8976 N   0  0  0  0  0  0
   22.0244   18.9081   29.7912 H   0  0  0  0  0  0
   29.6848   14.0461   27.8011 H   0  0  0  0  0  0
   30.7270   16.1329   28.5774 H   0  0  0  0  0  0
   29.3300   17.9583   29.4489 H   0  0  0  0  0  0
   25.8022   15.6397   28.6118 H   0  0  0  0  0  0
   27.2131   13.8064   27.7923 H   0  0  0  0  0  0
   27.8290   18.0660   31.5190 H   0  0  0  0  0  0
   26.4572   19.7625   32.6435 H   0  0  0  0  0  0
   24.4694   20.6970   31.5271 H   0  0  0  0  0  0
   24.4518   17.4666   27.7909 H   0  0  0  0  0  0
   24.3530   21.8575   27.9410 H   0  0  0  0  0  0
   22.1094   23.2510   26.6450 H   0  0  0  0  0  0
   19.3777   19.8111   29.0306 H   0  0  0  0  0  0
   18.3983   25.0644   25.9473 H   0  0  0  0  0  0
   19.6571   24.1231   24.1987 H   0  0  0  0  0  0
   20.5113   22.6662   24.6205 H   0  0  0  0  0  0
  1  6  1  0  0  0
  1  2  2  0  0  0
  1 28  1  0  0  0
  2  3  1  0  0  0
  2 29  1  0  0  0
  3  4  2  0  0  0
  3 30  1  0  0  0
  4  5  1  0  0  0
  4  7  1  0  0  0
  5  6  2  0  0  0
  5 31  1  0  0  0
  6 32  1  0  0  0
  7 12  1  0  0  0
  7  8  2  0  0  0
  8  9  1  0  0  0
  8 33  1  0  0  0
  9 10  2  0  0  0
  9 34  1  0  0  0
 10 11  1  0  0  0
 10 35  1  0  0  0
 11 12  2  0  0  0
 11 14  1  0  0  0
 12 13  1  0  0  0
 13 36  1  0  0  0
 14 22  1  0  0  0
 14 15  2  0  0  0
 15 16  1  0  0  0
 15 37  1  0  0  0
 16 21  2  0  0  0
 16 17  1  0  0  0
 17 18  2  0  0  0
 17 38  1  0  0  0
 18 19  1  0  0  0
 18 24  1  0  0  0
 19 20  2  0  0  0
 19 23  1  0  0  0
 20 21  1  0  0  0
 20 39  1  0  0  0
 21 22  1  0  0  0
 22 27  1  0  0  0
 24 25  2  3  0  0
 24 26  1  0  0  0
 25 40  1  0  0  0
 26 41  1  0  0  0
 26 42  1  0  0  0
M  END
> <s_m_entry_id>
39989

> <s_m_entry_name>
ligand_docking-pose.30

> <s_m_Source_Path>
/home/csk/Desktop/cluster/DUD-E-result/try1

> <s_m_Source_File>
ligand_docking-pose.sdf

> <i_m_Source_File_Index>
30

> <i_lp_mmshare_version>
53161

> <i_f3d_flags>
0

> <r_lp_tautomer_probability>
0.999999999997365

> <s_lp_Force_Field>
OPLS_2005

> <r_lp_Energy>
24.212274

> <b_lp_Chiralities_Consistent>
1

> <s_lp_Variant>
208545-1

> <s_i_glide_gridfile>
glide-grid_2ayw

> <i_i_glide_lignum>
316

> <i_i_glide_rotatable_bonds>
4

> <r_i_docking_score>
-7.47060433511444

> <r_i_glide_ligand_efficiency>
-0.28733093596594

> <r_i_glide_ligand_efficiency_sa>
-0.851216767206458

> <r_i_glide_ligand_efficiency_ln>
-1.75444691504943

> <r_i_glide_gscore>
-7.47060433511444

> <r_i_glide_lipo>
-2.97830518959582

> <r_i_glide_hbond>
-0.608

> <r_i_glide_metal>
0

> <r_i_glide_rewards>
-1.01017095576571

> <r_i_glide_evdw>
-35.1243362426758

> <r_i_glide_ecoul>
-9.40767192840576

> <r_i_glide_erotb>
0.293239411641746

> <r_i_glide_esite>
0

> <r_i_glide_emodel>
-58.6629882342475

> <r_i_glide_energy>
-44.5320081710815

> <r_i_glide_einternal>
9.3785457611084

> <i_i_glide_confnum>
4

> <i_i_glide_posenum>
285

> <r_i_glide_eff_state_penalty>
0

> <s_user_duplicate_titles>
208545

> <s_m_subgroup_title>
dock_pv

> <s_m_subgroupid>
dock_pv1

> <b_m_subgroup_collapsed>
0

$$$$
333366
                    3D
 Schrodinger Suite 2021-1.
 53 55  0  0  1  0            999 V2000
   23.8750   24.2808   31.3408 C   0  0  0  0  0  0
   23.2028   23.9304   30.1357 O   0  0  0  0  0  0
   23.1533   22.6060   29.7346 C   0  0  0  0  0  0
   23.7616   21.5610   30.4466 C   0  0  0  0  0  0
   23.6875   20.2330   30.0052 C   0  0  0  0  0  0
   23.0130   19.9634   28.8111 C   0  0  0  0  0  0
   22.4029   20.9919   28.0918 C   0  0  0  0  0  0
   22.4547   22.3180   28.5537 C   0  0  0  0  0  0
   21.8499   23.3896   27.9182 O   0  0  0  0  0  0
   21.0022   23.1982   26.7858 C   0  0  0  0  0  0
   21.7621   23.2573   25.4631 C   0  0  0  0  0  0
   23.0800   23.7228   25.3870 C   0  0  0  0  0  0
   23.7273   23.7815   24.1546 C   0  0  0  0  0  0
   23.0542   23.3841   23.0016 C   0  0  0  0  0  0
   21.7395   22.9326   23.0657 C   0  0  0  0  0  0
   21.0959   22.8731   24.2978 C   0  0  0  0  0  0
   24.3770   19.1130   30.7569 C   0  0  2  0  0  0
   24.0367   19.0745   32.2727 C   0  0  0  0  0  0
   24.5240   19.8639   33.0844 O   0  0  0  0  0  0
   23.1532   18.0820   32.5892 O   0  0  0  0  0  0
   25.8188   19.2417   30.6660 N   0  0  0  0  0  0
   26.7077   18.4256   29.9600 C   0  0  0  0  0  0
   28.0261   18.3629   30.3990 C   0  0  0  0  0  0
   28.9206   17.4892   29.7908 C   0  0  0  0  0  0
   28.5121   16.6563   28.7400 C   0  0  0  0  0  0
   27.1955   16.7842   28.2658 C   0  0  0  0  0  0
   26.2989   17.6621   28.8671 C   0  0  0  0  0  0
   29.4041   15.6115   28.1951 C   0  0  0  0  0  0
   28.9185   14.5322   27.7912 N   0  0  0  0  0  0
   30.7410   15.9111   28.1912 N   0  0  0  0  0  0
   23.7961   25.3567   31.4957 H   0  0  0  0  0  0
   23.4264   23.7906   32.2059 H   0  0  0  0  0  0
   24.9360   24.0311   31.2962 H   0  0  0  0  0  0
   24.3046   21.7700   31.3545 H   0  0  0  0  0  0
   22.9574   18.9510   28.4358 H   0  0  0  0  0  0
   21.8948   20.7405   27.1743 H   0  0  0  0  0  0
   20.3989   22.2927   26.8629 H   0  0  0  0  0  0
   20.2891   24.0227   26.7859 H   0  0  0  0  0  0
   23.6067   24.0399   26.2759 H   0  0  0  0  0  0
   24.7461   24.1365   24.0907 H   0  0  0  0  0  0
   23.5533   23.4353   22.0454 H   0  0  0  0  0  0
   21.2197   22.6337   22.1663 H   0  0  0  0  0  0
   20.0730   22.5310   24.3472 H   0  0  0  0  0  0
   24.0724   18.1539   30.3343 H   0  0  0  0  0  0
   22.8525   17.5613   31.8384 H   0  0  0  0  0  0
   26.2215   19.7135   31.4654 H   0  0  0  0  0  0
   28.3580   18.9550   31.2394 H   0  0  0  0  0  0
   29.9230   17.4270   30.1906 H   0  0  0  0  0  0
   26.8437   16.1680   27.4498 H   0  0  0  0  0  0
   25.2864   17.7141   28.4969 H   0  0  0  0  0  0
   29.6728   13.9329   27.4809 H   0  0  0  0  0  0
   31.4055   15.2614   27.7750 H   0  0  0  0  0  0
   31.0822   16.8166   28.4961 H   0  0  0  0  0  0
  1  2  1  0  0  0
  1 31  1  0  0  0
  1 32  1  0  0  0
  1 33  1  0  0  0
  2  3  1  0  0  0
  3  8  1  0  0  0
  3  4  2  0  0  0
  4  5  1  0  0  0
  4 34  1  0  0  0
  5  6  2  0  0  0
  5 17  1  0  0  0
  6  7  1  0  0  0
  6 35  1  0  0  0
  7  8  2  0  0  0
  7 36  1  0  0  0
  8  9  1  0  0  0
  9 10  1  0  0  0
 10 11  1  0  0  0
 10 37  1  0  0  0
 10 38  1  0  0  0
 11 16  1  0  0  0
 11 12  2  0  0  0
 12 13  1  0  0  0
 12 39  1  0  0  0
 13 14  2  0  0  0
 13 40  1  0  0  0
 14 15  1  0  0  0
 14 41  1  0  0  0
 15 16  2  0  0  0
 15 42  1  0  0  0
 16 43  1  0  0  0
 17 18  1  0  0  0
 17 21  1  0  0  0
 17 44  1  0  0  0
 18 19  2  0  0  0
 18 20  1  0  0  0
 20 45  1  0  0  0
 21 22  1  0  0  0
 21 46  1  0  0  0
 22 27  1  0  0  0
 22 23  2  0  0  0
 23 24  1  0  0  0
 23 47  1  0  0  0
 24 25  2  0  0  0
 24 48  1  0  0  0
 25 26  1  0  0  0
 25 28  1  0  0  0
 26 27  2  0  0  0
 26 49  1  0  0  0
 27 50  1  0  0  0
 28 29  2  3  0  0
 28 30  1  0  0  0
 29 51  1  0  0  0
 30 52  1  0  0  0
 30 53  1  0  0  0
M  END
> <s_m_entry_id>
39991

> <s_m_entry_name>
ligand_docking-pose.32

> <s_m_Source_Path>
/home/csk/Desktop/cluster/DUD-E-result/try1

> <s_m_Source_File>
ligand_docking-pose.sdf

> <i_m_Source_File_Index>
32

> <i_lp_mmshare_version>
53161

> <i_f3d_flags>
0

> <r_lp_tautomer_probability>
1

> <s_lp_Force_Field>
OPLS_2005

> <r_lp_Energy>
26.443379

> <b_lp_Chiralities_Consistent>
1

> <s_lp_Variant>
333366-1

> <s_i_glide_gridfile>
glide-grid_2ayw

> <i_i_glide_lignum>
2420

> <i_i_glide_rotatable_bonds>
10

> <r_i_docking_score>
-7.41752240379648

> <r_i_glide_ligand_efficiency>
-0.247250746793216

> <r_i_glide_ligand_efficiency_sa>
-0.76826555668624

> <r_i_glide_ligand_efficiency_ln>
-1.68534191052236

> <r_i_glide_gscore>
-7.41752240379648

> <r_i_glide_lipo>
-2.90571768272587

> <r_i_glide_hbond>
-0.694295328908874

> <r_i_glide_metal>
0

> <r_i_glide_rewards>
-0.862690152742477

> <r_i_glide_evdw>
-39.1855201721191

> <r_i_glide_ecoul>
-11.730676651001

> <r_i_glide_erotb>
0.83686524016221

> <r_i_glide_esite>
-0.072806973325364

> <r_i_glide_emodel>
-71.8499250928153

> <r_i_glide_energy>
-50.9161968231201

> <r_i_glide_einternal>
4.73359823226929

> <i_i_glide_confnum>
36

> <i_i_glide_posenum>
279

> <r_i_glide_eff_state_penalty>
0

> <s_user_duplicate_titles>
333366

> <s_m_subgroup_title>
dock_pv

> <s_m_subgroupid>
dock_pv1

> <b_m_subgroup_collapsed>
0

$$$$
237986
                    3D
 Schrodinger Suite 2021-1.
 55 57  0  0  1  0            999 V2000
   20.3087   23.2677   28.8443 C   0  0  0  0  0  0
   21.3055   22.1150   28.8777 C   0  0  0  0  0  0
   21.9526   21.7708   30.0224 C   0  0  0  0  0  0
   22.8431   20.7399   30.0828 N   0  0  0  0  0  0
   23.0850   20.0836   29.0002 C   0  0  0  0  0  0
   22.4684   20.3751   27.6648 C   0  0  0  0  0  0
   22.7511   19.7357   26.6433 O   0  0  0  0  0  0
   21.5502   21.4189   27.6893 N   0  0  0  0  0  0
   20.8842   21.7454   26.4017 C   0  0  0  0  0  0
   21.6446   22.8275   25.6101 C   0  0  0  0  0  0
   22.7757   23.1953   25.9390 O   0  0  0  0  0  0
   20.9749   23.3550   24.5708 N   0  0  0  0  0  0
   21.4521   24.4500   23.7167 C   0  0  0  0  0  0
   21.6146   24.0612   22.2486 C   0  0  0  0  0  0
   22.2280   22.8462   21.9199 C   0  0  0  0  0  0
   22.3524   22.4621   20.5882 C   0  0  0  0  0  0
   21.8736   23.3189   19.6015 C   0  0  0  0  0  0
   21.3021   24.5137   19.8811 N   0  0  0  0  0  0
   21.1704   24.8723   21.1858 C   0  0  0  0  0  0
   20.4940   26.2138   21.4091 C   0  0  0  0  0  0
   21.9527   22.9408   18.2688 N   0  0  0  0  0  0
   23.9568   18.9979   29.0443 N   0  0  0  0  0  0
   24.5449   18.4158   30.2609 C   0  0  0  0  0  0
   26.0925   18.4945   30.3479 C   0  0  0  0  0  0
   26.8597   17.5427   29.4110 C   0  0  0  0  0  0
   26.2359   16.5768   28.6004 C   0  0  0  0  0  0
   27.0327   15.7015   27.8594 C   0  0  0  0  0  0
   28.4215   15.8033   27.9375 C   0  0  0  0  0  0
   28.9701   16.8018   28.7391 C   0  0  0  0  0  0
   28.2166   17.6639   29.4661 N   0  0  0  0  0  0
   26.5020   19.7480   30.1255 F   0  0  0  0  0  0
   26.4564   18.1832   31.5956 F   0  0  0  0  0  0
   20.2249   23.7549   29.8164 H   0  0  0  0  0  0
   20.6170   24.0256   28.1238 H   0  0  0  0  0  0
   19.3116   22.9157   28.5756 H   0  0  0  0  0  0
   21.7763   22.3059   30.9454 H   0  0  0  0  0  0
   19.8607   22.0649   26.5837 H   0  0  0  0  0  0
   20.7605   20.8548   25.7869 H   0  0  0  0  0  0
   20.0551   23.0037   24.3593 H   0  0  0  0  0  0
   22.4132   24.8486   24.0521 H   0  0  0  0  0  0
   20.7464   25.2714   23.8369 H   0  0  0  0  0  0
   22.6016   22.1974   22.7002 H   0  0  0  0  0  0
   22.8156   21.5214   20.3323 H   0  0  0  0  0  0
   19.5550   26.0786   21.9452 H   0  0  0  0  0  0
   21.1399   26.8743   21.9906 H   0  0  0  0  0  0
   20.2668   26.7196   20.4659 H   0  0  0  0  0  0
   22.3569   22.0502   18.0128 H   0  0  0  0  0  0
   21.5641   23.5679   17.5817 H   0  0  0  0  0  0
   24.2164   18.5635   28.1663 H   0  0  0  0  0  0
   24.1393   18.8910   31.1549 H   0  0  0  0  0  0
   24.2310   17.3760   30.3469 H   0  0  0  0  0  0
   25.1611   16.4670   28.5575 H   0  0  0  0  0  0
   26.5749   14.9472   27.2391 H   0  0  0  0  0  0
   29.0710   15.1333   27.3903 H   0  0  0  0  0  0
   30.0416   16.9208   28.8133 H   0  0  0  0  0  0
  1  2  1  0  0  0
  1 33  1  0  0  0
  1 34  1  0  0  0
  1 35  1  0  0  0
  2  8  1  0  0  0
  2  3  2  0  0  0
  3  4  1  0  0  0
  3 36  1  0  0  0
  4  5  2  0  0  0
  5  6  1  0  0  0
  5 22  1  0  0  0
  6  7  2  0  0  0
  6  8  1  0  0  0
  8  9  1  0  0  0
  9 10  1  0  0  0
  9 37  1  0  0  0
  9 38  1  0  0  0
 10 11  2  0  0  0
 10 12  1  0  0  0
 12 13  1  0  0  0
 12 39  1  0  0  0
 13 14  1  0  0  0
 13 40  1  0  0  0
 13 41  1  0  0  0
 14 19  1  0  0  0
 14 15  2  0  0  0
 15 16  1  0  0  0
 15 42  1  0  0  0
 16 17  2  0  0  0
 16 43  1  0  0  0
 17 18  1  0  0  0
 17 21  1  0  0  0
 18 19  2  0  0  0
 19 20  1  0  0  0
 20 44  1  0  0  0
 20 45  1  0  0  0
 20 46  1  0  0  0
 21 47  1  0  0  0
 21 48  1  0  0  0
 22 23  1  0  0  0
 22 49  1  0  0  0
 23 24  1  0  0  0
 23 50  1  0  0  0
 23 51  1  0  0  0
 24 25  1  0  0  0
 24 31  1  0  0  0
 24 32  1  0  0  0
 25 30  1  0  0  0
 25 26  2  0  0  0
 26 27  1  0  0  0
 26 52  1  0  0  0
 27 28  2  0  0  0
 27 53  1  0  0  0
 28 29  1  0  0  0
 28 54  1  0  0  0
 29 30  2  0  0  0
 29 55  1  0  0  0
M  END
> <s_m_entry_id>
39992

> <s_m_entry_name>
ligand_docking-pose.33

> <s_m_Source_Path>
/home/csk/Desktop/cluster/DUD-E-result/try1

> <s_m_Source_File>
ligand_docking-pose.sdf

> <i_m_Source_File_Index>
33

> <i_lp_mmshare_version>
53161

> <i_f3d_flags>
0

> <r_lp_tautomer_probability>
0.999999772200052

> <s_lp_Force_Field>
OPLS_2005

> <r_lp_Energy>
21.134482

> <b_lp_Chiralities_Consistent>
1

> <s_lp_Variant>
237986-1

> <s_i_glide_gridfile>
glide-grid_2ayw

> <i_i_glide_lignum>
1301

> <i_i_glide_rotatable_bonds>
9

> <r_i_docking_score>
-7.40307462514444

> <r_i_glide_ligand_efficiency>
-0.231346082035764

> <r_i_glide_ligand_efficiency_sa>
-0.734478027136083

> <r_i_glide_ligand_efficiency_ln>
-1.6577502087625

> <r_i_glide_gscore>
-7.40307462514444

> <r_i_glide_lipo>
-3.18077032674854

> <r_i_glide_hbond>
-0.356764909623684

> <r_i_glide_metal>
0

> <r_i_glide_rewards>
-0.934223986909345

> <r_i_glide_evdw>
-46.9556007385254

> <r_i_glide_ecoul>
-9.30705642700195

> <r_i_glide_erotb>
0.813302539732577

> <r_i_glide_esite>
-0.000779440618877337

> <r_i_glide_emodel>
-76.6018889759313

> <r_i_glide_energy>
-56.2626571655273

> <r_i_glide_einternal>
7.56515502929688

> <i_i_glide_confnum>
6

> <i_i_glide_posenum>
336

> <r_i_glide_eff_state_penalty>
0

> <s_user_duplicate_titles>
237986

> <s_m_subgroup_title>
dock_pv

> <s_m_subgroupid>
dock_pv1

> <b_m_subgroup_collapsed>
0

$$$$
286287
                    3D
 Schrodinger Suite 2021-1.
 62 64  0  0  1  0            999 V2000
   26.3542   15.9687   27.4323 C   0  0  0  0  0  0
   27.4942   15.3419   27.9239 C   0  0  0  0  0  0
   28.3376   16.0391   28.7807 C   0  0  0  0  0  0
   28.0372   17.3479   29.1645 C   0  0  0  0  0  0
   26.9076   17.9750   28.6309 C   0  0  0  0  0  0
   26.0527   17.2768   27.7912 C   0  0  0  0  0  0
   28.9881   18.0176   30.1552 C   0  0  0  0  0  0
   28.5518   19.7110   30.8878 S   0  0  0  0  0  0
   28.0413   20.5731   29.8217 O   0  0  0  0  0  0
   29.7137   20.1422   31.6715 O   0  0  0  0  0  0
   27.2628   19.4042   32.0611 N   0  0  3  0  0  0
   25.8277   19.1921   31.7214 C   0  0  1  0  0  0
   25.2623   18.2856   32.8214 C   0  0  0  0  0  0
   23.7736   18.0763   32.5861 C   0  0  0  0  0  0
   23.0503   19.4251   32.6717 C   0  0  0  0  0  0
   23.7239   20.5244   31.9317 N   0  0  0  0  0  0
   25.0396   20.5237   31.5273 C   0  0  0  0  0  0
   25.5537   21.5088   30.9904 O   0  0  0  0  0  0
   22.9071   21.7463   31.7265 C   0  0  0  0  0  0
   21.9519   21.6584   30.5160 C   0  0  0  0  0  0
   21.2109   22.6140   30.3083 O   0  0  0  0  0  0
   21.9656   20.5558   29.7425 N   0  0  0  0  0  0
   21.1440   20.2377   28.5618 C   0  0  1  0  0  0
   19.6233   20.5739   28.6304 C   0  0  0  0  0  0
   19.2322   21.9203   27.9764 C   0  0  0  0  0  0
   19.9866   22.2021   26.6632 C   0  0  0  0  0  0
   21.4357   22.0607   26.8857 N   0  0  0  0  0  0
   21.8006   20.6760   27.2200 C   0  0  2  0  0  0
   21.5530   19.7365   26.1904 O   0  0  0  0  0  0
   22.3406   23.1542   27.0999 C   0  0  0  0  0  0
   23.5528   23.0177   27.4035 N   0  0  0  0  0  0
   21.8006   24.4454   26.9451 N   0  0  0  0  0  0
   21.1904   19.1473   28.5919 H   0  0  0  0  0  0
   25.6986   15.4461   26.7555 H   0  0  0  0  0  0
   27.7184   14.3212   27.6571 H   0  0  0  0  0  0
   29.2172   15.5450   29.1661 H   0  0  0  0  0  0
   26.6502   18.9938   28.8542 H   0  0  0  0  0  0
   25.1690   17.7490   27.3914 H   0  0  0  0  0  0
   29.9529   18.1510   29.6790 H   0  0  0  0  0  0
   29.1525   17.3485   30.9911 H   0  0  0  0  0  0
   27.4707   19.6877   33.0215 H   0  0  0  0  0  0
   25.7359   18.6595   30.7802 H   0  0  0  0  0  0
   25.4281   18.7127   33.8138 H   0  0  0  0  0  0
   25.7826   17.3323   32.8084 H   0  0  0  0  0  0
   23.3575   17.3823   33.3168 H   0  0  0  0  0  0
   23.5930   17.6153   31.6129 H   0  0  0  0  0  0
   23.1248   19.7330   33.7164 H   0  0  0  0  0  0
   21.9787   19.3776   32.4714 H   0  0  0  0  0  0
   23.5290   22.6352   31.6222 H   0  0  0  0  0  0
   22.3158   21.9272   32.6243 H   0  0  0  0  0  0
   22.6169   19.8346   30.0179 H   0  0  0  0  0  0
   19.2729   20.5416   29.6631 H   0  0  0  0  0  0
   19.0756   19.7683   28.1397 H   0  0  0  0  0  0
   19.3766   22.7566   28.6608 H   0  0  0  0  0  0
   18.1602   21.9218   27.7767 H   0  0  0  0  0  0
   19.7269   23.1920   26.2841 H   0  0  0  0  0  0
   19.6686   21.5100   25.8857 H   0  0  0  0  0  0
   22.8837   20.5975   27.3457 H   0  0  0  0  0  0
   20.6145   19.7571   25.9670 H   0  0  0  0  0  0
   24.0271   23.9007   27.5150 H   0  0  0  0  0  0
   22.3461   25.2798   27.0930 H   0  0  0  0  0  0
   20.8277   24.5952   26.7317 H   0  0  0  0  0  0
  1  6  1  0  0  0
  1  2  2  0  0  0
  1 34  1  0  0  0
  2  3  1  0  0  0
  2 35  1  0  0  0
  3  4  2  0  0  0
  3 36  1  0  0  0
  4  5  1  0  0  0
  4  7  1  0  0  0
  5  6  2  0  0  0
  5 37  1  0  0  0
  6 38  1  0  0  0
  7  8  1  0  0  0
  7 39  1  0  0  0
  7 40  1  0  0  0
  8  9  2  0  0  0
  8 10  2  0  0  0
  8 11  1  0  0  0
 11 12  1  0  0  0
 11 41  1  0  0  0
 12 17  1  0  0  0
 12 13  1  0  0  0
 12 42  1  0  0  0
 13 14  1  0  0  0
 13 43  1  0  0  0
 13 44  1  0  0  0
 14 15  1  0  0  0
 14 45  1  0  0  0
 14 46  1  0  0  0
 15 16  1  0  0  0
 15 47  1  0  0  0
 15 48  1  0  0  0
 16 17  1  0  0  0
 16 19  1  0  0  0
 17 18  2  0  0  0
 19 20  1  0  0  0
 19 49  1  0  0  0
 19 50  1  0  0  0
 20 21  2  0  0  0
 20 22  1  0  0  0
 22 23  1  0  0  0
 22 51  1  0  0  0
 23 33  1  0  0  0
 23 28  1  0  0  0
 23 24  1  0  0  0
 24 25  1  0  0  0
 24 52  1  0  0  0
 24 53  1  0  0  0
 25 26  1  0  0  0
 25 54  1  0  0  0
 25 55  1  0  0  0
 26 27  1  0  0  0
 26 56  1  0  0  0
 26 57  1  0  0  0
 27 28  1  0  0  0
 27 30  1  0  0  0
 28 29  1  0  0  0
 28 58  1  0  0  0
 29 59  1  0  0  0
 30 31  2  3  0  0
 30 32  1  0  0  0
 31 60  1  0  0  0
 32 61  1  0  0  0
 32 62  1  0  0  0
M  END
> <s_m_entry_id>
39993

> <s_m_entry_name>
ligand_docking-pose.34

> <s_m_Source_Path>
/home/csk/Desktop/cluster/DUD-E-result/try1

> <s_m_Source_File>
ligand_docking-pose.sdf

> <i_m_Source_File_Index>
34

> <i_lp_mmshare_version>
53161

> <i_f3d_flags>
0

> <r_lp_tautomer_probability>
1

> <s_lp_Force_Field>
OPLS_2005

> <r_lp_Energy>
27.133056

> <b_lp_Chiralities_Consistent>
1

> <s_lp_Variant>
286287-7

> <s_i_glide_gridfile>
glide-grid_2ayw

> <i_i_glide_lignum>
753

> <i_i_glide_rotatable_bonds>
10

> <r_i_docking_score>
-7.38709678633349

> <r_i_glide_ligand_efficiency>
-0.230846774572921

> <r_i_glide_ligand_efficiency_sa>
-0.732892824754372

> <r_i_glide_ligand_efficiency_ln>
-1.65417233511329

> <r_i_glide_gscore>
-7.38709678633349

> <r_i_glide_lipo>
-2.65190734431574

> <r_i_glide_hbond>
-0.589421917916721

> <r_i_glide_metal>
0

> <r_i_glide_rewards>
-0.749904403320378

> <r_i_glide_evdw>
-37.2373542785645

> <r_i_glide_ecoul>
-14.2914733886719

> <r_i_glide_erotb>
0.648811472623312

> <r_i_glide_esite>
-0.039085871174953

> <r_i_glide_emodel>
-63.4481512742056

> <r_i_glide_energy>
-51.5288276672363

> <r_i_glide_einternal>
19.1993083953857

> <i_i_glide_confnum>
100

> <i_i_glide_posenum>
59

> <r_i_glide_eff_state_penalty>
0

> <s_user_duplicate_titles>
286287,56867

> <s_m_subgroup_title>
dock_pv

> <s_m_subgroupid>
dock_pv1

> <b_m_subgroup_collapsed>
0

$$$$
21509
                    3D
 Schrodinger Suite 2021-1.
 63 66  0  0  1  0            999 V2000
   16.6095   21.5815   29.2884 C   0  0  0  0  0  0
   18.0074   21.4285   29.1071 O   0  0  0  0  0  0
   18.6094   21.7754   27.9473 C   0  0  0  0  0  0
   18.0391   22.2989   26.9927 O   0  0  0  0  0  0
   20.1296   21.4825   27.8750 C   0  0  2  0  0  0
   20.6050   20.5061   28.9714 C   0  0  0  0  0  0
   21.2484   21.3341   29.9899 N   0  0  2  0  0  0
   21.8071   22.5009   29.3288 C   0  0  0  0  0  0
   20.9771   22.7836   28.0601 C   0  0  1  0  0  0
   21.8266   23.2950   26.8781 C   0  0  0  0  0  0
   22.9198   24.1320   27.1313 C   0  0  0  0  0  0
   23.7370   24.5702   26.0979 C   0  0  0  0  0  0
   23.4629   24.1932   24.7886 C   0  0  0  0  0  0
   22.3591   23.3772   24.4717 C   0  0  0  0  0  0
   21.5601   22.9333   25.5493 C   0  0  0  0  0  0
   22.0383   22.9958   23.0646 C   0  0  0  0  0  0
   21.1617   22.1344   22.8003 N   0  0  0  0  0  0
   22.7520   23.6639   22.1023 N   0  0  0  0  0  0
   22.1269   20.6952   30.9863 C   0  0  0  0  0  0
   23.2461   19.7669   30.4890 C   0  0  0  0  0  0
   23.8670   18.9364   31.4309 C   0  0  0  0  0  0
   24.9192   18.1034   31.0561 C   0  0  0  0  0  0
   25.3689   18.1064   29.7326 C   0  0  0  0  0  0
   24.7537   18.9318   28.8026 C   0  0  0  0  0  0
   23.7239   19.7784   29.1728 C   0  0  0  0  0  0
   26.5449   17.3316   29.2926 C   0  0  0  0  0  0
   26.3389   16.1367   28.5919 C   0  0  0  0  0  0
   27.4112   15.3939   28.1120 C   0  0  0  0  0  0
   28.7107   15.8446   28.3232 C   0  0  0  0  0  0
   28.9329   17.0354   29.0128 C   0  0  0  0  0  0
   27.8595   17.7993   29.4914 C   0  0  0  0  0  0
   28.2220   19.3659   30.3291 S   0  0  0  0  0  0
   29.5536   19.7962   29.9060 O   0  0  0  0  0  0
   27.0923   20.2902   30.1930 O   0  0  0  0  0  0
   28.3347   18.9533   32.0159 N   0  0  0  0  0  0
   20.2939   21.0069   26.9101 H   0  0  0  0  0  0
   20.3444   23.6433   28.2920 H   0  0  0  0  0  0
   16.3336   21.3071   30.3067 H   0  0  0  0  0  0
   16.2990   22.6107   29.1164 H   0  0  0  0  0  0
   16.0612   20.9356   28.6052 H   0  0  0  0  0  0
   19.8196   19.8783   29.3905 H   0  0  0  0  0  0
   21.2872   19.7712   28.5470 H   0  0  0  0  0  0
   22.8429   22.2968   29.0678 H   0  0  0  0  0  0
   21.9002   23.3620   29.9911 H   0  0  0  0  0  0
   23.1517   24.4489   28.1362 H   0  0  0  0  0  0
   24.5891   25.1988   26.3141 H   0  0  0  0  0  0
   24.1375   24.5553   24.0265 H   0  0  0  0  0  0
   20.6975   22.3193   25.3476 H   0  0  0  0  0  0
   20.7396   21.7265   23.6227 H   0  0  0  0  0  0
   22.5581   23.4688   21.1318 H   0  0  0  0  0  0
   23.4155   24.3844   22.3409 H   0  0  0  0  0  0
   22.5996   21.4895   31.5662 H   0  0  0  0  0  0
   21.5359   20.1461   31.7175 H   0  0  0  0  0  0
   23.5316   18.9272   32.4588 H   0  0  0  0  0  0
   25.3862   17.4620   31.7901 H   0  0  0  0  0  0
   25.1127   18.9329   27.7915 H   0  0  0  0  0  0
   23.3093   20.4174   28.4117 H   0  0  0  0  0  0
   25.3317   15.7836   28.4201 H   0  0  0  0  0  0
   27.2314   14.4730   27.5787 H   0  0  0  0  0  0
   29.5511   15.2750   27.9523 H   0  0  0  0  0  0
   29.9529   17.3565   29.1685 H   0  0  0  0  0  0
   27.4516   18.6567   32.4352 H   0  0  0  0  0  0
   29.1214   18.3334   32.2547 H   0  0  0  0  0  0
  1  2  1  0  0  0
  1 38  1  0  0  0
  1 39  1  0  0  0
  1 40  1  0  0  0
  2  3  1  0  0  0
  3  4  2  0  0  0
  3  5  1  0  0  0
  5 36  1  0  0  0
  5  9  1  0  0  0
  5  6  1  0  0  0
  6  7  1  0  0  0
  6 41  1  0  0  0
  6 42  1  0  0  0
  7  8  1  0  0  0
  7 19  1  0  0  0
  8  9  1  0  0  0
  8 43  1  0  0  0
  8 44  1  0  0  0
  9 37  1  0  0  0
  9 10  1  0  0  0
 10 15  1  0  0  0
 10 11  2  0  0  0
 11 12  1  0  0  0
 11 45  1  0  0  0
 12 13  2  0  0  0
 12 46  1  0  0  0
 13 14  1  0  0  0
 13 47  1  0  0  0
 14 15  2  0  0  0
 14 16  1  0  0  0
 15 48  1  0  0  0
 16 17  2  3  0  0
 16 18  1  0  0  0
 17 49  1  0  0  0
 18 50  1  0  0  0
 18 51  1  0  0  0
 19 20  1  0  0  0
 19 52  1  0  0  0
 19 53  1  0  0  0
 20 25  1  0  0  0
 20 21  2  0  0  0
 21 22  1  0  0  0
 21 54  1  0  0  0
 22 23  2  0  0  0
 22 55  1  0  0  0
 23 24  1  0  0  0
 23 26  1  0  0  0
 24 25  2  0  0  0
 24 56  1  0  0  0
 25 57  1  0  0  0
 26 31  1  0  0  0
 26 27  2  0  0  0
 27 28  1  0  0  0
 27 58  1  0  0  0
 28 29  2  0  0  0
 28 59  1  0  0  0
 29 30  1  0  0  0
 29 60  1  0  0  0
 30 31  2  0  0  0
 30 61  1  0  0  0
 31 32  1  0  0  0
 32 33  2  0  0  0
 32 34  2  0  0  0
 32 35  1  0  0  0
 35 62  1  0  0  0
 35 63  1  0  0  0
M  END
> <s_m_entry_id>
39994

> <s_m_entry_name>
ligand_docking-pose.35

> <s_m_Source_Path>
/home/csk/Desktop/cluster/DUD-E-result/try1

> <s_m_Source_File>
ligand_docking-pose.sdf

> <i_m_Source_File_Index>
35

> <i_lp_mmshare_version>
53161

> <i_f3d_flags>
0

> <r_lp_tautomer_probability>
1

> <s_lp_Force_Field>
OPLS_2005

> <r_lp_Energy>
50.881434

> <b_lp_Chiralities_Consistent>
1

> <s_lp_Variant>
21509-2

> <s_i_glide_gridfile>
glide-grid_2ayw

> <i_i_glide_lignum>
2631

> <i_i_glide_rotatable_bonds>
8

> <r_i_docking_score>
-7.38577049757848

> <r_i_glide_ligand_efficiency>
-0.211022014216528

> <r_i_glide_ligand_efficiency_sa>
-0.690267000593776

> <r_i_glide_ligand_efficiency_ln>
-1.62134054256298

> <r_i_glide_gscore>
-7.38577049757848

> <r_i_glide_lipo>
-2.98274622619444

> <r_i_glide_hbond>
-0.307141545808882

> <r_i_glide_metal>
0

> <r_i_glide_rewards>
-0.780202810561447

> <r_i_glide_evdw>
-46.3607177734375

> <r_i_glide_ecoul>
-9.30915451049805

> <r_i_glide_erotb>
0.419657214682963

> <r_i_glide_esite>
-0.0209280644500926

> <r_i_glide_emodel>
-70.7339864976666

> <r_i_glide_energy>
-55.6698722839355

> <r_i_glide_einternal>
13.5365495681763

> <i_i_glide_confnum>
42

> <i_i_glide_posenum>
145

> <r_i_glide_eff_state_penalty>
0

> <s_user_duplicate_titles>
21509

> <s_m_subgroup_title>
dock_pv

> <s_m_subgroupid>
dock_pv1

> <b_m_subgroup_collapsed>
0

$$$$
74916
                    3D
 Schrodinger Suite 2021-1.
 57 60  0  0  1  0            999 V2000
   28.2928   15.7312   27.7911 C   0  0  0  0  0  0
   29.0079   16.6103   28.5976 C   0  0  0  0  0  0
   28.3299   17.4279   29.4987 C   0  0  0  0  0  0
   26.9325   17.3602   29.6048 C   0  0  0  0  0  0
   26.2279   16.4815   28.7661 C   0  0  0  0  0  0
   26.9058   15.6708   27.8626 C   0  0  0  0  0  0
   26.2088   18.2314   30.6090 C   0  0  0  0  0  0
   26.6950   19.3094   30.9563 O   0  0  0  0  0  0
   25.0514   17.7331   31.1049 N   0  0  0  0  0  0
   24.1288   18.4024   31.9310 C   0  0  0  0  0  0
   23.5760   17.7040   33.0109 C   0  0  0  0  0  0
   22.5747   18.2914   33.7880 C   0  0  0  0  0  0
   22.1112   19.5591   33.4359 C   0  0  0  0  0  0
   22.6437   20.2553   32.3935 N   0  0  0  0  0  0
   23.6383   19.6914   31.6525 C   0  0  0  0  0  0
   24.1032   20.3935   30.5529 O   0  0  0  0  0  0
   23.3030   21.2954   29.8950 C   0  0  0  0  0  0
   23.0972   22.5847   30.3842 C   0  0  0  0  0  0
   22.2687   23.4618   29.6908 C   0  0  0  0  0  0
   21.6585   23.0554   28.5029 C   0  0  0  0  0  0
   21.8645   21.7647   27.9732 C   0  0  0  0  0  0
   22.7061   20.9035   28.6996 C   0  0  0  0  0  0
   21.2295   21.2930   26.7107 C   0  0  0  0  0  0
   21.5531   20.1915   26.1910 N   0  0  0  0  0  0
   20.2769   22.1335   26.1910 N   0  0  0  0  0  0
   21.0494   20.1091   34.1346 O   0  0  0  0  0  0
   20.5311   21.3363   33.7851 C   0  0  0  0  0  0
   20.9574   22.4711   34.4700 C   0  0  0  0  0  0
   20.4771   23.7231   34.1044 C   0  0  0  0  0  0
   19.5690   23.8408   33.0531 C   0  0  0  0  0  0
   19.1012   22.7142   32.3455 C   0  0  0  0  0  0
   19.5963   21.4557   32.7497 C   0  0  0  0  0  0
   18.1344   22.8811   31.2191 C   0  0  0  0  0  0
   17.9211   24.0123   30.7042 N   0  0  0  0  0  0
   17.5104   21.7330   30.8023 N   0  0  0  0  0  0
   28.8224   15.0953   27.1009 H   0  0  0  0  0  0
   30.0854   16.6519   28.5271 H   0  0  0  0  0  0
   28.9029   18.1003   30.1227 H   0  0  0  0  0  0
   25.1528   16.4130   28.8023 H   0  0  0  0  0  0
   26.3577   14.9966   27.2224 H   0  0  0  0  0  0
   24.8132   16.7750   30.8805 H   0  0  0  0  0  0
   23.9018   16.6987   33.2354 H   0  0  0  0  0  0
   22.1272   17.7530   34.6099 H   0  0  0  0  0  0
   23.5623   22.8909   31.3094 H   0  0  0  0  0  0
   22.0941   24.4558   30.0772 H   0  0  0  0  0  0
   21.0262   23.7721   28.0012 H   0  0  0  0  0  0
   22.8957   19.8979   28.3537 H   0  0  0  0  0  0
   20.9818   20.0221   25.3700 H   0  0  0  0  0  0
   19.7677   21.8356   25.3712 H   0  0  0  0  0  0
   19.9604   22.9398   26.7059 H   0  0  0  0  0  0
   21.6714   22.3765   35.2740 H   0  0  0  0  0  0
   20.8129   24.6049   34.6303 H   0  0  0  0  0  0
   19.2265   24.8347   32.8063 H   0  0  0  0  0  0
   19.2960   20.5517   32.2405 H   0  0  0  0  0  0
   18.4744   24.7392   31.1300 H   0  0  0  0  0  0
   16.8332   21.8044   30.0607 H   0  0  0  0  0  0
   17.5544   20.8609   31.3229 H   0  0  0  0  0  0
  1  6  1  0  0  0
  1  2  2  0  0  0
  1 36  1  0  0  0
  2  3  1  0  0  0
  2 37  1  0  0  0
  3  4  2  0  0  0
  3 38  1  0  0  0
  4  5  1  0  0  0
  4  7  1  0  0  0
  5  6  2  0  0  0
  5 39  1  0  0  0
  6 40  1  0  0  0
  7  8  2  0  0  0
  7  9  1  0  0  0
  9 10  1  0  0  0
  9 41  1  0  0  0
 10 15  1  0  0  0
 10 11  2  0  0  0
 11 12  1  0  0  0
 11 42  1  0  0  0
 12 13  2  0  0  0
 12 43  1  0  0  0
 13 14  1  0  0  0
 13 26  1  0  0  0
 14 15  2  0  0  0
 15 16  1  0  0  0
 16 17  1  0  0  0
 17 22  1  0  0  0
 17 18  2  0  0  0
 18 19  1  0  0  0
 18 44  1  0  0  0
 19 20  2  0  0  0
 19 45  1  0  0  0
 20 21  1  0  0  0
 20 46  1  0  0  0
 21 22  2  0  0  0
 21 23  1  0  0  0
 22 47  1  0  0  0
 23 24  2  3  0  0
 23 25  1  0  0  0
 24 48  1  0  0  0
 25 49  1  0  0  0
 25 50  1  0  0  0
 26 27  1  0  0  0
 27 32  1  0  0  0
 27 28  2  0  0  0
 28 29  1  0  0  0
 28 51  1  0  0  0
 29 30  2  0  0  0
 29 52  1  0  0  0
 30 31  1  0  0  0
 30 53  1  0  0  0
 31 32  2  0  0  0
 31 33  1  0  0  0
 32 54  1  0  0  0
 33 34  2  3  0  0
 33 35  1  0  0  0
 34 55  1  0  0  0
 35 56  1  0  0  0
 35 57  1  0  0  0
M  END
> <s_m_entry_id>
39996

> <s_m_entry_name>
ligand_docking-pose.37

> <s_m_Source_Path>
/home/csk/Desktop/cluster/DUD-E-result/try1

> <s_m_Source_File>
ligand_docking-pose.sdf

> <i_m_Source_File_Index>
37

> <i_lp_mmshare_version>
53161

> <i_f3d_flags>
0

> <r_lp_tautomer_probability>
1

> <s_lp_Force_Field>
OPLS_2005

> <r_lp_Energy>
30.87945

> <b_lp_Chiralities_Consistent>
1

> <s_lp_Variant>
74916-3

> <s_i_glide_gridfile>
glide-grid_2ayw

> <i_i_glide_lignum>
717

> <i_i_glide_rotatable_bonds>
9

> <r_i_docking_score>
-7.37625560424536

> <r_i_glide_ligand_efficiency>
-0.210750160121296

> <r_i_glide_ligand_efficiency_sa>
-0.689377747822629

> <r_i_glide_ligand_efficiency_ln>
-1.61925181230468

> <r_i_glide_gscore>
-7.37625560424536

> <r_i_glide_lipo>
-2.19903602563491

> <r_i_glide_hbond>
-1.25065723712217

> <r_i_glide_metal>
0

> <r_i_glide_rewards>
-0.566079983715192

> <r_i_glide_evdw>
-40.6782569885254

> <r_i_glide_ecoul>
-12.5043811798096

> <r_i_glide_erotb>
0.648974100586033

> <r_i_glide_esite>
-0.0998864319614161

> <r_i_glide_emodel>
-74.7388695138196

> <r_i_glide_energy>
-53.182638168335

> <r_i_glide_einternal>
7.25627946853638

> <i_i_glide_confnum>
17

> <i_i_glide_posenum>
78

> <r_i_glide_eff_state_penalty>
0

> <s_user_duplicate_titles>
74916

> <s_m_subgroup_title>
dock_pv

> <s_m_subgroupid>
dock_pv1

> <b_m_subgroup_collapsed>
0

$$$$
264064
                    3D
 Schrodinger Suite 2021-1.
 59 60  0  0  1  0            999 V2000
   22.5071   21.2564   27.3644 C   0  0  0  0  0  0
   22.2879   20.5622   28.7281 C   0  0  1  0  0  0
   23.5714   20.6571   29.5642 C   0  0  0  0  0  0
   24.1615   21.7327   29.6519 O   0  0  0  0  0  0
   23.9866   19.5315   30.1594 N   0  0  0  0  0  0
   25.2758   19.3737   30.8482 C   0  0  0  0  0  0
   26.2395   18.4136   30.1483 C   0  0  0  0  0  0
   27.6182   18.6278   30.2026 C   0  0  0  0  0  0
   28.4937   17.7422   29.5749 C   0  0  0  0  0  0
   28.0170   16.6192   28.8701 C   0  0  0  0  0  0
   26.6207   16.4487   28.7959 C   0  0  0  0  0  0
   25.7491   17.3257   29.4297 C   0  0  0  0  0  0
   28.9257   15.6187   28.2371 C   0  0  0  0  0  0
   28.4624   14.5343   27.7911 N   0  0  0  0  0  0
   30.2542   15.9717   28.1914 N   0  0  0  0  0  0
   21.1944   21.1531   29.5024 N   0  0  0  0  0  0
   19.9598   21.4950   29.0807 C   0  0  0  0  0  0
   19.5886   21.4207   27.9064 O   0  0  0  0  0  0
   18.9934   22.0782   30.1479 C   0  0  1  0  0  0
   17.5019   22.1766   29.7349 C   0  0  0  0  0  0
   16.9220   20.9340   29.3893 O   0  0  0  0  0  0
   19.1451   21.3330   31.4336 N   0  0  1  0  0  0
   18.9112   22.1889   32.9531 S   0  0  0  0  0  0
   18.0645   21.3359   33.7921 O   0  0  0  0  0  0
   18.5118   23.5655   32.6470 O   0  0  0  0  0  0
   20.6387   22.2385   33.7136 C   0  0  0  0  0  0
   21.1835   20.8534   34.0246 C   0  0  0  0  0  0
   22.0534   20.2289   33.1295 C   0  0  0  0  0  0
   22.5394   18.9549   33.4092 C   0  0  0  0  0  0
   22.1628   18.3185   34.5864 C   0  0  0  0  0  0
   21.2897   18.9341   35.4829 C   0  0  0  0  0  0
   20.7975   20.2046   35.1995 C   0  0  0  0  0  0
   22.0519   19.5103   28.5540 H   0  0  0  0  0  0
   19.3530   23.0937   30.3142 H   0  0  0  0  0  0
   23.4425   20.9355   26.9042 H   0  0  0  0  0  0
   21.7146   21.0125   26.6566 H   0  0  0  0  0  0
   22.5490   22.3429   27.4595 H   0  0  0  0  0  0
   23.3952   18.7140   30.1187 H   0  0  0  0  0  0
   25.7760   20.3345   30.9831 H   0  0  0  0  0  0
   25.0920   18.9966   31.8533 H   0  0  0  0  0  0
   28.0184   19.4680   30.7502 H   0  0  0  0  0  0
   29.5531   17.9336   29.6786 H   0  0  0  0  0  0
   26.1793   15.6131   28.2696 H   0  0  0  0  0  0
   24.6906   17.1222   29.3927 H   0  0  0  0  0  0
   27.4735   14.4495   27.9607 H   0  0  0  0  0  0
   30.9015   15.3570   27.7138 H   0  0  0  0  0  0
   30.5957   16.8626   28.5277 H   0  0  0  0  0  0
   21.3971   21.2923   30.4819 H   0  0  0  0  0  0
   16.9179   22.6321   30.5349 H   0  0  0  0  0  0
   17.3947   22.8525   28.8871 H   0  0  0  0  0  0
   16.8986   20.3678   30.1731 H   0  0  0  0  0  0
   18.6390   20.4390   31.4349 H   0  0  0  0  0  0
   20.5651   22.8358   34.6226 H   0  0  0  0  0  0
   21.2815   22.7767   33.0205 H   0  0  0  0  0  0
   22.3533   20.7278   32.2220 H   0  0  0  0  0  0
   23.1963   18.4509   32.7217 H   0  0  0  0  0  0
   22.5477   17.3327   34.8002 H   0  0  0  0  0  0
   20.9983   18.4301   36.3914 H   0  0  0  0  0  0
   20.1129   20.6777   35.8883 H   0  0  0  0  0  0
  1  2  1  0  0  0
  1 35  1  0  0  0
  1 36  1  0  0  0
  1 37  1  0  0  0
  2 33  1  0  0  0
  2  3  1  0  0  0
  2 16  1  0  0  0
  3  4  2  0  0  0
  3  5  1  0  0  0
  5  6  1  0  0  0
  5 38  1  0  0  0
  6  7  1  0  0  0
  6 39  1  0  0  0
  6 40  1  0  0  0
  7 12  1  0  0  0
  7  8  2  0  0  0
  8  9  1  0  0  0
  8 41  1  0  0  0
  9 10  2  0  0  0
  9 42  1  0  0  0
 10 11  1  0  0  0
 10 13  1  0  0  0
 11 12  2  0  0  0
 11 43  1  0  0  0
 12 44  1  0  0  0
 13 14  2  3  0  0
 13 15  1  0  0  0
 14 45  1  0  0  0
 15 46  1  0  0  0
 15 47  1  0  0  0
 16 17  1  0  0  0
 16 48  1  0  0  0
 17 18  2  0  0  0
 17 19  1  0  0  0
 19 34  1  0  0  0
 19 20  1  0  0  0
 19 22  1  0  0  0
 20 21  1  0  0  0
 20 49  1  0  0  0
 20 50  1  0  0  0
 21 51  1  0  0  0
 22 23  1  0  0  0
 22 52  1  0  0  0
 23 24  2  0  0  0
 23 25  2  0  0  0
 23 26  1  0  0  0
 26 27  1  0  0  0
 26 53  1  0  0  0
 26 54  1  0  0  0
 27 32  1  0  0  0
 27 28  2  0  0  0
 28 29  1  0  0  0
 28 55  1  0  0  0
 29 30  2  0  0  0
 29 56  1  0  0  0
 30 31  1  0  0  0
 30 57  1  0  0  0
 31 32  2  0  0  0
 31 58  1  0  0  0
 32 59  1  0  0  0
M  END
> <s_m_entry_id>
39999

> <s_m_entry_name>
ligand_docking-pose.40

> <s_m_Source_Path>
/home/csk/Desktop/cluster/DUD-E-result/try1

> <s_m_Source_File>
ligand_docking-pose.sdf

> <i_m_Source_File_Index>
40

> <i_lp_mmshare_version>
53161

> <i_f3d_flags>
0

> <r_lp_tautomer_probability>
1

> <s_lp_Force_Field>
OPLS_2005

> <r_lp_Energy>
6.884577

> <b_lp_Chiralities_Consistent>
1

> <s_lp_Variant>
264064-2

> <s_i_glide_gridfile>
glide-grid_2ayw

> <i_i_glide_lignum>
1810

> <i_i_glide_rotatable_bonds>
14

> <r_i_docking_score>
-7.3503637056579

> <r_i_glide_ligand_efficiency>
-0.229698865801809

> <r_i_glide_ligand_efficiency_sa>
-0.729248441576928

> <r_i_glide_ligand_efficiency_ln>
-1.64594679704406

> <r_i_glide_gscore>
-7.3503637056579

> <r_i_glide_lipo>
-2.14818366905689

> <r_i_glide_hbond>
-1.13101293779417

> <r_i_glide_metal>
0

> <r_i_glide_rewards>
-0.797911124246864

> <r_i_glide_evdw>
-39.660099029541

> <r_i_glide_ecoul>
-15.1028079986572

> <r_i_glide_erotb>
1.03986342642049

> <r_i_glide_esite>
-0.0646932497048278

> <r_i_glide_emodel>
-75.5296013336592

> <r_i_glide_energy>
-54.7629070281982

> <r_i_glide_einternal>
8.47751998901367

> <i_i_glide_confnum>
139

> <i_i_glide_posenum>
328

> <r_i_glide_eff_state_penalty>
0

> <s_user_duplicate_titles>
264064

> <s_m_subgroup_title>
dock_pv

> <s_m_subgroupid>
dock_pv1

> <b_m_subgroup_collapsed>
0

$$$$
132302
                    3D
 Schrodinger Suite 2021-1.
 47 49  0  0  1  0            999 V2000
   28.3125   18.8184   30.4576 C   0  0  0  0  0  0
   28.8370   17.7148   29.7910 C   0  0  0  0  0  0
   28.0606   16.9466   28.9019 C   0  0  0  0  0  0
   26.7250   17.3515   28.7053 C   0  0  0  0  0  0
   26.1852   18.4536   29.3684 C   0  0  0  0  0  0
   26.9906   19.1902   30.2440 C   0  0  0  0  0  0
   24.8731   18.7953   29.1109 O   0  0  0  0  0  0
   24.0752   19.2810   30.1205 C   0  0  0  0  0  0
   24.0326   18.7008   31.3937 C   0  0  0  0  0  0
   23.2116   19.2747   32.3742 C   0  0  0  0  0  0
   22.4873   20.4294   32.0471 C   0  0  0  0  0  0
   22.5327   20.9120   30.7373 C   0  0  0  0  0  0
   23.3084   20.3415   29.7747 N   0  0  0  0  0  0
   21.7223   21.9711   30.3848 O   0  0  0  0  0  0
   21.0648   21.9394   29.1742 C   0  0  0  0  0  0
   21.6855   22.4219   28.0196 C   0  0  0  0  0  0
   21.0619   22.3533   26.7573 C   0  0  0  0  0  0
   19.7644   21.8042   26.7189 C   0  0  0  0  0  0
   19.1291   21.3349   27.8674 C   0  0  0  0  0  0
   19.7778   21.3999   29.0960 C   0  0  0  0  0  0
   19.1515   20.9334   30.2225 O   0  0  0  0  0  0
   21.7637   22.8480   25.5367 C   0  0  0  0  0  0
   22.8338   23.5042   25.6285 N   0  0  0  0  0  0
   21.1532   22.5329   24.3469 N   0  0  0  0  0  0
   23.1163   18.6751   33.7522 C   0  0  0  0  0  0
   22.8605   19.3537   34.7449 O   0  0  0  0  0  0
   23.2967   17.3213   33.7932 O   0  0  0  0  0  0
   28.6129   15.7603   28.1909 C   0  0  0  0  0  0
   27.8512   14.9328   27.6219 N   0  0  0  0  0  0
   29.9832   15.6792   28.1912 N   0  0  0  0  0  0
   28.9332   19.3803   31.1400 H   0  0  0  0  0  0
   29.8662   17.4562   29.9993 H   0  0  0  0  0  0
   26.0749   16.8180   28.0250 H   0  0  0  0  0  0
   26.5938   20.0521   30.7615 H   0  0  0  0  0  0
   24.6390   17.8303   31.5986 H   0  0  0  0  0  0
   21.8418   20.9104   32.7682 H   0  0  0  0  0  0
   22.6826   22.8284   28.1173 H   0  0  0  0  0  0
   19.2170   21.7333   25.7913 H   0  0  0  0  0  0
   18.1373   20.9141   27.7951 H   0  0  0  0  0  0
   18.3043   20.5076   30.0680 H   0  0  0  0  0  0
   23.1904   23.7780   24.7268 H   0  0  0  0  0  0
   21.5586   22.8401   23.4764 H   0  0  0  0  0  0
   20.4490   21.8071   24.3195 H   0  0  0  0  0  0
   23.3082   16.9131   32.9233 H   0  0  0  0  0  0
   26.8741   15.1493   27.7392 H   0  0  0  0  0  0
   30.4304   14.9657   27.6263 H   0  0  0  0  0  0
   30.5520   16.4514   28.5090 H   0  0  0  0  0  0
  1  6  1  0  0  0
  1  2  2  0  0  0
  1 31  1  0  0  0
  2  3  1  0  0  0
  2 32  1  0  0  0
  3  4  2  0  0  0
  3 28  1  0  0  0
  4  5  1  0  0  0
  4 33  1  0  0  0
  5  6  2  0  0  0
  5  7  1  0  0  0
  6 34  1  0  0  0
  7  8  1  0  0  0
  8 13  1  0  0  0
  8  9  2  0  0  0
  9 10  1  0  0  0
  9 35  1  0  0  0
 10 11  2  0  0  0
 10 25  1  0  0  0
 11 12  1  0  0  0
 11 36  1  0  0  0
 12 13  2  0  0  0
 12 14  1  0  0  0
 14 15  1  0  0  0
 15 20  1  0  0  0
 15 16  2  0  0  0
 16 17  1  0  0  0
 16 37  1  0  0  0
 17 18  2  0  0  0
 17 22  1  0  0  0
 18 19  1  0  0  0
 18 38  1  0  0  0
 19 20  2  0  0  0
 19 39  1  0  0  0
 20 21  1  0  0  0
 21 40  1  0  0  0
 22 23  2  3  0  0
 22 24  1  0  0  0
 23 41  1  0  0  0
 24 42  1  0  0  0
 24 43  1  0  0  0
 25 26  2  0  0  0
 25 27  1  0  0  0
 27 44  1  0  0  0
 28 29  2  3  0  0
 28 30  1  0  0  0
 29 45  1  0  0  0
 30 46  1  0  0  0
 30 47  1  0  0  0
M  END
> <s_m_entry_id>
40000

> <s_m_entry_name>
ligand_docking-pose.41

> <s_m_Source_Path>
/home/csk/Desktop/cluster/DUD-E-result/try1

> <s_m_Source_File>
ligand_docking-pose.sdf

> <i_m_Source_File_Index>
41

> <i_lp_mmshare_version>
53161

> <i_f3d_flags>
0

> <r_lp_tautomer_probability>
1

> <s_lp_Force_Field>
OPLS_2005

> <r_lp_Energy>
11.270282

> <b_lp_Chiralities_Consistent>
1

> <s_lp_Variant>
132302-3

> <s_i_glide_gridfile>
glide-grid_2ayw

> <i_i_glide_lignum>
992

> <i_i_glide_rotatable_bonds>
9

> <r_i_docking_score>
-7.34944522509411

> <r_i_glide_ligand_efficiency>
-0.244981507503137

> <r_i_glide_ligand_efficiency_sa>
-0.761214502608313

> <r_i_glide_ligand_efficiency_ln>
-1.6698740337609

> <r_i_glide_gscore>
-7.34944522509411

> <r_i_glide_lipo>
-1.70976920278388

> <r_i_glide_hbond>
-0.704876621401425

> <r_i_glide_metal>
0

> <r_i_glide_rewards>
-1.38227804060497

> <r_i_glide_evdw>
-44.7277069091797

> <r_i_glide_ecoul>
-12.6430406570435

> <r_i_glide_erotb>
0.592657848638461

> <r_i_glide_esite>
-0.012337764926792

> <r_i_glide_emodel>
-76.5938844536298

> <r_i_glide_energy>
-57.3707475662231

> <r_i_glide_einternal>
10.1001672744751

> <i_i_glide_confnum>
14

> <i_i_glide_posenum>
324

> <r_i_glide_eff_state_penalty>
0

> <s_user_duplicate_titles>
132302

> <s_m_subgroup_title>
dock_pv

> <s_m_subgroupid>
dock_pv1

> <b_m_subgroup_collapsed>
0

$$$$
33674
                    3D
 Schrodinger Suite 2021-1.
 71 75  0  0  1  0            999 V2000
   20.1334   21.0626   34.3335 C   0  0  0  0  0  0
   21.1447   21.4325   33.2332 C   0  0  0  0  0  0
   20.5377   21.6148   31.8459 C   0  0  0  0  0  0
   19.2937   21.3334   31.5395 N   0  0  0  0  0  0
   19.1855   21.6044   30.2038 C   0  0  0  0  0  0
   18.0811   21.4538   29.3576 C   0  0  0  0  0  0
   18.2225   21.8376   28.0222 C   0  0  0  0  0  0
   19.4172   22.3606   27.5186 C   0  0  0  0  0  0
   20.5468   22.4819   28.3466 C   0  0  0  0  0  0
   20.4037   22.0999   29.6852 C   0  0  0  0  0  0
   21.2663   22.0822   30.7651 N   0  0  0  0  0  0
   22.6819   22.4446   30.7494 C   0  0  0  0  0  0
   23.6299   21.2847   30.4568 C   0  0  0  0  0  0
   24.7292   21.0740   31.2892 C   0  0  0  0  0  0
   25.6434   20.0673   30.9969 C   0  0  0  0  0  0
   25.4857   19.2591   29.8635 C   0  0  0  0  0  0
   24.3530   19.4491   29.0591 C   0  0  0  0  0  0
   23.4366   20.4568   29.3471 C   0  0  0  0  0  0
   26.5261   18.2475   29.5057 C   0  0  0  0  0  0
   27.8813   18.5048   29.7379 C   0  0  0  0  0  0
   28.8533   17.5643   29.4125 C   0  0  0  0  0  0
   28.5136   16.3351   28.8258 C   0  0  0  0  0  0
   27.1512   16.0890   28.5911 C   0  0  0  0  0  0
   26.1802   17.0249   28.9254 C   0  0  0  0  0  0
   29.5314   15.3065   28.4743 C   0  0  0  0  0  0
   29.1891   14.1330   28.1889 N   0  0  0  0  0  0
   30.8321   15.7330   28.4751 N   0  0  0  0  0  0
   19.3908   22.7452   26.1915 O   0  0  0  0  0  0
   20.4979   23.4223   25.5910 C   0  0  0  0  0  0
   21.5868   22.4462   25.0806 C   0  0  0  0  0  0
   22.6704   23.1777   24.2558 C   0  0  0  0  0  0
   22.0085   23.9137   23.1648 N   0  0  0  0  0  0
   21.1236   24.9780   23.6696 C   0  0  0  0  0  0
   19.9675   24.3199   24.4552 C   0  0  0  0  0  0
   22.1274   23.5305   21.8270 C   0  0  0  0  0  0
   22.7501   22.5337   21.3659 N   0  0  0  0  0  0
   21.4353   24.4112   20.7943 C   0  0  0  0  0  0
   20.6290   20.9333   35.2963 H   0  0  0  0  0  0
   19.3763   21.8391   34.4504 H   0  0  0  0  0  0
   19.6153   20.1332   34.1001 H   0  0  0  0  0  0
   21.9175   20.6637   33.1939 H   0  0  0  0  0  0
   21.6491   22.3475   33.5431 H   0  0  0  0  0  0
   17.1493   21.0561   29.7344 H   0  0  0  0  0  0
   17.3773   21.7392   27.3575 H   0  0  0  0  0  0
   21.4890   22.8586   27.9855 H   0  0  0  0  0  0
   22.8303   23.2097   29.9865 H   0  0  0  0  0  0
   22.9258   22.9242   31.6980 H   0  0  0  0  0  0
   24.8886   21.6960   32.1583 H   0  0  0  0  0  0
   26.4899   19.9299   31.6539 H   0  0  0  0  0  0
   24.2049   18.8472   28.1756 H   0  0  0  0  0  0
   22.5902   20.5984   28.6922 H   0  0  0  0  0  0
   28.1967   19.4383   30.1794 H   0  0  0  0  0  0
   29.8800   17.8003   29.6512 H   0  0  0  0  0  0
   26.8256   15.1572   28.1494 H   0  0  0  0  0  0
   25.1523   16.7747   28.7352 H   0  0  0  0  0  0
   29.9993   13.5747   27.9558 H   0  0  0  0  0  0
   31.5414   15.1262   28.0680 H   0  0  0  0  0  0
   31.0686   16.7129   28.5909 H   0  0  0  0  0  0
   20.9419   24.1071   26.3156 H   0  0  0  0  0  0
   21.1473   21.6981   24.4232 H   0  0  0  0  0  0
   22.0674   21.9216   25.9054 H   0  0  0  0  0  0
   23.4734   22.5213   23.9147 H   0  0  0  0  0  0
   23.1314   23.9329   24.8950 H   0  0  0  0  0  0
   21.7222   25.5458   24.3845 H   0  0  0  0  0  0
   20.7909   25.6999   22.9236 H   0  0  0  0  0  0
   19.3288   25.1078   24.8553 H   0  0  0  0  0  0
   19.3775   23.7334   23.7527 H   0  0  0  0  0  0
   22.6905   22.4791   20.3599 H   0  0  0  0  0  0
   20.3647   24.4804   20.9914 H   0  0  0  0  0  0
   21.5425   24.0340   19.7754 H   0  0  0  0  0  0
   21.8490   25.4197   20.8070 H   0  0  0  0  0  0
  1  2  1  0  0  0
  1 38  1  0  0  0
  1 39  1  0  0  0
  1 40  1  0  0  0
  2  3  1  0  0  0
  2 41  1  0  0  0
  2 42  1  0  0  0
  3 11  1  0  0  0
  3  4  2  0  0  0
  4  5  1  0  0  0
  5 10  2  0  0  0
  5  6  1  0  0  0
  6  7  2  0  0  0
  6 43  1  0  0  0
  7  8  1  0  0  0
  7 44  1  0  0  0
  8  9  2  0  0  0
  8 28  1  0  0  0
  9 10  1  0  0  0
  9 45  1  0  0  0
 10 11  1  0  0  0
 11 12  1  0  0  0
 12 13  1  0  0  0
 12 46  1  0  0  0
 12 47  1  0  0  0
 13 18  1  0  0  0
 13 14  2  0  0  0
 14 15  1  0  0  0
 14 48  1  0  0  0
 15 16  2  0  0  0
 15 49  1  0  0  0
 16 17  1  0  0  0
 16 19  1  0  0  0
 17 18  2  0  0  0
 17 50  1  0  0  0
 18 51  1  0  0  0
 19 24  1  0  0  0
 19 20  2  0  0  0
 20 21  1  0  0  0
 20 52  1  0  0  0
 21 22  2  0  0  0
 21 53  1  0  0  0
 22 23  1  0  0  0
 22 25  1  0  0  0
 23 24  2  0  0  0
 23 54  1  0  0  0
 24 55  1  0  0  0
 25 26  2  3  0  0
 25 27  1  0  0  0
 26 56  1  0  0  0
 27 57  1  0  0  0
 27 58  1  0  0  0
 28 29  1  0  0  0
 29 34  1  0  0  0
 29 30  1  0  0  0
 29 59  1  0  0  0
 30 31  1  0  0  0
 30 60  1  0  0  0
 30 61  1  0  0  0
 31 32  1  0  0  0
 31 62  1  0  0  0
 31 63  1  0  0  0
 32 33  1  0  0  0
 32 35  1  0  0  0
 33 34  1  0  0  0
 33 64  1  0  0  0
 33 65  1  0  0  0
 34 66  1  0  0  0
 34 67  1  0  0  0
 35 36  2  3  0  0
 35 37  1  0  0  0
 36 68  1  0  0  0
 37 69  1  0  0  0
 37 70  1  0  0  0
 37 71  1  0  0  0
M  END
> <s_m_entry_id>
40003

> <s_m_entry_name>
ligand_docking-pose.44

> <s_m_Source_Path>
/home/csk/Desktop/cluster/DUD-E-result/try1

> <s_m_Source_File>
ligand_docking-pose.sdf

> <i_m_Source_File_Index>
44

> <i_lp_mmshare_version>
53161

> <i_f3d_flags>
0

> <r_lp_tautomer_probability>
0.499900269896156

> <s_lp_Force_Field>
OPLS_2005

> <r_lp_Energy>
28.795281

> <b_lp_Chiralities_Consistent>
1

> <s_lp_Variant>
33674-1

> <s_i_glide_gridfile>
glide-grid_2ayw

> <i_i_glide_lignum>
1446

> <i_i_glide_rotatable_bonds>
8

> <r_i_docking_score>
-7.30352433063824

> <r_i_glide_ligand_efficiency>
-0.197392549476709

> <r_i_glide_ligand_efficiency_sa>
-0.657755765926694

> <r_i_glide_ligand_efficiency_ln>
-1.58396320841242

> <r_i_glide_gscore>
-7.30352433063824

> <r_i_glide_lipo>
-2.74544379404885

> <r_i_glide_hbond>
-0.567530561632997

> <r_i_glide_metal>
0

> <r_i_glide_rewards>
-0.880017971437252

> <r_i_glide_evdw>
-45.974437713623

> <r_i_glide_ecoul>
-7.7388334274292

> <r_i_glide_erotb>
0.416493203075779

> <r_i_glide_esite>
-0.0674783067993844

> <r_i_glide_emodel>
-75.3126299577116

> <r_i_glide_energy>
-53.7132711410522

> <r_i_glide_einternal>
3.37466239929199

> <i_i_glide_confnum>
1

> <i_i_glide_posenum>
28

> <r_i_glide_eff_state_penalty>
0

> <s_user_duplicate_titles>
33674

> <s_m_subgroup_title>
dock_pv

> <s_m_subgroupid>
dock_pv1

> <b_m_subgroup_collapsed>
0

$$$$
251238
                    3D
 Schrodinger Suite 2021-1.
 51 53  0  0  1  0            999 V2000
   28.2774   18.6939   30.5832 C   0  0  0  0  0  0
   28.8298   17.7161   29.7667 C   0  0  0  0  0  0
   28.0244   16.8255   29.0331 C   0  0  0  0  0  0
   26.6303   16.9815   29.1562 C   0  0  0  0  0  0
   26.0753   17.9402   30.0010 C   0  0  0  0  0  0
   26.8946   18.8172   30.7200 C   0  0  0  0  0  0
   26.4033   19.8616   31.6583 C   0  0  0  0  0  0
   25.2451   20.5688   31.7724 C   0  0  0  0  0  0
   25.1001   21.5923   32.9013 C   0  0  0  0  0  0
   24.2066   21.1334   34.0676 C   0  0  0  0  0  0
   22.7069   21.0385   33.7362 C   0  0  0  0  0  0
   22.3531   20.0786   32.5860 C   0  0  0  0  0  0
   22.7431   20.5692   31.1881 C   0  0  0  0  0  0
   21.7699   20.9674   30.3209 C   0  0  0  0  0  0
   21.8478   21.4924   28.9397 C   0  0  0  0  0  0
   22.7154   22.5330   28.5998 C   0  0  0  0  0  0
   22.7565   23.0159   27.2954 C   0  0  0  0  0  0
   21.9208   22.4802   26.3066 C   0  0  0  0  0  0
   21.0419   21.4427   26.6610 C   0  0  0  0  0  0
   21.0077   20.9543   27.9639 C   0  0  0  0  0  0
   21.9777   23.0434   24.9014 C   0  0  0  0  0  0
   22.7426   23.9575   24.6013 O   0  0  0  0  0  0
   21.1539   22.5309   23.9862 N   0  0  0  0  0  0
   24.1636   20.4812   30.7750 C   0  0  0  0  0  0
   24.4559   20.3531   29.5856 O   0  0  0  0  0  0
   28.6066   15.7349   28.1913 C   0  0  0  0  0  0
   27.8666   14.9333   27.5568 N   0  0  0  0  0  0
   29.9800   15.6812   28.1912 N   0  0  0  0  0  0
   28.9441   19.3432   31.1323 H   0  0  0  0  0  0
   29.9104   17.6592   29.7448 H   0  0  0  0  0  0
   25.9431   16.3302   28.6353 H   0  0  0  0  0  0
   25.0015   17.9637   30.1028 H   0  0  0  0  0  0
   27.1292   20.0668   32.4328 H   0  0  0  0  0  0
   26.0895   21.8122   33.3053 H   0  0  0  0  0  0
   24.7477   22.5486   32.5085 H   0  0  0  0  0  0
   24.5603   20.1700   34.4379 H   0  0  0  0  0  0
   24.3330   21.8296   34.8978 H   0  0  0  0  0  0
   22.1809   20.7130   34.6344 H   0  0  0  0  0  0
   22.3169   22.0332   33.5157 H   0  0  0  0  0  0
   22.7797   19.0909   32.7714 H   0  0  0  0  0  0
   21.2735   19.9250   32.6113 H   0  0  0  0  0  0
   20.7544   20.9368   30.6885 H   0  0  0  0  0  0
   23.3610   22.9699   29.3460 H   0  0  0  0  0  0
   23.4456   23.8178   27.0653 H   0  0  0  0  0  0
   20.3674   21.0004   25.9458 H   0  0  0  0  0  0
   20.3237   20.1547   28.2133 H   0  0  0  0  0  0
   20.5903   21.7156   24.1915 H   0  0  0  0  0  0
   21.1649   22.9180   23.0556 H   0  0  0  0  0  0
   26.8864   15.1304   27.6885 H   0  0  0  0  0  0
   30.4452   15.0234   27.5766 H   0  0  0  0  0  0
   30.5307   16.4275   28.5856 H   0  0  0  0  0  0
  1  6  1  0  0  0
  1  2  2  0  0  0
  1 29  1  0  0  0
  2  3  1  0  0  0
  2 30  1  0  0  0
  3  4  2  0  0  0
  3 26  1  0  0  0
  4  5  1  0  0  0
  4 31  1  0  0  0
  5  6  2  0  0  0
  5 32  1  0  0  0
  6  7  1  0  0  0
  7  8  2  0  0  0
  7 33  1  0  0  0
  8 24  1  0  0  0
  8  9  1  0  0  0
  9 10  1  0  0  0
  9 34  1  0  0  0
  9 35  1  0  0  0
 10 11  1  0  0  0
 10 36  1  0  0  0
 10 37  1  0  0  0
 11 12  1  0  0  0
 11 38  1  0  0  0
 11 39  1  0  0  0
 12 13  1  0  0  0
 12 40  1  0  0  0
 12 41  1  0  0  0
 13 14  2  0  0  0
 13 24  1  0  0  0
 14 15  1  0  0  0
 14 42  1  0  0  0
 15 20  1  0  0  0
 15 16  2  0  0  0
 16 17  1  0  0  0
 16 43  1  0  0  0
 17 18  2  0  0  0
 17 44  1  0  0  0
 18 19  1  0  0  0
 18 21  1  0  0  0
 19 20  2  0  0  0
 19 45  1  0  0  0
 20 46  1  0  0  0
 21 22  2  0  0  0
 21 23  1  0  0  0
 23 47  1  0  0  0
 23 48  1  0  0  0
 24 25  2  0  0  0
 26 27  2  3  0  0
 26 28  1  0  0  0
 27 49  1  0  0  0
 28 50  1  0  0  0
 28 51  1  0  0  0
M  END
> <s_m_entry_id>
40004

> <s_m_entry_name>
ligand_docking-pose.45

> <s_m_Source_Path>
/home/csk/Desktop/cluster/DUD-E-result/try1

> <s_m_Source_File>
ligand_docking-pose.sdf

> <i_m_Source_File_Index>
45

> <i_lp_mmshare_version>
53161

> <i_f3d_flags>
0

> <r_lp_tautomer_probability>
1

> <s_lp_Force_Field>
OPLS_2005

> <r_lp_Energy>
36.592035

> <b_lp_Chiralities_Consistent>
1

> <s_lp_Variant>
251238-2

> <s_i_glide_gridfile>
glide-grid_2ayw

> <i_i_glide_lignum>
394

> <i_i_glide_rotatable_bonds>
4

> <r_i_docking_score>
-7.29926405995863

> <r_i_glide_ligand_efficiency>
-0.26068800214138

> <r_i_glide_ligand_efficiency_sa>
-0.791602311523553

> <r_i_glide_ligand_efficiency_ln>
-1.68488446074385

> <r_i_glide_gscore>
-7.29926405995863

> <r_i_glide_lipo>
-1.85113379604153

> <r_i_glide_hbond>
-0.633440237156667

> <r_i_glide_metal>
0

> <r_i_glide_rewards>
-1.55228152377267

> <r_i_glide_evdw>
-36.045711517334

> <r_i_glide_ecoul>
-11.4349203109741

> <r_i_glide_erotb>
0.277136958444851

> <r_i_glide_esite>
-0.0220218389198002

> <r_i_glide_emodel>
-65.2208503877763

> <r_i_glide_energy>
-47.4806318283081

> <r_i_glide_einternal>
3.3920533657074

> <i_i_glide_confnum>
4

> <i_i_glide_posenum>
101

> <r_i_glide_eff_state_penalty>
0

> <s_user_duplicate_titles>
251238

> <s_m_subgroup_title>
dock_pv

> <s_m_subgroupid>
dock_pv1

> <b_m_subgroup_collapsed>
0

$$$$
22587
                    3D
 Schrodinger Suite 2021-1.
 61 64  0  0  1  0            999 V2000
   18.4721   21.4671   29.4280 C   0  0  0  0  0  0
   18.5525   21.3331   28.0462 C   0  0  0  0  0  0
   19.7967   21.2320   27.4295 C   0  0  0  0  0  0
   20.9755   21.2619   28.1875 C   0  0  0  0  0  0
   20.8998   21.3623   29.5942 C   0  0  0  0  0  0
   19.6372   21.4861   30.1907 C   0  0  0  0  0  0
   22.0864   21.2613   30.4863 C   0  0  0  0  0  0
   22.4665   22.3180   31.3199 C   0  0  0  0  0  0
   23.5491   22.1744   32.1897 C   0  0  0  0  0  0
   24.2469   20.9638   32.2541 C   0  0  0  0  0  0
   23.8554   19.9045   31.4314 C   0  0  0  0  0  0
   22.8033   20.0675   30.5374 C   0  0  0  0  0  0
   25.4401   20.8248   33.2115 C   0  0  0  0  0  0
   26.7571   20.6307   32.5789 N   0  0  1  0  0  0
   27.1567   19.2554   32.3044 C   0  0  0  0  0  0
   28.2092   19.2982   31.1714 C   0  0  2  0  0  0
   28.2852   20.7884   30.7336 C   0  0  1  0  0  0
   27.0418   21.4178   31.3881 C   0  0  0  0  0  0
   29.5529   21.4793   31.2994 C   0  0  0  0  0  0
   30.2476   20.9974   32.1935 O   0  0  0  0  0  0
   29.8887   22.6485   30.7502 N   0  0  0  0  0  0
   27.8919   18.3381   30.0222 C   0  0  0  0  0  0
   26.6507   18.3822   29.3781 C   0  0  0  0  0  0
   26.3252   17.4353   28.4115 C   0  0  0  0  0  0
   27.2372   16.4348   28.0842 C   0  0  0  0  0  0
   28.5082   16.3863   28.6819 C   0  0  0  0  0  0
   28.8220   17.3634   29.6412 C   0  0  0  0  0  0
   29.4570   15.3122   28.3364 C   0  0  0  0  0  0
   29.0412   14.1349   28.1898 N   0  0  0  0  0  0
   30.7529   15.7330   28.1913 N   0  0  0  0  0  0
   22.5427   21.1484   27.3075 S   0  0  0  0  0  0
   23.5527   21.9222   28.0363 O   0  0  0  0  0  0
   22.7530   19.7333   26.9901 O   0  0  0  0  0  0
   22.2925   21.9733   25.7894 N   0  0  0  0  0  0
   29.1379   18.9333   31.6155 H   0  0  0  0  0  0
   28.2985   20.9633   29.6573 H   0  0  0  0  0  0
   17.5096   21.5326   29.9141 H   0  0  0  0  0  0
   17.6513   21.2956   27.4538 H   0  0  0  0  0  0
   19.8331   21.1191   26.3558 H   0  0  0  0  0  0
   19.5560   21.5567   31.2659 H   0  0  0  0  0  0
   21.9247   23.2524   31.2944 H   0  0  0  0  0  0
   23.8369   23.0055   32.8164 H   0  0  0  0  0  0
   24.3434   18.9459   31.4715 H   0  0  0  0  0  0
   22.5171   19.2410   29.9037 H   0  0  0  0  0  0
   25.2384   20.0351   33.9373 H   0  0  0  0  0  0
   25.5139   21.7446   33.7950 H   0  0  0  0  0  0
   26.2938   18.6622   32.0136 H   0  0  0  0  0  0
   27.5508   18.7998   33.2136 H   0  0  0  0  0  0
   27.1469   22.4587   31.7004 H   0  0  0  0  0  0
   26.1879   21.3486   30.7138 H   0  0  0  0  0  0
   29.3461   23.0457   29.9980 H   0  0  0  0  0  0
   30.6969   23.1362   31.1057 H   0  0  0  0  0  0
   25.9242   19.1382   29.6370 H   0  0  0  0  0  0
   25.3615   17.4652   27.9221 H   0  0  0  0  0  0
   26.9507   15.7066   27.3383 H   0  0  0  0  0  0
   29.7816   17.3340   30.1399 H   0  0  0  0  0  0
   28.0594   14.0484   28.4028 H   0  0  0  0  0  0
   31.4469   15.0847   27.8209 H   0  0  0  0  0  0
   31.0213   16.6949   28.3550 H   0  0  0  0  0  0
   21.6080   21.5194   25.1793 H   0  0  0  0  0  0
   22.1449   22.9793   25.8933 H   0  0  0  0  0  0
  1  6  1  0  0  0
  1  2  2  0  0  0
  1 37  1  0  0  0
  2  3  1  0  0  0
  2 38  1  0  0  0
  3  4  2  0  0  0
  3 39  1  0  0  0
  4  5  1  0  0  0
  4 31  1  0  0  0
  5  6  2  0  0  0
  5  7  1  0  0  0
  6 40  1  0  0  0
  7 12  1  0  0  0
  7  8  2  0  0  0
  8  9  1  0  0  0
  8 41  1  0  0  0
  9 10  2  0  0  0
  9 42  1  0  0  0
 10 11  1  0  0  0
 10 13  1  0  0  0
 11 12  2  0  0  0
 11 43  1  0  0  0
 12 44  1  0  0  0
 13 14  1  0  0  0
 13 45  1  0  0  0
 13 46  1  0  0  0
 14 18  1  0  0  0
 14 15  1  0  0  0
 15 16  1  0  0  0
 15 47  1  0  0  0
 15 48  1  0  0  0
 16 35  1  0  0  0
 16 17  1  0  0  0
 16 22  1  0  0  0
 17 36  1  0  0  0
 17 18  1  0  0  0
 17 19  1  0  0  0
 18 49  1  0  0  0
 18 50  1  0  0  0
 19 20  2  0  0  0
 19 21  1  0  0  0
 21 51  1  0  0  0
 21 52  1  0  0  0
 22 27  1  0  0  0
 22 23  2  0  0  0
 23 24  1  0  0  0
 23 53  1  0  0  0
 24 25  2  0  0  0
 24 54  1  0  0  0
 25 26  1  0  0  0
 25 55  1  0  0  0
 26 27  2  0  0  0
 26 28  1  0  0  0
 27 56  1  0  0  0
 28 29  2  3  0  0
 28 30  1  0  0  0
 29 57  1  0  0  0
 30 58  1  0  0  0
 30 59  1  0  0  0
 31 32  2  0  0  0
 31 33  2  0  0  0
 31 34  1  0  0  0
 34 60  1  0  0  0
 34 61  1  0  0  0
M  END
> <s_m_entry_id>
40005

> <s_m_entry_name>
ligand_docking-pose.46

> <s_m_Source_Path>
/home/csk/Desktop/cluster/DUD-E-result/try1

> <s_m_Source_File>
ligand_docking-pose.sdf

> <i_m_Source_File_Index>
46

> <i_lp_mmshare_version>
53161

> <i_f3d_flags>
0

> <r_lp_tautomer_probability>
1

> <s_lp_Force_Field>
OPLS_2005

> <r_lp_Energy>
49.378266

> <b_lp_Chiralities_Consistent>
1

> <s_lp_Variant>
22587-2

> <s_i_glide_gridfile>
glide-grid_2ayw

> <i_i_glide_lignum>
219

> <i_i_glide_rotatable_bonds>
7

> <r_i_docking_score>
-7.29291119522936

> <r_i_glide_ligand_efficiency>
-0.214497388094981

> <r_i_glide_ligand_efficiency_sa>
-0.694888268998889

> <r_i_glide_ligand_efficiency_ln>
-1.61120864225631

> <r_i_glide_gscore>
-7.29291119522936

> <r_i_glide_lipo>
-2.29440830302429

> <r_i_glide_hbond>
-0.7892107539743

> <r_i_glide_metal>
0

> <r_i_glide_rewards>
-0.262734994724608

> <r_i_glide_evdw>
-46.1625099182129

> <r_i_glide_ecoul>
-12.6566886901855

> <r_i_glide_erotb>
0.355278147632624

> <r_i_glide_esite>
-0.0952064917003125

> <r_i_glide_emodel>
-74.91780878808

> <r_i_glide_energy>
-58.8191986083984

> <r_i_glide_einternal>
13.0807409286499

> <i_i_glide_confnum>
11

> <i_i_glide_posenum>
244

> <r_i_glide_eff_state_penalty>
0

> <s_user_duplicate_titles>
22587

> <s_m_subgroup_title>
dock_pv

> <s_m_subgroupid>
dock_pv1

> <b_m_subgroup_collapsed>
0

$$$$
326250
                    3D
 Schrodinger Suite 2021-1.
 62 66  0  0  1  0            999 V2000
   17.2434   22.3960   27.9707 C   0  0  0  0  0  0
   17.9487   21.3350   28.5226 C   0  0  0  0  0  0
   19.2550   21.0721   28.1232 C   0  0  0  0  0  0
   19.9070   21.8843   27.1436 C   0  0  0  0  0  0
   19.1536   22.9535   26.5600 C   0  0  0  0  0  0
   17.8288   23.2021   26.9994 C   0  0  0  0  0  0
   19.7360   23.7406   25.5380 C   0  0  0  0  0  0
   21.0214   23.4723   25.0865 C   0  0  0  0  0  0
   21.7720   22.4553   25.6595 C   0  0  0  0  0  0
   21.2663   21.6825   26.7091 C   0  0  0  0  0  0
   22.1615   20.6282   27.3180 C   0  0  0  0  0  0
   22.6000   19.7330   26.5943 O   0  0  0  0  0  0
   22.4152   20.6979   28.6541 N   0  0  0  0  0  0
   22.2902   21.9354   29.4466 C   0  0  0  0  0  0
   23.3601   22.9845   29.0940 C   0  0  0  0  0  0
   23.1645   24.2719   29.8751 C   0  0  0  0  0  0
   23.7919   24.4430   31.1123 C   0  0  0  0  0  0
   23.6028   25.6230   31.8274 C   0  0  0  0  0  0
   22.7882   26.6252   31.3048 C   0  0  0  0  0  0
   22.1597   26.4582   30.0725 C   0  0  0  0  0  0
   22.3467   25.2792   29.3558 C   0  0  0  0  0  0
   22.6049   27.7692   32.0009 F   0  0  0  0  0  0
   22.8896   19.5181   29.3909 C   0  0  0  0  0  0
   24.3897   19.4334   29.6408 C   0  0  0  0  0  0
   24.9700   20.1403   30.6941 C   0  0  0  0  0  0
   26.3124   19.9597   31.0204 C   0  0  0  0  0  0
   27.0966   19.0132   30.3156 C   0  0  0  0  0  0
   28.4393   18.7488   30.6548 C   0  0  0  0  0  0
   29.1529   17.7666   29.9749 C   0  0  0  0  0  0
   28.5913   17.0168   28.9320 C   0  0  0  0  0  0
   27.2687   17.2998   28.5666 C   0  0  0  0  0  0
   26.5076   18.2827   29.2453 C   0  0  0  0  0  0
   25.1626   18.5330   28.9058 C   0  0  0  0  0  0
   29.3427   15.9333   28.2531 C   0  0  0  0  0  0
   28.7529   14.9250   27.7911 N   0  0  0  0  0  0
   30.6975   16.1330   28.1910 N   0  0  0  0  0  0
   16.2322   22.5884   28.2972 H   0  0  0  0  0  0
   17.4825   20.7105   29.2721 H   0  0  0  0  0  0
   19.7711   20.2347   28.5686 H   0  0  0  0  0  0
   17.2704   24.0180   26.5644 H   0  0  0  0  0  0
   19.1657   24.5422   25.0911 H   0  0  0  0  0  0
   21.4459   24.0651   24.2892 H   0  0  0  0  0  0
   22.7746   22.2851   25.2916 H   0  0  0  0  0  0
   21.2986   22.3592   29.2918 H   0  0  0  0  0  0
   22.3728   21.6804   30.5039 H   0  0  0  0  0  0
   24.3528   22.5894   29.3010 H   0  0  0  0  0  0
   23.3445   23.2253   28.0304 H   0  0  0  0  0  0
   24.4202   23.6654   31.5218 H   0  0  0  0  0  0
   24.0818   25.7633   32.7852 H   0  0  0  0  0  0
   21.5289   27.2406   29.6783 H   0  0  0  0  0  0
   21.8552   25.1480   28.4016 H   0  0  0  0  0  0
   22.5799   18.6167   28.8645 H   0  0  0  0  0  0
   22.3750   19.4588   30.3509 H   0  0  0  0  0  0
   24.3723   20.8182   31.2855 H   0  0  0  0  0  0
   26.7498   20.5061   31.8436 H   0  0  0  0  0  0
   28.9027   19.2862   31.4696 H   0  0  0  0  0  0
   30.1633   17.5700   30.2999 H   0  0  0  0  0  0
   26.7950   16.7440   27.7679 H   0  0  0  0  0  0
   24.7530   17.9789   28.0782 H   0  0  0  0  0  0
   29.4591   14.3184   27.3975 H   0  0  0  0  0  0
   31.3000   15.4607   27.7243 H   0  0  0  0  0  0
   31.1074   17.0167   28.5034 H   0  0  0  0  0  0
  1  6  1  0  0  0
  1  2  2  0  0  0
  1 37  1  0  0  0
  2  3  1  0  0  0
  2 38  1  0  0  0
  3  4  2  0  0  0
  3 39  1  0  0  0
  4 10  1  0  0  0
  4  5  1  0  0  0
  5  6  2  0  0  0
  5  7  1  0  0  0
  6 40  1  0  0  0
  7  8  2  0  0  0
  7 41  1  0  0  0
  8  9  1  0  0  0
  8 42  1  0  0  0
  9 10  2  0  0  0
  9 43  1  0  0  0
 10 11  1  0  0  0
 11 12  2  0  0  0
 11 13  1  0  0  0
 13 14  1  0  0  0
 13 23  1  0  0  0
 14 15  1  0  0  0
 14 44  1  0  0  0
 14 45  1  0  0  0
 15 16  1  0  0  0
 15 46  1  0  0  0
 15 47  1  0  0  0
 16 21  1  0  0  0
 16 17  2  0  0  0
 17 18  1  0  0  0
 17 48  1  0  0  0
 18 19  2  0  0  0
 18 49  1  0  0  0
 19 20  1  0  0  0
 19 22  1  0  0  0
 20 21  2  0  0  0
 20 50  1  0  0  0
 21 51  1  0  0  0
 23 24  1  0  0  0
 23 52  1  0  0  0
 23 53  1  0  0  0
 24 33  1  0  0  0
 24 25  2  0  0  0
 25 26  1  0  0  0
 25 54  1  0  0  0
 26 27  2  0  0  0
 26 55  1  0  0  0
 27 32  1  0  0  0
 27 28  1  0  0  0
 28 29  2  0  0  0
 28 56  1  0  0  0
 29 30  1  0  0  0
 29 57  1  0  0  0
 30 31  2  0  0  0
 30 34  1  0  0  0
 31 32  1  0  0  0
 31 58  1  0  0  0
 32 33  2  0  0  0
 33 59  1  0  0  0
 34 35  2  3  0  0
 34 36  1  0  0  0
 35 60  1  0  0  0
 36 61  1  0  0  0
 36 62  1  0  0  0
M  END
> <s_m_entry_id>
40006

> <s_m_entry_name>
ligand_docking-pose.47

> <s_m_Source_Path>
/home/csk/Desktop/cluster/DUD-E-result/try1

> <s_m_Source_File>
ligand_docking-pose.sdf

> <i_m_Source_File_Index>
47

> <i_lp_mmshare_version>
53161

> <i_f3d_flags>
0

> <r_lp_tautomer_probability>
1

> <s_lp_Force_Field>
OPLS_2005

> <r_lp_Energy>
34.522835

> <b_lp_Chiralities_Consistent>
1

> <s_lp_Variant>
326250-1

> <s_i_glide_gridfile>
glide-grid_2ayw

> <i_i_glide_lignum>
89

> <i_i_glide_rotatable_bonds>
8

> <r_i_docking_score>
-7.29121564961006

> <r_i_glide_ligand_efficiency>
-0.202533768044724

> <r_i_glide_ligand_efficiency_sa>
-0.66875176672935

> <r_i_glide_ligand_efficiency_ln>
-1.59074626886259

> <r_i_glide_gscore>
-7.29121564961006

> <r_i_glide_lipo>
-2.32595197491582

> <r_i_glide_hbond>
-1.01223260073304

> <r_i_glide_metal>
0

> <r_i_glide_rewards>
-0.615292199930122

> <r_i_glide_evdw>
-40.0385284423828

> <r_i_glide_ecoul>
-11.537636756897

> <r_i_glide_erotb>
0.447555363276589

> <r_i_glide_esite>
-0.0527223016539873

> <r_i_glide_emodel>
-70.0349765338772

> <r_i_glide_energy>
-51.5761651992798

> <r_i_glide_einternal>
5.37484216690063

> <i_i_glide_confnum>
43

> <i_i_glide_posenum>
314

> <r_i_glide_eff_state_penalty>
0

> <s_user_duplicate_titles>
326250

> <s_m_subgroup_title>
dock_pv

> <s_m_subgroupid>
dock_pv1

> <b_m_subgroup_collapsed>
0

$$$$
57747
                    3D
 Schrodinger Suite 2021-1.
 58 60  0  0  1  0            999 V2000
   27.2925   15.2446   27.7949 C   0  0  0  0  0  0
   28.6245   15.3237   28.1909 C   0  0  0  0  0  0
   29.1418   16.5393   28.6297 C   0  0  0  0  0  0
   28.3295   17.6773   28.6578 C   0  0  0  0  0  0
   27.0001   17.5926   28.2345 C   0  0  0  0  0  0
   26.4780   16.3727   27.8136 C   0  0  0  0  0  0
   28.9058   19.0127   29.1134 C   0  0  0  0  0  0
   28.0263   19.7922   30.5938 S   0  0  0  0  0  0
   26.6661   20.1744   30.1912 O   0  0  0  0  0  0
   28.9285   20.8085   31.1452 O   0  0  0  0  0  0
   27.9529   18.4836   31.7823 N   0  0  0  0  0  0
   27.0220   18.5331   32.8435 C   0  0  0  0  0  0
   27.4243   18.7688   34.1161 C   0  0  0  0  0  0
   26.4463   18.8420   35.1828 C   0  0  0  0  0  0
   25.1569   18.6928   34.8287 C   0  0  0  0  0  0
   24.7056   18.4481   33.5490 N   0  0  0  0  0  0
   25.6068   18.2668   32.5055 C   0  0  0  0  0  0
   25.2560   17.8951   31.3795 O   0  0  0  0  0  0
   23.2562   18.3445   33.2618 C   0  0  0  0  0  0
   22.7592   19.6383   32.5985 C   0  0  0  0  0  0
   22.1756   20.4975   33.2555 O   0  0  0  0  0  0
   23.0088   19.7338   31.2857 N   0  0  0  0  0  0
   22.6765   20.8292   30.3791 C   0  0  1  0  0  0
   23.4340   22.1444   30.6771 C   0  0  0  0  0  0
   23.1495   23.2200   29.6175 C   0  0  0  0  0  0
   23.3252   22.6851   28.1871 C   0  0  0  0  0  0
   22.4455   21.5255   27.9652 N   0  0  0  0  0  0
   22.7439   20.4064   28.8800 C   0  0  1  0  0  0
   23.9527   19.7280   28.5894 O   0  0  0  0  0  0
   21.7460   21.3514   26.7232 C   0  0  0  0  0  0
   21.7544   22.1817   25.7785 N   0  0  0  0  0  0
   20.9941   20.1686   26.5909 N   0  0  0  0  0  0
   21.6172   21.0433   30.5449 H   0  0  0  0  0  0
   26.8842   14.2990   27.4734 H   0  0  0  0  0  0
   29.2556   14.4459   28.1715 H   0  0  0  0  0  0
   30.1765   16.5871   28.9379 H   0  0  0  0  0  0
   26.3630   18.4642   28.2371 H   0  0  0  0  0  0
   25.4479   16.3045   27.4972 H   0  0  0  0  0  0
   28.8858   19.7334   28.3006 H   0  0  0  0  0  0
   29.9455   18.9137   29.4243 H   0  0  0  0  0  0
   28.8994   18.2531   32.1088 H   0  0  0  0  0  0
   28.4680   18.9511   34.3347 H   0  0  0  0  0  0
   26.7394   19.0064   36.2100 H   0  0  0  0  0  0
   24.3520   18.7113   35.5515 H   0  0  0  0  0  0
   22.6634   18.1054   34.1449 H   0  0  0  0  0  0
   23.0693   17.5050   32.5880 H   0  0  0  0  0  0
   23.3936   18.9067   30.8453 H   0  0  0  0  0  0
   24.5063   21.9438   30.6763 H   0  0  0  0  0  0
   23.1762   22.5254   31.6665 H   0  0  0  0  0  0
   23.8168   24.0691   29.7710 H   0  0  0  0  0  0
   22.1409   23.6195   29.7368 H   0  0  0  0  0  0
   24.3533   22.3681   28.0218 H   0  0  0  0  0  0
   23.1335   23.4978   27.4852 H   0  0  0  0  0  0
   21.9859   19.6308   28.7689 H   0  0  0  0  0  0
   24.6292   20.0252   29.2073 H   0  0  0  0  0  0
   22.3181   22.9902   25.9863 H   0  0  0  0  0  0
   20.4222   20.0118   25.7672 H   0  0  0  0  0  0
   20.8755   19.5065   27.3406 H   0  0  0  0  0  0
  1  6  1  0  0  0
  1  2  2  0  0  0
  1 34  1  0  0  0
  2  3  1  0  0  0
  2 35  1  0  0  0
  3  4  2  0  0  0
  3 36  1  0  0  0
  4  5  1  0  0  0
  4  7  1  0  0  0
  5  6  2  0  0  0
  5 37  1  0  0  0
  6 38  1  0  0  0
  7  8  1  0  0  0
  7 39  1  0  0  0
  7 40  1  0  0  0
  8  9  2  0  0  0
  8 10  2  0  0  0
  8 11  1  0  0  0
 11 12  1  0  0  0
 11 41  1  0  0  0
 12 17  1  0  0  0
 12 13  2  0  0  0
 13 14  1  0  0  0
 13 42  1  0  0  0
 14 15  2  0  0  0
 14 43  1  0  0  0
 15 16  1  0  0  0
 15 44  1  0  0  0
 16 17  1  0  0  0
 16 19  1  0  0  0
 17 18  2  0  0  0
 19 20  1  0  0  0
 19 45  1  0  0  0
 19 46  1  0  0  0
 20 21  2  0  0  0
 20 22  1  0  0  0
 22 23  1  0  0  0
 22 47  1  0  0  0
 23 33  1  0  0  0
 23 28  1  0  0  0
 23 24  1  0  0  0
 24 25  1  0  0  0
 24 48  1  0  0  0
 24 49  1  0  0  0
 25 26  1  0  0  0
 25 50  1  0  0  0
 25 51  1  0  0  0
 26 27  1  0  0  0
 26 52  1  0  0  0
 26 53  1  0  0  0
 27 28  1  0  0  0
 27 30  1  0  0  0
 28 29  1  0  0  0
 28 54  1  0  0  0
 29 55  1  0  0  0
 30 31  2  3  0  0
 30 32  1  0  0  0
 31 56  1  0  0  0
 32 57  1  0  0  0
 32 58  1  0  0  0
M  END
> <s_m_entry_id>
40007

> <s_m_entry_name>
ligand_docking-pose.48

> <s_m_Source_Path>
/home/csk/Desktop/cluster/DUD-E-result/try1

> <s_m_Source_File>
ligand_docking-pose.sdf

> <i_m_Source_File_Index>
48

> <i_lp_mmshare_version>
53161

> <i_f3d_flags>
0

> <r_lp_tautomer_probability>
1

> <s_lp_Force_Field>
OPLS_2005

> <r_lp_Energy>
28.614223

> <b_lp_Chiralities_Consistent>
1

> <s_lp_Variant>
57747-2

> <s_i_glide_gridfile>
glide-grid_2ayw

> <i_i_glide_lignum>
744

> <i_i_glide_rotatable_bonds>
10

> <r_i_docking_score>
-7.28422623735712

> <r_i_glide_ligand_efficiency>
-0.22763206991741

> <r_i_glide_ligand_efficiency_sa>
-0.722686773662311

> <r_i_glide_ligand_efficiency_ln>
-1.63113681505223

> <r_i_glide_gscore>
-7.28422623735712

> <r_i_glide_lipo>
-2.69728372500414

> <r_i_glide_hbond>
-0.608

> <r_i_glide_metal>
0

> <r_i_glide_rewards>
-0.807562970659933

> <r_i_glide_evdw>
-45.7098197937012

> <r_i_glide_ecoul>
-10.0468997955322

> <r_i_glide_erotb>
0.659157823724793

> <r_i_glide_esite>
-0.0380114064029552

> <r_i_glide_emodel>
-71.0011780817584

> <r_i_glide_energy>
-55.7567195892334

> <r_i_glide_einternal>
17.2914695739746

> <i_i_glide_confnum>
18

> <i_i_glide_posenum>
326

> <r_i_glide_eff_state_penalty>
0

> <s_user_duplicate_titles>
57747

> <s_m_subgroup_title>
dock_pv

> <s_m_subgroupid>
dock_pv1

> <b_m_subgroup_collapsed>
0

$$$$
211311
                    3D
 Schrodinger Suite 2021-1.
 47 49  0  0  1  0            999 V2000
   24.6176   18.1010   34.1861 C   0  0  0  0  0  0
   24.8111   18.8298   32.8631 C   0  0  0  0  0  0
   25.9876   18.6612   32.1188 C   0  0  0  0  0  0
   26.1449   19.3130   30.8908 C   0  0  0  0  0  0
   25.1644   20.2012   30.4555 C   0  0  0  0  0  0
   23.9738   20.3600   31.1682 C   0  0  0  0  0  0
   23.8001   19.6705   32.3741 C   0  0  0  0  0  0
   22.6472   19.8222   33.0709 F   0  0  0  0  0  0
   22.9822   21.2002   30.7081 O   0  0  0  0  0  0
   22.1906   20.8634   29.6245 C   0  0  0  0  0  0
   22.6465   20.1334   28.5176 C   0  0  0  0  0  0
   21.8069   19.9017   27.4351 C   0  0  0  0  0  0
   20.5022   20.3824   27.4477 C   0  0  0  0  0  0
   19.9942   21.0978   28.5456 C   0  0  0  0  0  0
   20.8736   21.3327   29.6223 C   0  0  0  0  0  0
   18.5851   21.5817   28.5425 C   0  0  0  0  0  0
   17.9534   21.7353   27.4626 N   0  0  0  0  0  0
   18.0660   21.8241   29.7897 N   0  0  0  0  0  0
   27.2059   19.0110   30.0624 O   0  0  0  0  0  0
   27.1741   17.7985   29.3914 C   0  0  0  0  0  0
   25.9644   17.1950   29.0213 C   0  0  0  0  0  0
   25.9530   15.9453   28.4268 C   0  0  0  0  0  0
   27.1425   15.2898   28.1675 C   0  0  0  0  0  0
   28.3860   15.8643   28.4840 C   0  0  0  0  0  0
   28.3746   17.1426   29.0884 C   0  0  0  0  0  0
   29.6218   15.0901   28.1932 C   0  0  0  0  0  0
   29.5532   13.9070   27.7910 N   0  0  0  0  0  0
   30.8080   15.7331   28.3956 N   0  0  0  0  0  0
   26.9723   17.8455   32.5599 F   0  0  0  0  0  0
   25.5539   17.7165   34.5917 H   0  0  0  0  0  0
   24.2036   18.7783   34.9328 H   0  0  0  0  0  0
   23.9169   17.2746   34.0639 H   0  0  0  0  0  0
   25.2906   20.7212   29.5220 H   0  0  0  0  0  0
   23.6457   19.7383   28.4674 H   0  0  0  0  0  0
   22.1638   19.3387   26.5863 H   0  0  0  0  0  0
   19.8794   20.1580   26.5927 H   0  0  0  0  0  0
   20.5500   21.9033   30.4805 H   0  0  0  0  0  0
   18.5172   21.5021   26.6588 H   0  0  0  0  0  0
   17.0971   22.0919   29.8569 H   0  0  0  0  0  0
   18.5130   21.4352   30.6062 H   0  0  0  0  0  0
   25.0169   17.6678   29.2289 H   0  0  0  0  0  0
   25.0164   15.4685   28.1890 H   0  0  0  0  0  0
   27.0770   14.3076   27.7215 H   0  0  0  0  0  0
   29.2986   17.6242   29.3766 H   0  0  0  0  0  0
   30.4749   13.5305   27.5966 H   0  0  0  0  0  0
   31.6522   15.2679   28.0656 H   0  0  0  0  0  0
   30.8620   16.7248   28.5922 H   0  0  0  0  0  0
  1  2  1  0  0  0
  1 30  1  0  0  0
  1 31  1  0  0  0
  1 32  1  0  0  0
  2  7  1  0  0  0
  2  3  2  0  0  0
  3  4  1  0  0  0
  3 29  1  0  0  0
  4  5  2  0  0  0
  4 19  1  0  0  0
  5  6  1  0  0  0
  5 33  1  0  0  0
  6  7  2  0  0  0
  6  9  1  0  0  0
  7  8  1  0  0  0
  9 10  1  0  0  0
 10 15  1  0  0  0
 10 11  2  0  0  0
 11 12  1  0  0  0
 11 34  1  0  0  0
 12 13  2  0  0  0
 12 35  1  0  0  0
 13 14  1  0  0  0
 13 36  1  0  0  0
 14 15  2  0  0  0
 14 16  1  0  0  0
 15 37  1  0  0  0
 16 17  2  3  0  0
 16 18  1  0  0  0
 17 38  1  0  0  0
 18 39  1  0  0  0
 18 40  1  0  0  0
 19 20  1  0  0  0
 20 25  1  0  0  0
 20 21  2  0  0  0
 21 22  1  0  0  0
 21 41  1  0  0  0
 22 23  2  0  0  0
 22 42  1  0  0  0
 23 24  1  0  0  0
 23 43  1  0  0  0
 24 25  2  0  0  0
 24 26  1  0  0  0
 25 44  1  0  0  0
 26 27  2  3  0  0
 26 28  1  0  0  0
 27 45  1  0  0  0
 28 46  1  0  0  0
 28 47  1  0  0  0
M  END
> <s_m_entry_id>
40008

> <s_m_entry_name>
ligand_docking-pose.49

> <s_m_Source_Path>
/home/csk/Desktop/cluster/DUD-E-result/try1

> <s_m_Source_File>
ligand_docking-pose.sdf

> <i_m_Source_File_Index>
49

> <i_lp_mmshare_version>
53161

> <i_f3d_flags>
0

> <r_lp_tautomer_probability>
1

> <s_lp_Force_Field>
OPLS_2005

> <r_lp_Energy>
13.868174

> <b_lp_Chiralities_Consistent>
1

> <s_lp_Variant>
211311-2

> <s_i_glide_gridfile>
glide-grid_2ayw

> <i_i_glide_lignum>
1120

> <i_i_glide_rotatable_bonds>
6

> <r_i_docking_score>
-7.2731278704002

> <r_i_glide_ligand_efficiency>
-0.250797512772421

> <r_i_glide_ligand_efficiency_sa>
-0.770529417466002

> <r_i_glide_ligand_efficiency_ln>
-1.66536185171196

> <r_i_glide_gscore>
-7.2731278704002

> <r_i_glide_lipo>
-2.78788659933329

> <r_i_glide_hbond>
-0.591217834098586

> <r_i_glide_metal>
0

> <r_i_glide_rewards>
-1.15752112459533

> <r_i_glide_evdw>
-37.5462532043457

> <r_i_glide_ecoul>
-8.4764404296875

> <r_i_glide_erotb>
0.49805844794399

> <r_i_glide_esite>
-0.0857820356465776

> <r_i_glide_emodel>
-64.6973797689848

> <r_i_glide_energy>
-46.0226936340332

> <r_i_glide_einternal>
3.22892808914185

> <i_i_glide_confnum>
18

> <i_i_glide_posenum>
354

> <r_i_glide_eff_state_penalty>
0

> <s_user_duplicate_titles>
211311

> <s_m_subgroup_title>
dock_pv

> <s_m_subgroupid>
dock_pv1

> <b_m_subgroup_collapsed>
0

$$$$
273068
                    3D
 Schrodinger Suite 2021-1.
 68 69  0  0  1  0            999 V2000
   22.7524   16.2340   33.7857 C   0  0  0  0  0  0
   23.1646   17.3307   32.9862 O   0  0  0  0  0  0
   22.9383   18.5973   33.3951 C   0  0  0  0  0  0
   22.3734   18.8986   34.4466 O   0  0  0  0  0  0
   23.4148   19.5434   32.4913 N   0  0  0  0  0  0
   24.1180   19.2202   31.2371 C   0  0  2  0  0  0
   25.5887   18.7588   31.4927 C   0  0  0  0  0  0
   26.4686   18.5071   30.2382 C   0  0  0  0  0  0
   27.9299   18.1906   30.6064 C   0  0  0  0  0  0
   28.7971   17.9234   29.3623 C   0  0  0  0  0  0
   28.2201   16.8015   28.6053 N   0  0  0  0  0  0
   26.8585   17.0875   28.1173 C   0  0  0  0  0  0
   25.9055   17.4275   29.2861 C   0  0  0  0  0  0
   28.9598   15.6421   28.2002 C   0  0  0  0  0  0
   28.4443   14.5748   27.7910 N   0  0  0  0  0  0
   30.3608   15.7343   28.3093 N   0  0  0  0  0  0
   24.0804   20.5102   30.3899 C   0  0  0  0  0  0
   24.9293   21.3898   30.5638 O   0  0  0  0  0  0
   23.0788   20.6073   29.5033 N   0  0  0  0  0  0
   22.8560   21.7824   28.6598 C   0  0  0  0  0  0
   22.6252   21.3840   27.1968 C   0  0  0  0  0  0
   22.4433   20.2141   26.8501 O   0  0  0  0  0  0
   22.6175   22.4117   26.3364 N   0  0  0  0  0  0
   22.1636   22.3578   24.9447 C   0  0  1  0  0  0
   20.6878   22.7853   24.7913 C   0  0  0  0  0  0
   20.5119   24.2990   25.0226 C   0  0  0  0  0  0
   21.4817   25.1175   24.1414 C   0  0  0  0  0  0
   22.8711   24.6664   24.3598 N   0  0  0  0  0  0
   23.0585   23.2410   24.0197 C   0  0  2  0  0  0
   22.8589   22.9319   22.6525 O   0  0  0  0  0  0
   23.8881   25.5213   24.9022 C   0  0  0  0  0  0
   23.7108   26.7295   25.2077 N   0  0  0  0  0  0
   25.1530   24.9363   25.1057 N   0  0  0  0  0  0
   23.5603   18.4360   30.7172 H   0  0  0  0  0  0
   22.2728   21.3332   24.5909 H   0  0  0  0  0  0
   23.1336   15.2943   33.3890 H   0  0  0  0  0  0
   23.1544   16.3480   34.7862 H   0  0  0  0  0  0
   21.6668   16.1706   33.8401 H   0  0  0  0  0  0
   23.3643   20.5133   32.7628 H   0  0  0  0  0  0
   25.5747   17.8434   32.0848 H   0  0  0  0  0  0
   26.0837   19.4985   32.1268 H   0  0  0  0  0  0
   26.5228   19.4189   29.6440 H   0  0  0  0  0  0
   27.9783   17.3335   31.2766 H   0  0  0  0  0  0
   28.3498   19.0107   31.1885 H   0  0  0  0  0  0
   29.8172   17.7312   29.6915 H   0  0  0  0  0  0
   28.8299   18.8031   28.7177 H   0  0  0  0  0  0
   26.4561   16.2429   27.5566 H   0  0  0  0  0  0
   26.9073   17.9231   27.4188 H   0  0  0  0  0  0
   24.9329   17.7334   28.9026 H   0  0  0  0  0  0
   25.6880   16.5099   29.8268 H   0  0  0  0  0  0
   29.1849   13.9006   27.6592 H   0  0  0  0  0  0
   30.9788   15.0157   27.9475 H   0  0  0  0  0  0
   30.8201   16.6100   28.5313 H   0  0  0  0  0  0
   22.4311   19.8403   29.3884 H   0  0  0  0  0  0
   21.9699   22.2976   29.0304 H   0  0  0  0  0  0
   23.6952   22.4810   28.7112 H   0  0  0  0  0  0
   22.7052   23.3416   26.7169 H   0  0  0  0  0  0
   20.3589   22.5338   23.7859 H   0  0  0  0  0  0
   20.0494   22.2110   25.4661 H   0  0  0  0  0  0
   19.4850   24.5888   24.7962 H   0  0  0  0  0  0
   20.6579   24.5549   26.0733 H   0  0  0  0  0  0
   21.2338   24.9759   23.0887 H   0  0  0  0  0  0
   21.3503   26.1809   24.3385 H   0  0  0  0  0  0
   24.0906   22.9335   24.1882 H   0  0  0  0  0  0
   23.5262   23.3949   22.1386 H   0  0  0  0  0  0
   22.7683   27.0325   25.0174 H   0  0  0  0  0  0
   25.9241   25.4669   25.4807 H   0  0  0  0  0  0
   25.3713   23.9929   24.8305 H   0  0  0  0  0  0
  1  2  1  0  0  0
  1 36  1  0  0  0
  1 37  1  0  0  0
  1 38  1  0  0  0
  2  3  1  0  0  0
  3  4  2  0  0  0
  3  5  1  0  0  0
  5  6  1  0  0  0
  5 39  1  0  0  0
  6 34  1  0  0  0
  6  7  1  0  0  0
  6 17  1  0  0  0
  7  8  1  0  0  0
  7 40  1  0  0  0
  7 41  1  0  0  0
  8 13  1  0  0  0
  8  9  1  0  0  0
  8 42  1  0  0  0
  9 10  1  0  0  0
  9 43  1  0  0  0
  9 44  1  0  0  0
 10 11  1  0  0  0
 10 45  1  0  0  0
 10 46  1  0  0  0
 11 12  1  0  0  0
 11 14  1  0  0  0
 12 13  1  0  0  0
 12 47  1  0  0  0
 12 48  1  0  0  0
 13 49  1  0  0  0
 13 50  1  0  0  0
 14 15  2  3  0  0
 14 16  1  0  0  0
 15 51  1  0  0  0
 16 52  1  0  0  0
 16 53  1  0  0  0
 17 18  2  0  0  0
 17 19  1  0  0  0
 19 20  1  0  0  0
 19 54  1  0  0  0
 20 21  1  0  0  0
 20 55  1  0  0  0
 20 56  1  0  0  0
 21 22  2  0  0  0
 21 23  1  0  0  0
 23 24  1  0  0  0
 23 57  1  0  0  0
 24 35  1  0  0  0
 24 29  1  0  0  0
 24 25  1  0  0  0
 25 26  1  0  0  0
 25 58  1  0  0  0
 25 59  1  0  0  0
 26 27  1  0  0  0
 26 60  1  0  0  0
 26 61  1  0  0  0
 27 28  1  0  0  0
 27 62  1  0  0  0
 27 63  1  0  0  0
 28 29  1  0  0  0
 28 31  1  0  0  0
 29 30  1  0  0  0
 29 64  1  0  0  0
 30 65  1  0  0  0
 31 32  2  3  0  0
 31 33  1  0  0  0
 32 66  1  0  0  0
 33 67  1  0  0  0
 33 68  1  0  0  0
M  END
> <s_m_entry_id>
40009

> <s_m_entry_name>
ligand_docking-pose.50

> <s_m_Source_Path>
/home/csk/Desktop/cluster/DUD-E-result/try1

> <s_m_Source_File>
ligand_docking-pose.sdf

> <i_m_Source_File_Index>
50

> <i_lp_mmshare_version>
53161

> <i_f3d_flags>
0

> <r_lp_tautomer_probability>
1

> <s_lp_Force_Field>
OPLS_2005

> <r_lp_Energy>
24.77818

> <b_lp_Chiralities_Consistent>
1

> <s_lp_Variant>
273068-7

> <s_i_glide_gridfile>
glide-grid_2ayw

> <i_i_glide_lignum>
2674

> <i_i_glide_rotatable_bonds>
14

> <r_i_docking_score>
-7.26543217103249

> <r_i_glide_ligand_efficiency>
-0.220164611243409

> <r_i_glide_ligand_efficiency_sa>
-0.706185547990358

> <r_i_glide_ligand_efficiency_ln>
-1.61579449644314

> <r_i_glide_gscore>
-7.26543217103249

> <r_i_glide_lipo>
-2.1018579414107

> <r_i_glide_hbond>
-1.1268172549267

> <r_i_glide_metal>
0

> <r_i_glide_rewards>
-0.672010471964749

> <r_i_glide_evdw>
-47.0711135864258

> <r_i_glide_ecoul>
-12.5708408355713

> <r_i_glide_erotb>
0.916160976095784

> <r_i_glide_esite>
-0.041725674169138

> <r_i_glide_emodel>
-76.8305387996759

> <r_i_glide_energy>
-59.6419544219971

> <r_i_glide_einternal>
13.7861728668213

> <i_i_glide_confnum>
25

> <i_i_glide_posenum>
372

> <r_i_glide_eff_state_penalty>
0

> <s_user_duplicate_titles>
273068

> <s_m_subgroup_title>
dock_pv

> <s_m_subgroupid>
dock_pv1

> <b_m_subgroup_collapsed>
0

$$$$
251962
                    3D
 Schrodinger Suite 2021-1.
 67 70  0  0  1  0            999 V2000
   20.5575   18.9637   36.3524 C   0  0  0  0  0  0
   21.1539   18.7050   35.0892 O   0  0  0  0  0  0
   22.4161   19.1078   34.8405 C   0  0  0  0  0  0
   23.1596   19.6746   35.6457 O   0  0  0  0  0  0
   22.8732   18.7766   33.4079 C   0  0  0  0  0  0
   22.7660   20.0416   32.5165 C   0  0  0  0  0  0
   23.3068   19.7574   31.0942 C   0  0  0  0  0  0
   24.7082   19.3179   31.2573 N   0  0  0  0  0  0
   24.8191   18.0127   31.9372 C   0  0  0  0  0  0
   24.3211   18.2152   33.3877 C   0  0  0  0  0  0
   25.7119   20.2414   31.2099 C   0  0  0  0  0  0
   25.4974   21.3953   30.8242 O   0  0  0  0  0  0
   27.1994   19.8208   31.4091 C   0  0  1  0  0  0
   27.9329   19.6584   30.0490 C   0  0  0  0  0  0
   27.6371   18.3667   29.2953 C   0  0  0  0  0  0
   26.3882   18.1339   28.7141 C   0  0  0  0  0  0
   26.1323   16.9352   28.0596 C   0  0  0  0  0  0
   27.1331   15.9763   27.9475 C   0  0  0  0  0  0
   28.4189   16.2034   28.4706 C   0  0  0  0  0  0
   28.6422   17.4075   29.1574 C   0  0  0  0  0  0
   29.4905   15.2053   28.2848 C   0  0  0  0  0  0
   29.2002   13.9877   28.1910 N   0  0  0  0  0  0
   30.7529   15.7330   28.1911 N   0  0  0  0  0  0
   27.9084   20.8939   32.1637 N   0  0  3  0  0  0
   27.5923   21.2969   33.8501 S   0  0  0  0  0  0
   28.2285   22.5958   34.0934 O   0  0  0  0  0  0
   26.1660   21.1000   34.1260 O   0  0  0  0  0  0
   28.5064   20.0887   34.8088 C   0  0  0  0  0  0
   27.8619   18.9593   35.3124 C   0  0  0  0  0  0
   28.5487   18.0380   36.0975 C   0  0  0  0  0  0
   29.9169   18.2373   36.4019 C   0  0  0  0  0  0
   30.6367   17.3333   37.2203 C   0  0  0  0  0  0
   31.9819   17.5521   37.5015 C   0  0  0  0  0  0
   32.6364   18.6679   36.9910 C   0  0  0  0  0  0
   31.9567   19.5829   36.1902 C   0  0  0  0  0  0
   30.5871   19.3850   35.8786 C   0  0  0  0  0  0
   29.8610   20.2986   35.0735 C   0  0  0  0  0  0
   19.5577   18.5326   36.3892 H   0  0  0  0  0  0
   20.4697   20.0372   36.5270 H   0  0  0  0  0  0
   21.1445   18.5332   37.1642 H   0  0  0  0  0  0
   22.2068   18.0096   33.0097 H   0  0  0  0  0  0
   21.7238   20.3534   32.4296 H   0  0  0  0  0  0
   23.3167   20.8835   32.9445 H   0  0  0  0  0  0
   22.7579   18.9382   30.6285 H   0  0  0  0  0  0
   23.1973   20.5789   30.3841 H   0  0  0  0  0  0
   24.1482   17.3322   31.4097 H   0  0  0  0  0  0
   25.7856   17.5252   31.8236 H   0  0  0  0  0  0
   25.0090   18.8817   33.9021 H   0  0  0  0  0  0
   24.3579   17.2571   33.9076 H   0  0  0  0  0  0
   27.3138   18.9110   31.9954 H   0  0  0  0  0  0
   27.7260   20.5037   29.3909 H   0  0  0  0  0  0
   29.0117   19.7111   30.2125 H   0  0  0  0  0  0
   25.6051   18.8746   28.7675 H   0  0  0  0  0  0
   25.1617   16.7547   27.6190 H   0  0  0  0  0  0
   26.9028   15.0681   27.4092 H   0  0  0  0  0  0
   29.6072   17.6021   29.6033 H   0  0  0  0  0  0
   28.2198   13.8113   28.3471 H   0  0  0  0  0  0
   31.5003   15.1216   27.8648 H   0  0  0  0  0  0
   30.9370   16.7238   28.2791 H   0  0  0  0  0  0
   28.4734   21.5570   31.6288 H   0  0  0  0  0  0
   26.8134   18.7993   35.1193 H   0  0  0  0  0  0
   28.0357   17.1723   36.4921 H   0  0  0  0  0  0
   30.1345   16.4677   37.6286 H   0  0  0  0  0  0
   32.5168   16.8504   38.1257 H   0  0  0  0  0  0
   33.6811   18.8262   37.2163 H   0  0  0  0  0  0
   32.4735   20.4479   35.8002 H   0  0  0  0  0  0
   30.3632   21.1737   34.6867 H   0  0  0  0  0  0
  1  2  1  0  0  0
  1 38  1  0  0  0
  1 39  1  0  0  0
  1 40  1  0  0  0
  2  3  1  0  0  0
  3  4  2  0  0  0
  3  5  1  0  0  0
  5 10  1  0  0  0
  5  6  1  0  0  0
  5 41  1  0  0  0
  6  7  1  0  0  0
  6 42  1  0  0  0
  6 43  1  0  0  0
  7  8  1  0  0  0
  7 44  1  0  0  0
  7 45  1  0  0  0
  8  9  1  0  0  0
  8 11  1  0  0  0
  9 10  1  0  0  0
  9 46  1  0  0  0
  9 47  1  0  0  0
 10 48  1  0  0  0
 10 49  1  0  0  0
 11 12  2  0  0  0
 11 13  1  0  0  0
 13 14  1  0  0  0
 13 24  1  0  0  0
 13 50  1  0  0  0
 14 15  1  0  0  0
 14 51  1  0  0  0
 14 52  1  0  0  0
 15 20  1  0  0  0
 15 16  2  0  0  0
 16 17  1  0  0  0
 16 53  1  0  0  0
 17 18  2  0  0  0
 17 54  1  0  0  0
 18 19  1  0  0  0
 18 55  1  0  0  0
 19 20  2  0  0  0
 19 21  1  0  0  0
 20 56  1  0  0  0
 21 22  2  3  0  0
 21 23  1  0  0  0
 22 57  1  0  0  0
 23 58  1  0  0  0
 23 59  1  0  0  0
 24 25  1  0  0  0
 24 60  1  0  0  0
 25 26  2  0  0  0
 25 27  2  0  0  0
 25 28  1  0  0  0
 28 37  1  0  0  0
 28 29  2  0  0  0
 29 30  1  0  0  0
 29 61  1  0  0  0
 30 31  2  0  0  0
 30 62  1  0  0  0
 31 36  1  0  0  0
 31 32  1  0  0  0
 32 33  2  0  0  0
 32 63  1  0  0  0
 33 34  1  0  0  0
 33 64  1  0  0  0
 34 35  2  0  0  0
 34 65  1  0  0  0
 35 36  1  0  0  0
 35 66  1  0  0  0
 36 37  2  0  0  0
 37 67  1  0  0  0
M  END
> <s_m_entry_id>
40010

> <s_m_entry_name>
ligand_docking-pose.51

> <s_m_Source_Path>
/home/csk/Desktop/cluster/DUD-E-result/try1

> <s_m_Source_File>
ligand_docking-pose.sdf

> <i_m_Source_File_Index>
51

> <i_lp_mmshare_version>
53161

> <i_f3d_flags>
0

> <r_lp_tautomer_probability>
1

> <s_lp_Force_Field>
OPLS_2005

> <r_lp_Energy>
34.127915

> <b_lp_Chiralities_Consistent>
1

> <s_lp_Variant>
251962-4

> <s_i_glide_gridfile>
glide-grid_2ayw

> <i_i_glide_lignum>
2513

> <i_i_glide_rotatable_bonds>
10

> <r_i_docking_score>
-7.26292648814074

> <r_i_glide_ligand_efficiency>
-0.19629531049029

> <r_i_glide_ligand_efficiency_sa>
-0.654099522204072

> <r_i_glide_ligand_efficiency_ln>
-1.57515848812317

> <r_i_glide_gscore>
-7.26292648814074

> <r_i_glide_lipo>
-2.64162522853605

> <r_i_glide_hbond>
-0.817915745718256

> <r_i_glide_metal>
0

> <r_i_glide_rewards>
-0.323589703524217

> <r_i_glide_evdw>
-45.4555702209473

> <r_i_glide_ecoul>
-10.9428863525391

> <r_i_glide_erotb>
0.527059650966266

> <r_i_glide_esite>
-0.0926439974002592

> <r_i_glide_emodel>
-74.2991029461413

> <r_i_glide_energy>
-56.3984565734863

> <r_i_glide_einternal>
10.6040334701538

> <i_i_glide_confnum>
18

> <i_i_glide_posenum>
56

> <r_i_glide_eff_state_penalty>
0

> <s_user_duplicate_titles>
251962

> <s_m_subgroup_title>
dock_pv

> <s_m_subgroupid>
dock_pv1

> <b_m_subgroup_collapsed>
0

$$$$
139471
                    3D
 Schrodinger Suite 2021-1.
 66 69  0  0  1  0            999 V2000
   20.3051   24.0196   24.4594 C   0  0  0  0  0  0
   21.2184   22.9706   24.3723 C   0  0  0  0  0  0
   21.3978   22.1226   25.4626 C   0  0  0  0  0  0
   20.6621   22.3230   26.6338 C   0  0  0  0  0  0
   19.7564   23.3833   26.7174 C   0  0  0  0  0  0
   19.5733   24.2299   25.6261 C   0  0  0  0  0  0
   20.8486   21.3823   27.8155 C   0  0  0  0  0  0
   22.5080   21.6284   28.6803 S   0  0  0  0  0  0
   22.5684   22.9998   29.1986 O   0  0  0  0  0  0
   23.5503   21.1042   27.7894 O   0  0  0  0  0  0
   22.3960   20.5318   30.0573 N   0  0  2  0  0  0
   23.0463   20.8648   31.3617 C   0  0  1  0  0  0
   22.6201   19.7352   32.3359 C   0  0  0  0  0  0
   23.3306   19.8841   33.6662 C   0  0  0  0  0  0
   22.7031   19.5939   34.8825 C   0  0  0  0  0  0
   23.3873   19.7333   36.0862 C   0  0  0  0  0  0
   24.7130   20.1531   36.0813 C   0  0  0  0  0  0
   25.3467   20.4493   34.8762 C   0  0  0  0  0  0
   24.6617   20.3380   33.6514 C   0  0  0  0  0  0
   25.2742   20.6432   32.3990 N   0  0  0  0  0  0
   24.6027   20.9553   31.2408 C   0  0  0  0  0  0
   25.1713   21.2574   30.1910 O   0  0  0  0  0  0
   26.7590   20.5312   32.2988 C   0  0  0  0  0  0
   27.1184   19.1035   31.8618 C   0  0  0  0  0  0
   27.1535   18.1964   32.6920 O   0  0  0  0  0  0
   27.3329   18.9185   30.5473 N   0  0  0  0  0  0
   27.4046   17.6118   29.8908 C   0  0  1  0  0  0
   25.9995   17.0663   29.5087 C   0  0  0  0  0  0
   26.0631   15.7352   28.7391 C   0  0  0  0  0  0
   27.0734   15.8065   27.5955 C   0  0  0  0  0  0
   28.3907   16.1475   28.1498 N   0  0  0  0  0  0
   28.4516   17.4926   28.7389 C   0  0  1  0  0  0
   28.3524   18.5330   27.7931 O   0  0  0  0  0  0
   29.4534   15.2005   28.1933 C   0  0  0  0  0  0
   29.2715   13.9613   28.1910 N   0  0  0  0  0  0
   30.7530   15.7330   28.2267 N   0  0  0  0  0  0
   27.8240   16.9319   30.6309 H   0  0  0  0  0  0
   20.1663   24.6758   23.6130 H   0  0  0  0  0  0
   21.7836   22.8130   23.4646 H   0  0  0  0  0  0
   22.1035   21.3084   25.3942 H   0  0  0  0  0  0
   19.1909   23.5520   27.6217 H   0  0  0  0  0  0
   18.8713   25.0502   25.6854 H   0  0  0  0  0  0
   20.7992   20.3416   27.4925 H   0  0  0  0  0  0
   20.0748   21.5335   28.5681 H   0  0  0  0  0  0
   22.6315   19.5752   29.7794 H   0  0  0  0  0  0
   22.6850   21.8281   31.7245 H   0  0  0  0  0  0
   22.8648   18.7525   31.9241 H   0  0  0  0  0  0
   21.5426   19.7494   32.4917 H   0  0  0  0  0  0
   21.6788   19.2513   34.8962 H   0  0  0  0  0  0
   22.8958   19.5072   37.0217 H   0  0  0  0  0  0
   25.2503   20.2536   37.0129 H   0  0  0  0  0  0
   26.3677   20.7892   34.9364 H   0  0  0  0  0  0
   27.3044   20.8279   33.1896 H   0  0  0  0  0  0
   27.1482   21.2472   31.5737 H   0  0  0  0  0  0
   27.1876   19.7043   29.9296 H   0  0  0  0  0  0
   25.5038   17.7971   28.8670 H   0  0  0  0  0  0
   25.3725   16.9391   30.3925 H   0  0  0  0  0  0
   25.0799   15.4839   28.3464 H   0  0  0  0  0  0
   26.3256   14.9040   29.3908 H   0  0  0  0  0  0
   26.7755   16.5848   26.8962 H   0  0  0  0  0  0
   27.0860   14.8759   27.0261 H   0  0  0  0  0  0
   29.4280   17.6542   29.1998 H   0  0  0  0  0  0
   29.2148   18.6365   27.3805 H   0  0  0  0  0  0
   28.2952   13.7134   28.2227 H   0  0  0  0  0  0
   31.5569   15.1294   28.0748 H   0  0  0  0  0  0
   30.9443   16.7224   28.1744 H   0  0  0  0  0  0
  1  6  1  0  0  0
  1  2  2  0  0  0
  1 38  1  0  0  0
  2  3  1  0  0  0
  2 39  1  0  0  0
  3  4  2  0  0  0
  3 40  1  0  0  0
  4  5  1  0  0  0
  4  7  1  0  0  0
  5  6  2  0  0  0
  5 41  1  0  0  0
  6 42  1  0  0  0
  7  8  1  0  0  0
  7 43  1  0  0  0
  7 44  1  0  0  0
  8  9  2  0  0  0
  8 10  2  0  0  0
  8 11  1  0  0  0
 11 12  1  0  0  0
 11 45  1  0  0  0
 12 21  1  0  0  0
 12 13  1  0  0  0
 12 46  1  0  0  0
 13 14  1  0  0  0
 13 47  1  0  0  0
 13 48  1  0  0  0
 14 19  2  0  0  0
 14 15  1  0  0  0
 15 16  2  0  0  0
 15 49  1  0  0  0
 16 17  1  0  0  0
 16 50  1  0  0  0
 17 18  2  0  0  0
 17 51  1  0  0  0
 18 19  1  0  0  0
 18 52  1  0  0  0
 19 20  1  0  0  0
 20 21  1  0  0  0
 20 23  1  0  0  0
 21 22  2  0  0  0
 23 24  1  0  0  0
 23 53  1  0  0  0
 23 54  1  0  0  0
 24 25  2  0  0  0
 24 26  1  0  0  0
 26 27  1  0  0  0
 26 55  1  0  0  0
 27 37  1  0  0  0
 27 32  1  0  0  0
 27 28  1  0  0  0
 28 29  1  0  0  0
 28 56  1  0  0  0
 28 57  1  0  0  0
 29 30  1  0  0  0
 29 58  1  0  0  0
 29 59  1  0  0  0
 30 31  1  0  0  0
 30 60  1  0  0  0
 30 61  1  0  0  0
 31 32  1  0  0  0
 31 34  1  0  0  0
 32 33  1  0  0  0
 32 62  1  0  0  0
 33 63  1  0  0  0
 34 35  2  3  0  0
 34 36  1  0  0  0
 35 64  1  0  0  0
 36 65  1  0  0  0
 36 66  1  0  0  0
M  END
> <s_m_entry_id>
40012

> <s_m_entry_name>
ligand_docking-pose.53

> <s_m_Source_Path>
/home/csk/Desktop/cluster/DUD-E-result/try1

> <s_m_Source_File>
ligand_docking-pose.sdf

> <i_m_Source_File_Index>
53

> <i_lp_mmshare_version>
53161

> <i_f3d_flags>
0

> <r_lp_tautomer_probability>
1

> <s_lp_Force_Field>
OPLS_2005

> <r_lp_Energy>
31.775132

> <b_lp_Chiralities_Consistent>
1

> <s_lp_Variant>
139471-4

> <s_i_glide_gridfile>
glide-grid_2ayw

> <i_i_glide_lignum>
738

> <i_i_glide_rotatable_bonds>
10

> <r_i_docking_score>
-7.21088373674832

> <r_i_glide_ligand_efficiency>
-0.200302326020787

> <r_i_glide_ligand_efficiency_sa>
-0.661383707514983

> <r_i_glide_ligand_efficiency_ln>
-1.57322001579363

> <r_i_glide_gscore>
-7.21088373674832

> <r_i_glide_lipo>
-1.93443108896469

> <r_i_glide_hbond>
-0.801198614681216

> <r_i_glide_metal>
0

> <r_i_glide_rewards>
-0.930539790268299

> <r_i_glide_evdw>
-42.991153717041

> <r_i_glide_ecoul>
-12.3626270294189

> <r_i_glide_erotb>
0.542256264068172

> <r_i_glide_esite>
-0.0830187666373927

> <r_i_glide_emodel>
-69.2852278028441

> <r_i_glide_energy>
-55.35378074646

> <r_i_glide_einternal>
14.7909526824951

> <i_i_glide_confnum>
7

> <i_i_glide_posenum>
147

> <r_i_glide_eff_state_penalty>
0

> <s_user_duplicate_titles>
139471

> <s_m_subgroup_title>
dock_pv

> <s_m_subgroupid>
dock_pv1

> <b_m_subgroup_collapsed>
0

$$$$
251921
                    3D
 Schrodinger Suite 2021-1.
 55 57  0  0  1  0            999 V2000
   25.8433   18.1866   29.3155 C   0  0  0  0  0  0
   26.5352   17.1892   28.6408 C   0  0  0  0  0  0
   27.8926   16.9328   28.9090 C   0  0  0  0  0  0
   28.5304   17.7365   29.8708 C   0  0  0  0  0  0
   27.8335   18.7244   30.5604 C   0  0  0  0  0  0
   26.4801   18.9416   30.3018 C   0  0  0  0  0  0
   25.7576   19.9808   31.0564 C   0  0  0  0  0  0
   24.5592   19.8747   31.6899 C   0  0  0  0  0  0
   23.7454   18.5717   31.8251 C   0  0  0  0  0  0
   23.6638   17.9489   33.2391 C   0  0  0  0  0  0
   22.5162   18.4306   34.1552 C   0  0  0  0  0  0
   22.6683   19.8411   34.7558 C   0  0  0  0  0  0
   22.0359   20.9791   33.9211 C   0  0  0  0  0  0
   22.5327   21.1649   32.4862 C   0  0  0  0  0  0
   21.6805   21.3297   31.4406 C   0  0  0  0  0  0
   21.9390   21.6251   30.0088 C   0  0  0  0  0  0
   21.0632   21.1175   29.0478 C   0  0  0  0  0  0
   21.2094   21.4572   27.7038 C   0  0  0  0  0  0
   22.2275   22.3320   27.2755 C   0  0  0  0  0  0
   23.1259   22.7981   28.2534 C   0  0  0  0  0  0
   22.9839   22.4549   29.5948 C   0  0  0  0  0  0
   22.3544   22.7852   25.8557 C   0  0  0  0  0  0
   23.1514   23.7062   25.5299 N   0  0  0  0  0  0
   21.5524   22.1328   24.9545 N   0  0  0  0  0  0
   23.9883   21.0857   32.3205 C   0  0  0  0  0  0
   24.6999   22.0073   32.7293 O   0  0  0  0  0  0
   28.6043   15.8443   28.1902 C   0  0  0  0  0  0
   27.9528   14.9329   27.6113 N   0  0  0  0  0  0
   29.9739   15.9469   28.1913 N   0  0  0  0  0  0
   24.8047   18.3610   29.0704 H   0  0  0  0  0  0
   25.9916   16.6259   27.8948 H   0  0  0  0  0  0
   29.5714   17.5880   30.1192 H   0  0  0  0  0  0
   28.3492   19.3082   31.3098 H   0  0  0  0  0  0
   26.2629   20.9376   31.0537 H   0  0  0  0  0  0
   22.7535   18.6853   31.3899 H   0  0  0  0  0  0
   24.2174   17.8058   31.2170 H   0  0  0  0  0  0
   23.5248   16.8735   33.1099 H   0  0  0  0  0  0
   24.6252   18.0450   33.7467 H   0  0  0  0  0  0
   21.5582   18.3359   33.6426 H   0  0  0  0  0  0
   22.4590   17.7291   34.9880 H   0  0  0  0  0  0
   22.1897   19.8510   35.7359 H   0  0  0  0  0  0
   23.7201   20.0511   34.9581 H   0  0  0  0  0  0
   20.9508   20.8553   33.9270 H   0  0  0  0  0  0
   22.2097   21.9231   34.4412 H   0  0  0  0  0  0
   20.6268   21.3004   31.6805 H   0  0  0  0  0  0
   20.2431   20.4764   29.3403 H   0  0  0  0  0  0
   20.4851   21.0527   27.0115 H   0  0  0  0  0  0
   23.9435   23.4564   27.9969 H   0  0  0  0  0  0
   23.6650   22.8880   30.3122 H   0  0  0  0  0  0
   23.6565   24.0884   26.3139 H   0  0  0  0  0  0
   21.6001   22.4106   23.9862 H   0  0  0  0  0  0
   20.9067   21.4054   25.2257 H   0  0  0  0  0  0
   26.9581   15.0362   27.7446 H   0  0  0  0  0  0
   30.5092   15.2958   27.6305 H   0  0  0  0  0  0
   30.4472   16.7617   28.5585 H   0  0  0  0  0  0
  1  6  1  0  0  0
  1  2  2  0  0  0
  1 30  1  0  0  0
  2  3  1  0  0  0
  2 31  1  0  0  0
  3  4  2  0  0  0
  3 27  1  0  0  0
  4  5  1  0  0  0
  4 32  1  0  0  0
  5  6  2  0  0  0
  5 33  1  0  0  0
  6  7  1  0  0  0
  7  8  2  0  0  0
  7 34  1  0  0  0
  8 25  1  0  0  0
  8  9  1  0  0  0
  9 10  1  0  0  0
  9 35  1  0  0  0
  9 36  1  0  0  0
 10 11  1  0  0  0
 10 37  1  0  0  0
 10 38  1  0  0  0
 11 12  1  0  0  0
 11 39  1  0  0  0
 11 40  1  0  0  0
 12 13  1  0  0  0
 12 41  1  0  0  0
 12 42  1  0  0  0
 13 14  1  0  0  0
 13 43  1  0  0  0
 13 44  1  0  0  0
 14 15  2  0  0  0
 14 25  1  0  0  0
 15 16  1  0  0  0
 15 45  1  0  0  0
 16 21  1  0  0  0
 16 17  2  0  0  0
 17 18  1  0  0  0
 17 46  1  0  0  0
 18 19  2  0  0  0
 18 47  1  0  0  0
 19 20  1  0  0  0
 19 22  1  0  0  0
 20 21  2  0  0  0
 20 48  1  0  0  0
 21 49  1  0  0  0
 22 23  2  3  0  0
 22 24  1  0  0  0
 23 50  1  0  0  0
 24 51  1  0  0  0
 24 52  1  0  0  0
 25 26  2  0  0  0
 27 28  2  3  0  0
 27 29  1  0  0  0
 28 53  1  0  0  0
 29 54  1  0  0  0
 29 55  1  0  0  0
M  END
> <s_m_entry_id>
40013

> <s_m_entry_name>
ligand_docking-pose.54

> <s_m_Source_Path>
/home/csk/Desktop/cluster/DUD-E-result/try1

> <s_m_Source_File>
ligand_docking-pose.sdf

> <i_m_Source_File_Index>
54

> <i_lp_mmshare_version>
53161

> <i_f3d_flags>
0

> <r_lp_tautomer_probability>
1

> <s_lp_Force_Field>
OPLS_2005

> <r_lp_Energy>
33.567908

> <b_lp_Chiralities_Consistent>
1

> <s_lp_Variant>
251921-4

> <s_i_glide_gridfile>
glide-grid_2ayw

> <i_i_glide_lignum>
398

> <i_i_glide_rotatable_bonds>
4

> <r_i_docking_score>
-7.18216223009779

> <r_i_glide_ligand_efficiency>
-0.247660766555096

> <r_i_glide_ligand_efficiency_sa>
-0.760892339295426

> <r_i_glide_ligand_efficiency_ln>
-1.64453302677232

> <r_i_glide_gscore>
-7.18216223009779

> <r_i_glide_lipo>
-1.9275071527497

> <r_i_glide_hbond>
-0.685643351996334

> <r_i_glide_metal>
0

> <r_i_glide_rewards>
-1.39496996589589

> <r_i_glide_evdw>
-40.5371894836426

> <r_i_glide_ecoul>
-9.35474586486816

> <r_i_glide_erotb>
0.260606371884655

> <r_i_glide_esite>
-0.00457677742816651

> <r_i_glide_emodel>
-68.5872627280812

> <r_i_glide_energy>
-49.8919353485107

> <r_i_glide_einternal>
2.5434582233429

> <i_i_glide_confnum>
15

> <i_i_glide_posenum>
15

> <r_i_glide_eff_state_penalty>
0

> <s_user_duplicate_titles>
251921

> <s_m_subgroup_title>
dock_pv

> <s_m_subgroupid>
dock_pv1

> <b_m_subgroup_collapsed>
0

$$$$
25197
                    3D
 Schrodinger Suite 2021-1.
 61 64  0  0  1  0            999 V2000
   21.9376   22.9385   20.4253 C   0  0  0  0  0  0
   21.6716   24.0925   21.3807 C   0  0  0  0  0  0
   21.4945   25.2266   20.8563 N   0  0  0  0  0  0
   21.6477   23.7762   22.7358 N   0  0  0  0  0  0
   21.3391   24.7477   23.7912 C   0  0  0  0  0  0
   21.2388   23.8907   25.0521 C   0  0  0  0  0  0
   22.2731   22.8112   24.7930 C   0  0  2  0  0  0
   22.0532   22.4915   23.3172 C   0  0  0  0  0  0
   22.0496   21.6256   25.5567 O   0  0  0  0  0  0
   22.3193   21.5942   26.9116 C   0  0  0  0  0  0
   21.9786   20.4202   27.5814 C   0  0  0  0  0  0
   22.2045   20.2911   28.9488 C   0  0  0  0  0  0
   22.7758   21.3452   29.6698 C   0  0  0  0  0  0
   23.1367   22.5178   28.9960 C   0  0  0  0  0  0
   22.9142   22.6419   27.6283 C   0  0  0  0  0  0
   22.9883   21.2191   31.1883 C   0  0  1  0  0  0
   24.4742   21.4148   31.6281 C   0  0  0  0  0  0
   25.5089   20.4627   31.0205 C   0  0  0  0  0  0
   26.8563   20.8303   31.0222 C   0  0  0  0  0  0
   27.8323   19.9997   30.4733 C   0  0  0  0  0  0
   27.4724   18.7541   29.9038 C   0  0  0  0  0  0
   28.4299   17.8761   29.3366 C   0  0  0  0  0  0
   28.0614   16.6360   28.7787 C   0  0  0  0  0  0
   26.6960   16.3029   28.7911 C   0  0  0  0  0  0
   25.7378   17.1294   29.3590 C   0  0  0  0  0  0
   26.1035   18.3674   29.9148 C   0  0  0  0  0  0
   25.1401   19.2264   30.4844 C   0  0  0  0  0  0
   29.0560   15.6821   28.2097 C   0  0  0  0  0  0
   28.6925   14.5493   27.7913 N   0  0  0  0  0  0
   30.3531   16.1292   28.1908 N   0  0  0  0  0  0
   22.0495   22.1925   31.9349 C   0  0  0  0  0  0
   22.3017   23.3859   32.0899 O   0  0  0  0  0  0
   20.9083   21.5820   32.3671 O   0  0  0  0  0  0
   22.6962   20.2165   31.5039 H   0  0  0  0  0  0
   22.9415   22.5385   20.5598 H   0  0  0  0  0  0
   21.8427   23.2352   19.3796 H   0  0  0  0  0  0
   21.2237   22.1336   20.5950 H   0  0  0  0  0  0
   21.3223   25.9372   21.5503 H   0  0  0  0  0  0
   22.1493   25.4766   23.8529 H   0  0  0  0  0  0
   20.3944   25.2552   23.5900 H   0  0  0  0  0  0
   21.4419   24.4955   25.9353 H   0  0  0  0  0  0
   20.2455   23.4532   25.1667 H   0  0  0  0  0  0
   23.2980   23.1470   24.9644 H   0  0  0  0  0  0
   21.2782   21.7335   23.1863 H   0  0  0  0  0  0
   22.9906   22.1339   22.8896 H   0  0  0  0  0  0
   21.5228   19.6074   27.0359 H   0  0  0  0  0  0
   21.9303   19.3661   29.4369 H   0  0  0  0  0  0
   23.5771   23.3444   29.5344 H   0  0  0  0  0  0
   23.2053   23.5617   27.1470 H   0  0  0  0  0  0
   24.7811   22.4386   31.4055 H   0  0  0  0  0  0
   24.5552   21.3065   32.7117 H   0  0  0  0  0  0
   27.1566   21.7745   31.4534 H   0  0  0  0  0  0
   28.8698   20.3016   30.4808 H   0  0  0  0  0  0
   29.4628   18.1920   29.3607 H   0  0  0  0  0  0
   26.3407   15.3684   28.3822 H   0  0  0  0  0  0
   24.7065   16.8133   29.3904 H   0  0  0  0  0  0
   24.1141   18.8941   30.4924 H   0  0  0  0  0  0
   27.7067   14.3983   27.9354 H   0  0  0  0  0  0
   31.0515   15.5282   27.7672 H   0  0  0  0  0  0
   30.6414   17.0345   28.5444 H   0  0  0  0  0  0
   20.8824   20.6496   32.1481 H   0  0  0  0  0  0
  1  2  1  0  0  0
  1 35  1  0  0  0
  1 36  1  0  0  0
  1 37  1  0  0  0
  2  3  2  3  0  0
  2  4  1  0  0  0
  3 38  1  0  0  0
  4  8  1  0  0  0
  4  5  1  0  0  0
  5  6  1  0  0  0
  5 39  1  0  0  0
  5 40  1  0  0  0
  6  7  1  0  0  0
  6 41  1  0  0  0
  6 42  1  0  0  0
  7  8  1  0  0  0
  7  9  1  0  0  0
  7 43  1  0  0  0
  8 44  1  0  0  0
  8 45  1  0  0  0
  9 10  1  0  0  0
 10 15  1  0  0  0
 10 11  2  0  0  0
 11 12  1  0  0  0
 11 46  1  0  0  0
 12 13  2  0  0  0
 12 47  1  0  0  0
 13 14  1  0  0  0
 13 16  1  0  0  0
 14 15  2  0  0  0
 14 48  1  0  0  0
 15 49  1  0  0  0
 16 34  1  0  0  0
 16 17  1  0  0  0
 16 31  1  0  0  0
 17 18  1  0  0  0
 17 50  1  0  0  0
 17 51  1  0  0  0
 18 27  1  0  0  0
 18 19  2  0  0  0
 19 20  1  0  0  0
 19 52  1  0  0  0
 20 21  2  0  0  0
 20 53  1  0  0  0
 21 26  1  0  0  0
 21 22  1  0  0  0
 22 23  2  0  0  0
 22 54  1  0  0  0
 23 24  1  0  0  0
 23 28  1  0  0  0
 24 25  2  0  0  0
 24 55  1  0  0  0
 25 26  1  0  0  0
 25 56  1  0  0  0
 26 27  2  0  0  0
 27 57  1  0  0  0
 28 29  2  3  0  0
 28 30  1  0  0  0
 29 58  1  0  0  0
 30 59  1  0  0  0
 30 60  1  0  0  0
 31 32  2  0  0  0
 31 33  1  0  0  0
 33 61  1  0  0  0
M  END
> <s_m_entry_id>
40014

> <s_m_entry_name>
ligand_docking-pose.55

> <s_m_Source_Path>
/home/csk/Desktop/cluster/DUD-E-result/try1

> <s_m_Source_File>
ligand_docking-pose.sdf

> <i_m_Source_File_Index>
55

> <i_lp_mmshare_version>
53161

> <i_f3d_flags>
0

> <r_lp_tautomer_probability>
0.499900269896156

> <s_lp_Force_Field>
OPLS_2005

> <r_lp_Energy>
39.301109

> <b_lp_Chiralities_Consistent>
1

> <s_lp_Variant>
25197-7

> <s_i_glide_gridfile>
glide-grid_2ayw

> <i_i_glide_lignum>
1836

> <i_i_glide_rotatable_bonds>
9

> <r_i_docking_score>
-7.1712620540773

> <r_i_glide_ligand_efficiency>
-0.217310971335676

> <r_i_glide_ligand_efficiency_sa>
-0.697032400031526

> <r_i_glide_ligand_efficiency_ln>
-1.59485155001907

> <r_i_glide_gscore>
-7.1712620540773

> <r_i_glide_lipo>
-2.82285347371985

> <r_i_glide_hbond>
-0.293935572007956

> <r_i_glide_metal>
0

> <r_i_glide_rewards>
-1.24396652097733

> <r_i_glide_evdw>
-43.6139106750488

> <r_i_glide_ecoul>
-8.06307697296143

> <r_i_glide_erotb>
0.607298764600379

> <r_i_glide_esite>
-0.0276481722758843

> <r_i_glide_emodel>
-69.9262759492722

> <r_i_glide_energy>
-51.6769876480103

> <r_i_glide_einternal>
7.51954936981201

> <i_i_glide_confnum>
8

> <i_i_glide_posenum>
230

> <r_i_glide_eff_state_penalty>
0

> <s_user_duplicate_titles>
25197

> <s_m_subgroup_title>
dock_pv

> <s_m_subgroupid>
dock_pv1

> <b_m_subgroup_collapsed>
0

$$$$
151951
                    3D
 Schrodinger Suite 2021-1.
 53 55  0  0  1  0            999 V2000
   30.4602   23.4956   27.7908 C   0  0  0  0  0  0
   30.5012   22.8118   29.0352 O   0  0  0  0  0  0
   29.9512   23.3567   30.1397 C   0  0  0  0  0  0
   29.3329   24.4213   30.1912 O   0  0  0  0  0  0
   30.1920   22.5302   31.4055 C   0  0  0  0  0  0
   29.3210   21.2511   31.6008 C   0  0  2  0  0  0
   29.5235   20.1110   30.5861 C   0  0  0  0  0  0
   28.1072   19.6849   30.2814 C   0  0  0  0  0  0
   27.2773   20.5343   30.7281 N   0  0  0  0  0  0
   27.9382   21.5699   31.4380 O   0  0  0  0  0  0
   27.7818   18.4422   29.5515 C   0  0  0  0  0  0
   26.4656   18.1386   29.1819 C   0  0  0  0  0  0
   26.1732   16.9365   28.5438 C   0  0  0  0  0  0
   27.1906   16.0246   28.2676 C   0  0  0  0  0  0
   28.5269   16.2865   28.6202 C   0  0  0  0  0  0
   28.7866   17.5118   29.2590 C   0  0  0  0  0  0
   29.6045   15.2924   28.3503 C   0  0  0  0  0  0
   29.3282   14.1344   27.9474 N   0  0  0  0  0  0
   30.8863   15.7329   28.5731 N   0  0  0  0  0  0
   29.5839   20.6863   33.0342 C   0  0  0  0  0  0
   30.7529   20.5328   33.3972 O   0  0  0  0  0  0
   28.5048   20.3616   33.7814 N   0  0  0  0  0  0
   28.4317   19.6574   34.9985 C   0  0  0  0  0  0
   29.4911   18.9303   35.5596 C   0  0  0  0  0  0
   29.2987   18.2013   36.7309 C   0  0  0  0  0  0
   28.0509   18.1856   37.3732 C   0  0  0  0  0  0
   27.0043   18.9334   36.8106 C   0  0  0  0  0  0
   27.1901   19.6512   35.6325 C   0  0  0  0  0  0
   27.8361   17.4130   38.6137 C   0  0  0  0  0  0
   27.2140   17.9221   39.5822 N   0  0  0  0  0  0
   28.3529   16.1429   38.5656 N   0  0  0  0  0  0
   30.5085   22.7775   26.9730 H   0  0  0  0  0  0
   29.5530   24.0853   27.6694 H   0  0  0  0  0  0
   31.3100   24.1713   27.7017 H   0  0  0  0  0  0
   30.0322   23.2017   32.2502 H   0  0  0  0  0  0
   31.2494   22.2701   31.4371 H   0  0  0  0  0  0
   30.1008   19.2847   31.0047 H   0  0  0  0  0  0
   30.0171   20.4238   29.6692 H   0  0  0  0  0  0
   25.6550   18.8205   29.3974 H   0  0  0  0  0  0
   25.1535   16.7007   28.2731 H   0  0  0  0  0  0
   26.9234   15.0980   27.7784 H   0  0  0  0  0  0
   29.7963   17.7254   29.5680 H   0  0  0  0  0  0
   30.1701   13.5966   27.7858 H   0  0  0  0  0  0
   31.6463   15.1482   28.2316 H   0  0  0  0  0  0
   31.0935   16.7192   28.6930 H   0  0  0  0  0  0
   27.6133   20.6432   33.3984 H   0  0  0  0  0  0
   30.4597   18.8809   35.0858 H   0  0  0  0  0  0
   30.1323   17.6428   37.1348 H   0  0  0  0  0  0
   26.0260   18.9475   37.2734 H   0  0  0  0  0  0
   26.3570   20.1987   35.2144 H   0  0  0  0  0  0
   26.9218   18.8687   39.3953 H   0  0  0  0  0  0
   28.2452   15.5365   39.3643 H   0  0  0  0  0  0
   28.7731   15.7791   37.7226 H   0  0  0  0  0  0
  1  2  1  0  0  0
  1 32  1  0  0  0
  1 33  1  0  0  0
  1 34  1  0  0  0
  2  3  1  0  0  0
  3  4  2  0  0  0
  3  5  1  0  0  0
  5  6  1  0  0  0
  5 35  1  0  0  0
  5 36  1  0  0  0
  6 10  1  0  0  0
  6  7  1  0  0  0
  6 20  1  0  0  0
  7  8  1  0  0  0
  7 37  1  0  0  0
  7 38  1  0  0  0
  8  9  2  0  0  0
  8 11  1  0  0  0
  9 10  1  0  0  0
 11 16  1  0  0  0
 11 12  2  0  0  0
 12 13  1  0  0  0
 12 39  1  0  0  0
 13 14  2  0  0  0
 13 40  1  0  0  0
 14 15  1  0  0  0
 14 41  1  0  0  0
 15 16  2  0  0  0
 15 17  1  0  0  0
 16 42  1  0  0  0
 17 18  2  3  0  0
 17 19  1  0  0  0
 18 43  1  0  0  0
 19 44  1  0  0  0
 19 45  1  0  0  0
 20 21  2  0  0  0
 20 22  1  0  0  0
 22 23  1  0  0  0
 22 46  1  0  0  0
 23 28  1  0  0  0
 23 24  2  0  0  0
 24 25  1  0  0  0
 24 47  1  0  0  0
 25 26  2  0  0  0
 25 48  1  0  0  0
 26 27  1  0  0  0
 26 29  1  0  0  0
 27 28  2  0  0  0
 27 49  1  0  0  0
 28 50  1  0  0  0
 29 30  2  3  0  0
 29 31  1  0  0  0
 30 51  1  0  0  0
 31 52  1  0  0  0
 31 53  1  0  0  0
M  END
> <s_m_entry_id>
40015

> <s_m_entry_name>
ligand_docking-pose.56

> <s_m_Source_Path>
/home/csk/Desktop/cluster/DUD-E-result/try1

> <s_m_Source_File>
ligand_docking-pose.sdf

> <i_m_Source_File_Index>
56

> <i_lp_mmshare_version>
53161

> <i_f3d_flags>
0

> <r_lp_tautomer_probability>
1

> <s_lp_Force_Field>
OPLS_2005

> <r_lp_Energy>
18.799288

> <b_lp_Chiralities_Consistent>
1

> <s_lp_Variant>
151951-3

> <s_i_glide_gridfile>
glide-grid_2ayw

> <i_i_glide_lignum>
2548

> <i_i_glide_rotatable_bonds>
9

> <r_i_docking_score>
-7.16184297981185

> <r_i_glide_ligand_efficiency>
-0.231027192897156

> <r_i_glide_ligand_efficiency_sa>
-0.725744353112689

> <r_i_glide_ligand_efficiency_ln>
-1.61521507607586

> <r_i_glide_gscore>
-7.16184297981185

> <r_i_glide_lipo>
-1.87988620496037

> <r_i_glide_hbond>
-0.985841222688951

> <r_i_glide_metal>
0

> <r_i_glide_rewards>
-0.985877020193706

> <r_i_glide_evdw>
-38.9434700012207

> <r_i_glide_ecoul>
-12.8581056594849

> <r_i_glide_erotb>
0.666071917167468

> <r_i_glide_esite>
-0.100421100152519

> <r_i_glide_emodel>
-71.1903561641231

> <r_i_glide_energy>
-51.8015756607056

> <r_i_glide_einternal>
5.69923162460327

> <i_i_glide_confnum>
30

> <i_i_glide_posenum>
114

> <r_i_glide_eff_state_penalty>
0

> <s_user_duplicate_titles>
151951

> <s_m_subgroup_title>
dock_pv

> <s_m_subgroupid>
dock_pv1

> <b_m_subgroup_collapsed>
0

$$$$
129736
                    3D
 Schrodinger Suite 2021-1.
 71 73  0  0  1  0            999 V2000
   27.0714   15.4777   28.5878 C   0  0  0  0  0  0
   25.9623   16.2674   28.8525 C   0  0  0  0  0  0
   26.1131   17.6356   29.0885 C   0  0  0  0  0  0
   27.3775   18.2084   28.9828 C   0  0  0  0  0  0
   28.4930   17.4150   28.7184 C   0  0  0  0  0  0
   28.3675   16.0246   28.5387 C   0  0  0  0  0  0
   29.5321   15.1289   28.2949 C   0  0  0  0  0  0
   29.3737   13.8895   28.1903 N   0  0  0  0  0  0
   30.7530   15.7359   28.1911 N   0  0  0  0  0  0
   25.0524   18.4583   29.3950 O   0  0  0  0  0  0
   24.0825   17.9824   30.3345 C   0  0  0  0  0  0
   24.5469   18.2018   31.7864 C   0  0  0  0  0  0
   24.8076   19.6826   32.1636 C   0  0  2  0  0  0
   25.2622   19.8368   33.6372 C   0  0  0  0  0  0
   24.1200   19.7697   34.6583 C   0  0  0  0  0  0
   23.0263   20.7691   34.2773 C   0  0  0  0  0  0
   22.5040   20.5649   32.8421 C   0  0  0  0  0  0
   23.6550   20.6022   31.9046 N   0  0  0  0  0  0
   23.6289   21.2876   30.7214 C   0  0  0  0  0  0
   24.6064   21.3332   29.9624 O   0  0  0  0  0  0
   22.3295   22.0067   30.2288 C   0  0  1  0  0  0
   22.3284   23.5393   30.4997 C   0  0  0  0  0  0
   23.4251   24.4136   29.8213 C   0  0  0  0  0  0
   23.1098   24.7724   28.3467 C   0  0  0  0  0  0
   24.2599   25.5667   27.6942 C   0  0  0  0  0  0
   24.5865   26.8418   28.4983 C   0  0  0  0  0  0
   24.8185   26.5490   29.9958 C   0  0  0  0  0  0
   23.6610   25.7287   30.6020 C   0  0  0  0  0  0
   22.1394   21.6740   28.7933 N   0  0  2  0  0  0
   21.2543   20.5292   28.5702 C   0  0  0  0  0  0
   21.1041   20.3041   27.0667 C   0  0  0  0  0  0
   21.9525   19.7380   26.3822 O   0  0  0  0  0  0
   19.9336   20.8077   26.5913 O   0  0  0  0  0  0
   25.6675   19.9961   31.5686 H   0  0  0  0  0  0
   21.4627   21.6256   30.7681 H   0  0  0  0  0  0
   26.9069   14.4183   28.4467 H   0  0  0  0  0  0
   24.9938   15.7913   28.8799 H   0  0  0  0  0  0
   27.4979   19.2701   29.1375 H   0  0  0  0  0  0
   29.4587   17.8997   28.6752 H   0  0  0  0  0  0
   30.2564   13.4374   27.9945 H   0  0  0  0  0  0
   31.5379   15.1850   27.8484 H   0  0  0  0  0  0
   30.8982   16.7193   28.3827 H   0  0  0  0  0  0
   23.8136   16.9351   30.1914 H   0  0  0  0  0  0
   23.1596   18.5330   30.1609 H   0  0  0  0  0  0
   25.4457   17.6109   31.9617 H   0  0  0  0  0  0
   23.7851   17.7863   32.4464 H   0  0  0  0  0  0
   25.7513   20.8067   33.7424 H   0  0  0  0  0  0
   26.0296   19.0997   33.8772 H   0  0  0  0  0  0
   24.4957   19.9860   35.6604 H   0  0  0  0  0  0
   23.7088   18.7608   34.6963 H   0  0  0  0  0  0
   23.3973   21.7894   34.3879 H   0  0  0  0  0  0
   22.1962   20.6818   34.9782 H   0  0  0  0  0  0
   21.7919   21.3779   32.7057 H   0  0  0  0  0  0
   22.0031   19.5983   32.7582 H   0  0  0  0  0  0
   22.3626   23.6841   31.5804 H   0  0  0  0  0  0
   21.3507   23.9302   30.2078 H   0  0  0  0  0  0
   24.3683   23.8738   29.8349 H   0  0  0  0  0  0
   22.1742   25.3295   28.2903 H   0  0  0  0  0  0
   22.9286   23.8762   27.7587 H   0  0  0  0  0  0
   23.9968   25.8296   26.6704 H   0  0  0  0  0  0
   25.1480   24.9359   27.6235 H   0  0  0  0  0  0
   23.7593   27.5463   28.3959 H   0  0  0  0  0  0
   25.4590   27.3382   28.0741 H   0  0  0  0  0  0
   24.9378   27.4860   30.5423 H   0  0  0  0  0  0
   25.7535   26.0028   30.1198 H   0  0  0  0  0  0
   23.8839   25.5057   31.6457 H   0  0  0  0  0  0
   22.7428   26.3159   30.6327 H   0  0  0  0  0  0
   23.0583   21.3788   28.4764 H   0  0  0  0  0  0
   21.6578   19.6235   29.0161 H   0  0  0  0  0  0
   20.2694   20.6904   29.0169 H   0  0  0  0  0  0
   19.8029   20.5626   25.6573 H   0  0  0  0  0  0
  1  6  1  0  0  0
  1  2  2  0  0  0
  1 36  1  0  0  0
  2  3  1  0  0  0
  2 37  1  0  0  0
  3  4  2  0  0  0
  3 10  1  0  0  0
  4  5  1  0  0  0
  4 38  1  0  0  0
  5  6  2  0  0  0
  5 39  1  0  0  0
  6  7  1  0  0  0
  7  8  2  3  0  0
  7  9  1  0  0  0
  8 40  1  0  0  0
  9 41  1  0  0  0
  9 42  1  0  0  0
 10 11  1  0  0  0
 11 12  1  0  0  0
 11 43  1  0  0  0
 11 44  1  0  0  0
 12 13  1  0  0  0
 12 45  1  0  0  0
 12 46  1  0  0  0
 13 34  1  0  0  0
 13 18  1  0  0  0
 13 14  1  0  0  0
 14 15  1  0  0  0
 14 47  1  0  0  0
 14 48  1  0  0  0
 15 16  1  0  0  0
 15 49  1  0  0  0
 15 50  1  0  0  0
 16 17  1  0  0  0
 16 51  1  0  0  0
 16 52  1  0  0  0
 17 18  1  0  0  0
 17 53  1  0  0  0
 17 54  1  0  0  0
 18 19  1  0  0  0
 19 20  2  0  0  0
 19 21  1  0  0  0
 21 35  1  0  0  0
 21 22  1  0  0  0
 21 29  1  0  0  0
 22 23  1  0  0  0
 22 55  1  0  0  0
 22 56  1  0  0  0
 23 28  1  0  0  0
 23 24  1  0  0  0
 23 57  1  0  0  0
 24 25  1  0  0  0
 24 58  1  0  0  0
 24 59  1  0  0  0
 25 26  1  0  0  0
 25 60  1  0  0  0
 25 61  1  0  0  0
 26 27  1  0  0  0
 26 62  1  0  0  0
 26 63  1  0  0  0
 27 28  1  0  0  0
 27 64  1  0  0  0
 27 65  1  0  0  0
 28 66  1  0  0  0
 28 67  1  0  0  0
 29 30  1  0  0  0
 29 68  1  0  0  0
 30 31  1  0  0  0
 30 69  1  0  0  0
 30 70  1  0  0  0
 31 32  2  0  0  0
 31 33  1  0  0  0
 33 71  1  0  0  0
M  END
> <s_m_entry_id>
40016

> <s_m_entry_name>
ligand_docking-pose.57

> <s_m_Source_Path>
/home/csk/Desktop/cluster/DUD-E-result/try1

> <s_m_Source_File>
ligand_docking-pose.sdf

> <i_m_Source_File_Index>
57

> <i_lp_mmshare_version>
53161

> <i_f3d_flags>
0

> <r_lp_tautomer_probability>
1

> <s_lp_Force_Field>
OPLS_2005

> <r_lp_Energy>
49.852389

> <b_lp_Chiralities_Consistent>
1

> <s_lp_Variant>
129736-1

> <s_i_glide_gridfile>
glide-grid_2ayw

> <i_i_glide_lignum>
669

> <i_i_glide_rotatable_bonds>
13

> <r_i_docking_score>
-7.15595133003445

> <r_i_glide_ligand_efficiency>
-0.216847010001044

> <r_i_glide_ligand_efficiency_sa>
-0.695544228124638

> <r_i_glide_ligand_efficiency_ln>
-1.59144652426663

> <r_i_glide_gscore>
-7.15595133003445

> <r_i_glide_lipo>
-1.88980865597623

> <r_i_glide_hbond>
-1.1627069262684

> <r_i_glide_metal>
0

> <r_i_glide_rewards>
-0.290006413577477

> <r_i_glide_evdw>
-33.4679374694824

> <r_i_glide_ecoul>
-20.1229953765869

> <r_i_glide_erotb>
0.956405587753116

> <r_i_glide_esite>
-0.0779887420033018

> <r_i_glide_emodel>
-67.8011131446635

> <r_i_glide_energy>
-53.5909328460693

> <r_i_glide_einternal>
14.9291534423828

> <i_i_glide_confnum>
50

> <i_i_glide_posenum>
301

> <r_i_glide_eff_state_penalty>
0

> <s_user_duplicate_titles>
129736

> <s_m_subgroup_title>
dock_pv

> <s_m_subgroupid>
dock_pv1

> <b_m_subgroup_collapsed>
0

$$$$
273703
                    3D
 Schrodinger Suite 2021-1.
 62 65  0  0  1  0            999 V2000
   26.6798   16.2555   28.7920 C   0  0  0  0  0  0
   25.7043   17.0954   29.3256 C   0  0  0  0  0  0
   26.0271   18.3844   29.7482 C   0  0  0  0  0  0
   27.3530   18.8173   29.6238 C   0  0  0  0  0  0
   28.3328   17.9618   29.1078 C   0  0  0  0  0  0
   28.0270   16.6502   28.6916 C   0  0  0  0  0  0
   29.0549   15.6859   28.1911 C   0  0  0  0  0  0
   28.7377   14.5343   27.7928 N   0  0  0  0  0  0
   30.3507   16.1331   28.1994 N   0  0  0  0  0  0
   27.7035   20.0641   30.0180 F   0  0  0  0  0  0
   24.9498   19.2803   30.3791 C   0  0  0  0  0  0
   23.8573   19.7322   29.3902 C   0  0  0  0  0  0
   23.9531   19.5280   28.1822 O   0  0  0  0  0  0
   22.6330   20.4546   29.9913 C   0  0  0  0  0  0
   21.6357   20.8605   28.9634 N   0  0  0  0  0  0
   20.7980   19.7950   28.3832 C   0  0  0  0  0  0
   19.2990   19.8824   28.7182 C   0  0  0  0  0  0
   18.5312   20.8613   27.8222 C   0  0  0  0  0  0
   19.0179   22.3138   27.9254 C   0  0  0  0  0  0
   20.4979   22.5865   27.5586 C   0  0  1  0  0  0
   21.6190   22.1654   28.5509 C   0  0  0  0  0  0
   22.4211   23.0139   28.9500 O   0  0  0  0  0  0
   20.8558   22.1258   26.1902 N   0  0  2  0  0  0
   20.8811   23.2838   24.8698 S   0  0  0  0  0  0
   21.1539   22.5340   23.6398 O   0  0  0  0  0  0
   19.6851   24.1256   24.9893 O   0  0  0  0  0  0
   22.3093   24.3023   25.2147 C   0  0  0  0  0  0
   23.5538   23.9825   24.6526 C   0  0  0  0  0  0
   24.6878   24.7266   24.9869 C   0  0  0  0  0  0
   24.5471   25.7973   25.8625 C   0  0  0  0  0  0
   23.3253   26.1393   26.4104 C   0  0  0  0  0  0
   22.1947   25.3884   26.0945 C   0  0  0  0  0  0
   23.5499   27.2619   27.3691 C   0  0  0  0  0  0
   25.0078   27.6428   27.0751 C   0  0  0  0  0  0
   25.5806   26.5842   26.3020 O   0  0  0  0  0  0
   20.5564   23.6748   27.5490 H   0  0  0  0  0  0
   26.3762   15.2629   28.4897 H   0  0  0  0  0  0
   24.6938   16.7264   29.4205 H   0  0  0  0  0  0
   29.3437   18.3397   29.0506 H   0  0  0  0  0  0
   29.5741   14.0327   27.5229 H   0  0  0  0  0  0
   31.0817   15.5459   27.8113 H   0  0  0  0  0  0
   30.6200   17.0412   28.5656 H   0  0  0  0  0  0
   24.4792   18.7326   31.1961 H   0  0  0  0  0  0
   25.4163   20.1646   30.8123 H   0  0  0  0  0  0
   22.1494   19.7722   30.6875 H   0  0  0  0  0  0
   22.9887   21.3105   30.5686 H   0  0  0  0  0  0
   20.8868   19.8430   27.2978 H   0  0  0  0  0  0
   21.2244   18.8157   28.5910 H   0  0  0  0  0  0
   18.8586   18.8952   28.5912 H   0  0  0  0  0  0
   19.1533   20.1340   29.7698 H   0  0  0  0  0  0
   18.5911   20.5327   26.7836 H   0  0  0  0  0  0
   17.4725   20.8211   28.0808 H   0  0  0  0  0  0
   18.3844   22.9261   27.2797 H   0  0  0  0  0  0
   18.8290   22.6787   28.9377 H   0  0  0  0  0  0
   20.5063   21.1994   25.9291 H   0  0  0  0  0  0
   23.6519   23.1451   23.9760 H   0  0  0  0  0  0
   25.6499   24.4729   24.5630 H   0  0  0  0  0  0
   21.2401   25.6285   26.5397 H   0  0  0  0  0  0
   22.8824   28.1136   27.2309 H   0  0  0  0  0  0
   23.4583   26.9219   28.4028 H   0  0  0  0  0  0
   25.5818   27.8533   27.9787 H   0  0  0  0  0  0
   25.0200   28.5452   26.4589 H   0  0  0  0  0  0
  1  6  1  0  0  0
  1  2  2  0  0  0
  1 37  1  0  0  0
  2  3  1  0  0  0
  2 38  1  0  0  0
  3  4  2  0  0  0
  3 11  1  0  0  0
  4  5  1  0  0  0
  4 10  1  0  0  0
  5  6  2  0  0  0
  5 39  1  0  0  0
  6  7  1  0  0  0
  7  8  2  3  0  0
  7  9  1  0  0  0
  8 40  1  0  0  0
  9 41  1  0  0  0
  9 42  1  0  0  0
 11 12  1  0  0  0
 11 43  1  0  0  0
 11 44  1  0  0  0
 12 13  2  0  0  0
 12 14  1  0  0  0
 14 15  1  0  0  0
 14 45  1  0  0  0
 14 46  1  0  0  0
 15 21  1  0  0  0
 15 16  1  0  0  0
 16 17  1  0  0  0
 16 47  1  0  0  0
 16 48  1  0  0  0
 17 18  1  0  0  0
 17 49  1  0  0  0
 17 50  1  0  0  0
 18 19  1  0  0  0
 18 51  1  0  0  0
 18 52  1  0  0  0
 19 20  1  0  0  0
 19 53  1  0  0  0
 19 54  1  0  0  0
 20 36  1  0  0  0
 20 21  1  0  0  0
 20 23  1  0  0  0
 21 22  2  0  0  0
 23 24  1  0  0  0
 23 55  1  0  0  0
 24 25  2  0  0  0
 24 26  2  0  0  0
 24 27  1  0  0  0
 27 32  1  0  0  0
 27 28  2  0  0  0
 28 29  1  0  0  0
 28 56  1  0  0  0
 29 30  2  0  0  0
 29 57  1  0  0  0
 30 35  1  0  0  0
 30 31  1  0  0  0
 31 32  2  0  0  0
 31 33  1  0  0  0
 32 58  1  0  0  0
 33 34  1  0  0  0
 33 59  1  0  0  0
 33 60  1  0  0  0
 34 35  1  0  0  0
 34 61  1  0  0  0
 34 62  1  0  0  0
M  END
> <s_m_entry_id>
40017

> <s_m_entry_name>
ligand_docking-pose.58

> <s_m_Source_Path>
/home/csk/Desktop/cluster/DUD-E-result/try1

> <s_m_Source_File>
ligand_docking-pose.sdf

> <i_m_Source_File_Index>
58

> <i_lp_mmshare_version>
53161

> <i_f3d_flags>
0

> <r_lp_tautomer_probability>
0.999999960000001

> <s_lp_Force_Field>
OPLS_2005

> <r_lp_Energy>
30.041505

> <b_lp_Chiralities_Consistent>
1

> <s_lp_Variant>
273703-1

> <s_i_glide_gridfile>
glide-grid_2ayw

> <i_i_glide_lignum>
667

> <i_i_glide_rotatable_bonds>
8

> <r_i_docking_score>
-7.15306527460315

> <r_i_glide_ligand_efficiency>
-0.20437329356009

> <r_i_glide_ligand_efficiency_sa>
-0.668518594474421

> <r_i_glide_ligand_efficiency_ln>
-1.57025658150574

> <r_i_glide_gscore>
-7.15306527460315

> <r_i_glide_lipo>
-2.09173136773243

> <r_i_glide_hbond>
-0.68142590284648

> <r_i_glide_metal>
0

> <r_i_glide_rewards>
-0.853560629646987

> <r_i_glide_evdw>
-43.8630180358887

> <r_i_glide_ecoul>
-12.4878301620483

> <r_i_glide_erotb>
0.566339541506067

> <r_i_glide_esite>
-0.0263614897816403

> <r_i_glide_emodel>
-76.1718921558631

> <r_i_glide_energy>
-56.350848197937

> <r_i_glide_einternal>
6.09287977218628

> <i_i_glide_confnum>
13

> <i_i_glide_posenum>
68

> <r_i_glide_eff_state_penalty>
0

> <s_user_duplicate_titles>
273703

> <s_m_subgroup_title>
dock_pv

> <s_m_subgroupid>
dock_pv1

> <b_m_subgroup_collapsed>
0

$$$$
291223
                    3D
 Schrodinger Suite 2021-1.
 64 68  0  0  1  0            999 V2000
   23.8335   20.1389   33.6885 C   0  0  0  0  0  0
   25.1691   19.8538   34.3419 C   0  0  0  0  0  0
   25.2643   19.3289   35.5363 N   0  0  0  0  0  0
   26.6077   19.2144   35.7596 C   0  0  0  0  0  0
   27.2697   18.7174   36.8873 C   0  0  0  0  0  0
   28.6639   18.7104   36.8824 C   0  0  0  0  0  0
   29.4044   19.1783   35.7830 C   0  0  0  0  0  0
   28.7554   19.6696   34.6461 C   0  0  0  0  0  0
   27.3557   19.6869   34.6545 C   0  0  0  0  0  0
   26.3967   20.1161   33.7532 N   0  0  0  0  0  0
   26.6385   20.7167   32.4412 C   0  0  0  0  0  0
   26.5823   19.7197   31.2920 C   0  0  0  0  0  0
   25.4062   19.5820   30.5561 C   0  0  0  0  0  0
   25.3150   18.6573   29.5217 C   0  0  0  0  0  0
   26.4244   17.8455   29.1936 C   0  0  0  0  0  0
   26.3529   16.8785   28.1706 C   0  0  0  0  0  0
   27.4478   16.0713   27.8918 C   0  0  0  0  0  0
   28.6602   16.1920   28.5881 C   0  0  0  0  0  0
   28.7516   17.1814   29.5816 C   0  0  0  0  0  0
   27.6421   17.9973   29.9196 C   0  0  0  0  0  0
   27.6996   18.9435   30.9744 C   0  0  0  0  0  0
   29.7784   15.2644   28.2858 C   0  0  0  0  0  0
   29.5531   14.1330   27.7921 N   0  0  0  0  0  0
   31.0314   15.7330   28.5783 N   0  0  0  0  0  0
   30.7848   19.2045   35.7283 O   0  0  0  0  0  0
   31.5700   18.8182   36.8551 C   0  0  0  0  0  0
   31.7003   17.2930   36.9897 C   0  0  0  0  0  0
   32.6014   16.9156   38.1843 C   0  0  0  0  0  0
   33.9205   17.5680   38.0888 N   0  0  0  0  0  0
   33.8666   19.0347   37.9083 C   0  0  0  0  0  0
   32.9708   19.4189   36.7103 C   0  0  0  0  0  0
   35.0804   16.8602   38.4140 C   0  0  0  0  0  0
   35.1626   15.7333   38.9848 N   0  0  0  0  0  0
   36.4046   17.5029   38.0276 C   0  0  0  0  0  0
   23.0022   19.9803   34.3761 H   0  0  0  0  0  0
   23.7584   21.1672   33.3363 H   0  0  0  0  0  0
   23.6563   19.4819   32.8382 H   0  0  0  0  0  0
   26.7171   18.3525   37.7413 H   0  0  0  0  0  0
   29.1557   18.3284   37.7627 H   0  0  0  0  0  0
   29.3280   20.0229   33.8035 H   0  0  0  0  0  0
   25.9192   21.5225   32.2916 H   0  0  0  0  0  0
   27.6178   21.1977   32.4564 H   0  0  0  0  0  0
   24.5429   20.1863   30.7928 H   0  0  0  0  0  0
   24.3918   18.5455   28.9717 H   0  0  0  0  0  0
   25.4385   16.7542   27.6088 H   0  0  0  0  0  0
   27.3378   15.3319   27.1107 H   0  0  0  0  0  0
   29.6624   17.3040   30.1518 H   0  0  0  0  0  0
   28.6146   19.0414   31.5412 H   0  0  0  0  0  0
   30.4209   13.6426   27.6055 H   0  0  0  0  0  0
   31.8098   15.2028   28.1884 H   0  0  0  0  0  0
   31.1834   16.7245   28.7392 H   0  0  0  0  0  0
   31.1398   19.2413   37.7655 H   0  0  0  0  0  0
   32.1460   16.8763   36.0868 H   0  0  0  0  0  0
   30.7277   16.8200   37.1209 H   0  0  0  0  0  0
   32.7205   15.8318   38.1901 H   0  0  0  0  0  0
   32.1659   17.2268   39.1354 H   0  0  0  0  0  0
   33.4407   19.4212   38.8355 H   0  0  0  0  0  0
   34.8467   19.4950   37.7899 H   0  0  0  0  0  0
   32.9160   20.5056   36.6422 H   0  0  0  0  0  0
   33.4373   19.0528   35.7963 H   0  0  0  0  0  0
   36.1202   15.4314   39.0920 H   0  0  0  0  0  0
   36.3767   17.8547   36.9951 H   0  0  0  0  0  0
   37.2463   16.8110   38.1028 H   0  0  0  0  0  0
   36.6274   18.3537   38.6723 H   0  0  0  0  0  0
  1  2  1  0  0  0
  1 35  1  0  0  0
  1 36  1  0  0  0
  1 37  1  0  0  0
  2 10  1  0  0  0
  2  3  2  0  0  0
  3  4  1  0  0  0
  4  9  2  0  0  0
  4  5  1  0  0  0
  5  6  2  0  0  0
  5 38  1  0  0  0
  6  7  1  0  0  0
  6 39  1  0  0  0
  7  8  2  0  0  0
  7 25  1  0  0  0
  8  9  1  0  0  0
  8 40  1  0  0  0
  9 10  1  0  0  0
 10 11  1  0  0  0
 11 12  1  0  0  0
 11 41  1  0  0  0
 11 42  1  0  0  0
 12 21  1  0  0  0
 12 13  2  0  0  0
 13 14  1  0  0  0
 13 43  1  0  0  0
 14 15  2  0  0  0
 14 44  1  0  0  0
 15 20  1  0  0  0
 15 16  1  0  0  0
 16 17  2  0  0  0
 16 45  1  0  0  0
 17 18  1  0  0  0
 17 46  1  0  0  0
 18 19  2  0  0  0
 18 22  1  0  0  0
 19 20  1  0  0  0
 19 47  1  0  0  0
 20 21  2  0  0  0
 21 48  1  0  0  0
 22 23  2  3  0  0
 22 24  1  0  0  0
 23 49  1  0  0  0
 24 50  1  0  0  0
 24 51  1  0  0  0
 25 26  1  0  0  0
 26 31  1  0  0  0
 26 27  1  0  0  0
 26 52  1  0  0  0
 27 28  1  0  0  0
 27 53  1  0  0  0
 27 54  1  0  0  0
 28 29  1  0  0  0
 28 55  1  0  0  0
 28 56  1  0  0  0
 29 30  1  0  0  0
 29 32  1  0  0  0
 30 31  1  0  0  0
 30 57  1  0  0  0
 30 58  1  0  0  0
 31 59  1  0  0  0
 31 60  1  0  0  0
 32 33  2  3  0  0
 32 34  1  0  0  0
 33 61  1  0  0  0
 34 62  1  0  0  0
 34 63  1  0  0  0
 34 64  1  0  0  0
M  END
> <s_m_entry_id>
40018

> <s_m_entry_name>
ligand_docking-pose.59

> <s_m_Source_Path>
/home/csk/Desktop/cluster/DUD-E-result/try1

> <s_m_Source_File>
ligand_docking-pose.sdf

> <i_m_Source_File_Index>
59

> <i_lp_mmshare_version>
53161

> <i_f3d_flags>
0

> <r_lp_tautomer_probability>
0.499900269896156

> <s_lp_Force_Field>
OPLS_2005

> <r_lp_Energy>
26.461089

> <b_lp_Chiralities_Consistent>
1

> <s_lp_Variant>
291223-1

> <s_i_glide_gridfile>
glide-grid_2ayw

> <i_i_glide_lignum>
1383

> <i_i_glide_rotatable_bonds>
6

> <r_i_docking_score>
-7.12087644232066

> <r_i_glide_ligand_efficiency>
-0.209437542421196

> <r_i_glide_ligand_efficiency_sa>
-0.678496333260718

> <r_i_glide_ligand_efficiency_ln>
-1.5732013399274

> <r_i_glide_gscore>
-7.12087644232066

> <r_i_glide_lipo>
-2.24926373280101

> <r_i_glide_hbond>
-0.997169301361302

> <r_i_glide_metal>
0

> <r_i_glide_rewards>
-0.395575969534333

> <r_i_glide_evdw>
-37.4120216369629

> <r_i_glide_ecoul>
-12.7851247787476

> <r_i_glide_erotb>
0.388753820463767

> <r_i_glide_esite>
-0.0792514604275004

> <r_i_glide_emodel>
-63.7684662555843

> <r_i_glide_energy>
-50.1971464157104

> <r_i_glide_einternal>
14.4953317642212

> <i_i_glide_confnum>
1

> <i_i_glide_posenum>
59

> <r_i_glide_eff_state_penalty>
0

> <s_user_duplicate_titles>
291223

> <s_m_subgroup_title>
dock_pv

> <s_m_subgroupid>
dock_pv1

> <b_m_subgroup_collapsed>
0

$$$$
74777
                    3D
 Schrodinger Suite 2021-1.
 52 54  0  0  1  0            999 V2000
   19.9037   21.5609   32.5002 C   0  0  0  0  0  0
   21.1324   21.6429   33.4103 C   0  0  0  0  0  0
   22.2928   21.2710   32.6784 O   0  0  0  0  0  0
   23.4886   21.1384   33.3001 C   0  0  0  0  0  0
   23.6412   21.2507   34.5197 O   0  0  0  0  0  0
   24.5783   20.6825   32.3825 C   0  0  0  0  0  0
   25.6290   19.9145   32.9124 C   0  0  0  0  0  0
   26.6418   19.4402   32.0791 C   0  0  0  0  0  0
   26.5893   19.7611   30.7250 C   0  0  0  0  0  0
   25.6144   20.5336   30.1911 N   0  0  0  0  0  0
   24.6232   20.9846   31.0056 C   0  0  0  0  0  0
   23.6864   21.7946   30.3943 O   0  0  0  0  0  0
   23.0300   21.3483   29.2674 C   0  0  0  0  0  0
   22.3442   20.1343   29.2798 C   0  0  0  0  0  0
   21.6178   19.7332   28.1648 C   0  0  0  0  0  0
   21.5972   20.5249   27.0189 C   0  0  0  0  0  0
   22.2975   21.7467   26.9557 C   0  0  0  0  0  0
   23.0022   22.1386   28.1152 C   0  0  0  0  0  0
   22.3030   22.6045   25.7319 C   0  0  0  0  0  0
   22.9705   23.6715   25.6926 N   0  0  0  0  0  0
   21.5527   22.1338   24.6802 N   0  0  0  0  0  0
   27.5210   19.2744   29.8413 O   0  0  0  0  0  0
   27.3390   18.0141   29.3102 C   0  0  0  0  0  0
   26.0722   17.4597   29.0831 C   0  0  0  0  0  0
   25.9531   16.1676   28.5907 C   0  0  0  0  0  0
   27.0863   15.4161   28.3231 C   0  0  0  0  0  0
   28.3758   15.9335   28.5391 C   0  0  0  0  0  0
   28.4740   17.2571   29.0116 C   0  0  0  0  0  0
   29.5611   15.0758   28.2957 C   0  0  0  0  0  0
   29.4391   13.8307   28.1910 N   0  0  0  0  0  0
   30.7531   15.7343   28.1927 N   0  0  0  0  0  0
   19.0124   21.9072   33.0238 H   0  0  0  0  0  0
   20.0293   22.1767   31.6083 H   0  0  0  0  0  0
   19.7189   20.5347   32.1816 H   0  0  0  0  0  0
   20.9983   20.9836   34.2703 H   0  0  0  0  0  0
   21.2500   22.6592   33.7914 H   0  0  0  0  0  0
   25.6542   19.6576   33.9639 H   0  0  0  0  0  0
   27.4403   18.8252   32.4677 H   0  0  0  0  0  0
   22.3530   19.5185   30.1674 H   0  0  0  0  0  0
   21.0628   18.8059   28.1916 H   0  0  0  0  0  0
   21.0178   20.1603   26.1832 H   0  0  0  0  0  0
   23.5424   23.0749   28.1358 H   0  0  0  0  0  0
   22.8914   24.1400   24.8031 H   0  0  0  0  0  0
   21.5153   22.6619   23.8224 H   0  0  0  0  0  0
   20.9076   21.3632   24.7912 H   0  0  0  0  0  0
   25.1723   18.0177   29.2958 H   0  0  0  0  0  0
   24.9776   15.7319   28.4393 H   0  0  0  0  0  0
   26.9361   14.4117   27.9544 H   0  0  0  0  0  0
   29.4379   17.7046   29.2092 H   0  0  0  0  0  0
   28.4995   13.5059   28.3551 H   0  0  0  0  0  0
   31.5602   15.1957   27.8731 H   0  0  0  0  0  0
   30.8534   16.7339   28.3017 H   0  0  0  0  0  0
  1  2  1  0  0  0
  1 32  1  0  0  0
  1 33  1  0  0  0
  1 34  1  0  0  0
  2  3  1  0  0  0
  2 35  1  0  0  0
  2 36  1  0  0  0
  3  4  1  0  0  0
  4  5  2  0  0  0
  4  6  1  0  0  0
  6 11  1  0  0  0
  6  7  2  0  0  0
  7  8  1  0  0  0
  7 37  1  0  0  0
  8  9  2  0  0  0
  8 38  1  0  0  0
  9 10  1  0  0  0
  9 22  1  0  0  0
 10 11  2  0  0  0
 11 12  1  0  0  0
 12 13  1  0  0  0
 13 18  1  0  0  0
 13 14  2  0  0  0
 14 15  1  0  0  0
 14 39  1  0  0  0
 15 16  2  0  0  0
 15 40  1  0  0  0
 16 17  1  0  0  0
 16 41  1  0  0  0
 17 18  2  0  0  0
 17 19  1  0  0  0
 18 42  1  0  0  0
 19 20  2  3  0  0
 19 21  1  0  0  0
 20 43  1  0  0  0
 21 44  1  0  0  0
 21 45  1  0  0  0
 22 23  1  0  0  0
 23 28  1  0  0  0
 23 24  2  0  0  0
 24 25  1  0  0  0
 24 46  1  0  0  0
 25 26  2  0  0  0
 25 47  1  0  0  0
 26 27  1  0  0  0
 26 48  1  0  0  0
 27 28  2  0  0  0
 27 29  1  0  0  0
 28 49  1  0  0  0
 29 30  2  3  0  0
 29 31  1  0  0  0
 30 50  1  0  0  0
 31 51  1  0  0  0
 31 52  1  0  0  0
M  END
> <s_m_entry_id>
40019

> <s_m_entry_name>
ligand_docking-pose.60

> <s_m_Source_Path>
/home/csk/Desktop/cluster/DUD-E-result/try1

> <s_m_Source_File>
ligand_docking-pose.sdf

> <i_m_Source_File_Index>
60

> <i_lp_mmshare_version>
53161

> <i_f3d_flags>
0

> <r_lp_tautomer_probability>
1

> <s_lp_Force_Field>
OPLS_2005

> <r_lp_Energy>
14.711792

> <b_lp_Chiralities_Consistent>
1

> <s_lp_Variant>
74777-3

> <s_i_glide_gridfile>
glide-grid_2ayw

> <i_i_glide_lignum>
1978

> <i_i_glide_rotatable_bonds>
9

> <r_i_docking_score>
-7.12010515157868

> <r_i_glide_ligand_efficiency>
-0.229680811341248

> <r_i_glide_ligand_efficiency_sa>
-0.721514856147063

> <r_i_glide_ligand_efficiency_ln>
-1.60580191669846

> <r_i_glide_gscore>
-7.12010515157868

> <r_i_glide_lipo>
-2.46011151223152

> <r_i_glide_hbond>
-0.780223629230155

> <r_i_glide_metal>
0

> <r_i_glide_rewards>
-0.859527757462149

> <r_i_glide_evdw>
-39.5258636474609

> <r_i_glide_ecoul>
-10.9734926223755

> <r_i_glide_erotb>
0.674721814484407

> <r_i_glide_esite>
-0.0726469914098907

> <r_i_glide_emodel>
-64.2700018983341

> <r_i_glide_energy>
-50.4993562698364

> <r_i_glide_einternal>
9.8714427947998

> <i_i_glide_confnum>
13

> <i_i_glide_posenum>
81

> <r_i_glide_eff_state_penalty>
0

> <s_user_duplicate_titles>
74777

> <s_m_subgroup_title>
dock_pv

> <s_m_subgroupid>
dock_pv1

> <b_m_subgroup_collapsed>
0

$$$$
85059
                    3D
 Schrodinger Suite 2021-1.
 52 54  0  0  1  0            999 V2000
   22.8564   22.5683   28.5744 C   0  0  0  0  0  0
   22.0683   21.4661   28.9055 C   0  0  0  0  0  0
   21.3216   20.8407   27.9072 C   0  0  0  0  0  0
   21.3600   21.3121   26.5973 C   0  0  0  0  0  0
   22.1433   22.4267   26.2417 C   0  0  0  0  0  0
   22.9005   23.0325   27.2622 C   0  0  0  0  0  0
   22.1719   22.9711   24.8507 C   0  0  0  0  0  0
   23.0584   23.7884   24.4840 N   0  0  0  0  0  0
   21.1575   22.5329   24.0355 N   0  0  0  0  0  0
   21.9515   20.9693   30.2957 C   0  0  0  0  0  0
   22.8814   20.6486   31.2400 C   0  0  0  0  0  0
   24.3378   20.6640   30.9499 C   0  0  0  0  0  0
   24.7528   20.6840   29.7911 O   0  0  0  0  0  0
   25.3251   20.6875   32.0409 C   0  0  0  0  0  0
   26.4825   19.9729   31.9833 C   0  0  0  0  0  0
   27.0384   18.9821   31.0223 C   0  0  0  0  0  0
   26.2768   18.1357   30.2084 C   0  0  0  0  0  0
   26.9009   17.2243   29.3546 C   0  0  0  0  0  0
   28.3025   17.1008   29.3017 C   0  0  0  0  0  0
   29.0432   17.9547   30.1345 C   0  0  0  0  0  0
   28.4272   18.8808   30.9670 C   0  0  0  0  0  0
   28.9576   16.0736   28.4306 C   0  0  0  0  0  0
   28.2852   15.2033   27.8237 N   0  0  0  0  0  0
   30.3301   16.1330   28.3561 N   0  0  0  0  0  0
   25.0989   21.6639   33.1967 C   0  0  0  0  0  0
   24.1073   21.1744   34.2646 C   0  0  0  0  0  0
   22.6463   21.0813   33.7934 C   0  0  0  0  0  0
   22.4046   20.1323   32.6051 C   0  0  0  0  0  0
   23.4316   23.0745   29.3356 H   0  0  0  0  0  0
   20.7020   19.9862   28.1429 H   0  0  0  0  0  0
   20.7659   20.7865   25.8646 H   0  0  0  0  0  0
   23.5185   23.8953   27.0615 H   0  0  0  0  0  0
   23.7283   24.0003   25.2064 H   0  0  0  0  0  0
   21.1231   22.8719   23.0862 H   0  0  0  0  0  0
   20.5053   21.8201   24.3329 H   0  0  0  0  0  0
   20.9178   20.8830   30.5967 H   0  0  0  0  0  0
   27.1470   20.1304   32.8217 H   0  0  0  0  0  0
   25.1980   18.1546   30.2400 H   0  0  0  0  0  0
   26.2725   16.5862   28.7483 H   0  0  0  0  0  0
   30.1160   17.8869   30.1918 H   0  0  0  0  0  0
   29.0496   19.5006   31.5966 H   0  0  0  0  0  0
   28.9450   14.6110   27.3464 H   0  0  0  0  0  0
   30.8364   15.4776   27.7719 H   0  0  0  0  0  0
   30.8202   16.9835   28.6252 H   0  0  0  0  0  0
   26.0533   21.8562   33.6896 H   0  0  0  0  0  0
   24.7881   22.6383   32.8153 H   0  0  0  0  0  0
   24.4309   20.2026   34.6414 H   0  0  0  0  0  0
   24.1523   21.8490   35.1208 H   0  0  0  0  0  0
   22.0403   20.7435   34.6355 H   0  0  0  0  0  0
   22.2736   22.0771   33.5473 H   0  0  0  0  0  0
   21.3298   19.9515   32.5644 H   0  0  0  0  0  0
   22.8400   19.1514   32.8068 H   0  0  0  0  0  0
  1  6  1  0  0  0
  1  2  2  0  0  0
  1 29  1  0  0  0
  2  3  1  0  0  0
  2 10  1  0  0  0
  3  4  2  0  0  0
  3 30  1  0  0  0
  4  5  1  0  0  0
  4 31  1  0  0  0
  5  6  2  0  0  0
  5  7  1  0  0  0
  6 32  1  0  0  0
  7  8  2  3  0  0
  7  9  1  0  0  0
  8 33  1  0  0  0
  9 34  1  0  0  0
  9 35  1  0  0  0
 10 11  2  0  0  0
 10 36  1  0  0  0
 11 28  1  0  0  0
 11 12  1  0  0  0
 12 13  2  0  0  0
 12 14  1  0  0  0
 14 15  2  0  0  0
 14 25  1  0  0  0
 15 16  1  0  0  0
 15 37  1  0  0  0
 16 21  1  0  0  0
 16 17  2  0  0  0
 17 18  1  0  0  0
 17 38  1  0  0  0
 18 19  2  0  0  0
 18 39  1  0  0  0
 19 20  1  0  0  0
 19 22  1  0  0  0
 20 21  2  0  0  0
 20 40  1  0  0  0
 21 41  1  0  0  0
 22 23  2  3  0  0
 22 24  1  0  0  0
 23 42  1  0  0  0
 24 43  1  0  0  0
 24 44  1  0  0  0
 25 26  1  0  0  0
 25 45  1  0  0  0
 25 46  1  0  0  0
 26 27  1  0  0  0
 26 47  1  0  0  0
 26 48  1  0  0  0
 27 28  1  0  0  0
 27 49  1  0  0  0
 27 50  1  0  0  0
 28 51  1  0  0  0
 28 52  1  0  0  0
M  END
> <s_m_entry_id>
40021

> <s_m_entry_name>
ligand_docking-pose.62

> <s_m_Source_Path>
/home/csk/Desktop/cluster/DUD-E-result/try1

> <s_m_Source_File>
ligand_docking-pose.sdf

> <i_m_Source_File_Index>
62

> <i_lp_mmshare_version>
53161

> <i_f3d_flags>
0

> <r_lp_tautomer_probability>
1

> <s_lp_Force_Field>
OPLS_2005

> <r_lp_Energy>
31.937473

> <b_lp_Chiralities_Consistent>
1

> <s_lp_Variant>
85059-2

> <s_i_glide_gridfile>
glide-grid_2ayw

> <i_i_glide_lignum>
644

> <i_i_glide_rotatable_bonds>
4

> <r_i_docking_score>
-7.11327326276287

> <r_i_glide_ligand_efficiency>
-0.254045473670103

> <r_i_glide_ligand_efficiency_sa>
-0.771431682844707

> <r_i_glide_ligand_efficiency_ln>
-1.64195232382397

> <r_i_glide_gscore>
-7.11327326276287

> <r_i_glide_lipo>
-1.76300802143901

> <r_i_glide_hbond>
-0.769898652756018

> <r_i_glide_metal>
0

> <r_i_glide_rewards>
-1.57253167852088

> <r_i_glide_evdw>
-34.7435874938965

> <r_i_glide_ecoul>
-10.2124795913696

> <r_i_glide_erotb>
0.278448852013895

> <r_i_glide_esite>
-0.0172324486605931

> <r_i_glide_emodel>
-62.7104870097286

> <r_i_glide_energy>
-44.9560670852661

> <r_i_glide_einternal>
2.45459079742432

> <i_i_glide_confnum>
3

> <i_i_glide_posenum>
289

> <r_i_glide_eff_state_penalty>
0

> <s_user_duplicate_titles>
85059,154833

> <s_m_subgroup_title>
dock_pv

> <s_m_subgroupid>
dock_pv1

> <b_m_subgroup_collapsed>
0

$$$$
325966
                    3D
 Schrodinger Suite 2021-1.
 59 63  0  0  1  0            999 V2000
   20.1358   21.5392   34.7118 C   0  0  0  0  0  0
   20.8238   21.2980   33.5306 C   0  0  0  0  0  0
   22.1794   21.5952   33.4286 C   0  0  0  0  0  0
   22.8951   22.1643   34.5266 C   0  0  0  0  0  0
   22.1703   22.4101   35.7380 C   0  0  0  0  0  0
   20.7915   22.0872   35.8090 C   0  0  0  0  0  0
   22.8415   22.9687   36.8517 C   0  0  0  0  0  0
   24.1929   23.2801   36.7783 C   0  0  0  0  0  0
   24.9097   23.0438   35.6131 C   0  0  0  0  0  0
   24.2967   22.4895   34.4845 C   0  0  0  0  0  0
   25.1282   22.2244   33.2542 C   0  0  0  0  0  0
   24.8772   22.8773   32.2377 O   0  0  0  0  0  0
   26.1302   21.2985   33.3065 N   0  0  0  0  0  0
   26.4716   20.4067   34.4419 C   0  0  0  0  0  0
   25.3473   19.6266   35.1742 C   0  0  0  0  0  0
   24.4843   18.7287   34.3103 C   0  0  0  0  0  0
   24.7962   18.0372   33.1455 C   0  0  0  0  0  0
   23.6709   17.3330   32.8201 N   0  0  0  0  0  0
   22.7591   17.6380   33.7909 C   0  0  0  0  0  0
   23.2329   18.4792   34.6763 N   0  0  0  0  0  0
   27.1031   21.2269   32.1955 C   0  0  0  0  0  0
   26.8415   20.1283   31.1708 C   0  0  0  0  0  0
   25.5794   19.9876   30.5902 C   0  0  0  0  0  0
   25.3258   18.9809   29.6656 C   0  0  0  0  0  0
   26.3551   18.0920   29.2828 C   0  0  0  0  0  0
   26.1289   17.0626   28.3481 C   0  0  0  0  0  0
   27.1479   16.1834   28.0100 C   0  0  0  0  0  0
   28.4327   16.2933   28.5594 C   0  0  0  0  0  0
   28.6780   17.3335   29.4706 C   0  0  0  0  0  0
   27.6521   18.2325   29.8579 C   0  0  0  0  0  0
   27.8737   19.2602   30.8083 C   0  0  0  0  0  0
   29.4687   15.3032   28.1932 C   0  0  0  0  0  0
   29.1538   14.1330   27.8926 N   0  0  0  0  0  0
   30.7529   15.7580   28.2162 N   0  0  0  0  0  0
   23.5517   16.6874   32.0459 H   0  0  0  0  0  0
   19.0844   21.2992   34.7769 H   0  0  0  0  0  0
   20.3027   20.8725   32.6855 H   0  0  0  0  0  0
   22.6878   21.3840   32.4997 H   0  0  0  0  0  0
   20.2483   22.2704   36.7252 H   0  0  0  0  0  0
   22.2946   23.1527   37.7656 H   0  0  0  0  0  0
   24.6920   23.7066   37.6362 H   0  0  0  0  0  0
   25.9609   23.2951   35.5942 H   0  0  0  0  0  0
   27.1896   19.6644   34.0897 H   0  0  0  0  0  0
   27.0237   20.9983   35.1731 H   0  0  0  0  0  0
   25.8262   19.0020   35.9290 H   0  0  0  0  0  0
   24.7371   20.3043   35.7684 H   0  0  0  0  0  0
   25.6971   17.9595   32.5556 H   0  0  0  0  0  0
   21.7771   17.1884   33.7779 H   0  0  0  0  0  0
   28.1058   21.1076   32.6089 H   0  0  0  0  0  0
   27.1392   22.1712   31.6489 H   0  0  0  0  0  0
   24.7739   20.6512   30.8671 H   0  0  0  0  0  0
   24.3400   18.8750   29.2362 H   0  0  0  0  0  0
   25.1533   16.9516   27.9018 H   0  0  0  0  0  0
   26.9227   15.3989   27.3002 H   0  0  0  0  0  0
   29.6521   17.4445   29.9273 H   0  0  0  0  0  0
   28.8545   19.3581   31.2519 H   0  0  0  0  0  0
   29.9811   13.5950   27.6666 H   0  0  0  0  0  0
   31.4930   15.1646   27.8434 H   0  0  0  0  0  0
   30.9750   16.7235   28.4299 H   0  0  0  0  0  0
  1  6  1  0  0  0
  1  2  2  0  0  0
  1 36  1  0  0  0
  2  3  1  0  0  0
  2 37  1  0  0  0
  3  4  2  0  0  0
  3 38  1  0  0  0
  4 10  1  0  0  0
  4  5  1  0  0  0
  5  6  2  0  0  0
  5  7  1  0  0  0
  6 39  1  0  0  0
  7  8  2  0  0  0
  7 40  1  0  0  0
  8  9  1  0  0  0
  8 41  1  0  0  0
  9 10  2  0  0  0
  9 42  1  0  0  0
 10 11  1  0  0  0
 11 12  2  0  0  0
 11 13  1  0  0  0
 13 14  1  0  0  0
 13 21  1  0  0  0
 14 15  1  0  0  0
 14 43  1  0  0  0
 14 44  1  0  0  0
 15 16  1  0  0  0
 15 45  1  0  0  0
 15 46  1  0  0  0
 16 20  1  0  0  0
 16 17  2  0  0  0
 17 18  1  0  0  0
 17 47  1  0  0  0
 18 35  1  0  0  0
 18 19  1  0  0  0
 19 20  2  0  0  0
 19 48  1  0  0  0
 21 22  1  0  0  0
 21 49  1  0  0  0
 21 50  1  0  0  0
 22 31  1  0  0  0
 22 23  2  0  0  0
 23 24  1  0  0  0
 23 51  1  0  0  0
 24 25  2  0  0  0
 24 52  1  0  0  0
 25 30  1  0  0  0
 25 26  1  0  0  0
 26 27  2  0  0  0
 26 53  1  0  0  0
 27 28  1  0  0  0
 27 54  1  0  0  0
 28 29  2  0  0  0
 28 32  1  0  0  0
 29 30  1  0  0  0
 29 55  1  0  0  0
 30 31  2  0  0  0
 31 56  1  0  0  0
 32 33  2  3  0  0
 32 34  1  0  0  0
 33 57  1  0  0  0
 34 58  1  0  0  0
 34 59  1  0  0  0
M  END
> <s_m_entry_id>
40022

> <s_m_entry_name>
ligand_docking-pose.63

> <s_m_Source_Path>
/home/csk/Desktop/cluster/DUD-E-result/try1

> <s_m_Source_File>
ligand_docking-pose.sdf

> <i_m_Source_File_Index>
63

> <i_lp_mmshare_version>
53161

> <i_f3d_flags>
0

> <r_lp_tautomer_probability>
0.499999999999999

> <s_lp_Force_Field>
OPLS_2005

> <r_lp_Energy>
27.104895

> <b_lp_Chiralities_Consistent>
1

> <s_lp_Variant>
325966-1

> <s_i_glide_gridfile>
glide-grid_2ayw

> <i_i_glide_lignum>
93

> <i_i_glide_rotatable_bonds>
8

> <r_i_docking_score>
-7.10271613754425

> <r_i_glide_ligand_efficiency>
-0.208903415810125

> <r_i_glide_ligand_efficiency_sa>
-0.676765970390151

> <r_i_glide_ligand_efficiency_ln>
-1.569189219223

> <r_i_glide_gscore>
-7.10271613754425

> <r_i_glide_lipo>
-2.15675095618924

> <r_i_glide_hbond>
-0.997440257901214

> <r_i_glide_metal>
0

> <r_i_glide_rewards>
-0.764102077429879

> <r_i_glide_evdw>
-34.197883605957

> <r_i_glide_ecoul>
-12.3878765106201

> <r_i_glide_erotb>
0.499924305418217

> <r_i_glide_esite>
-0.116271494551264

> <r_i_glide_emodel>
-65.9453883928552

> <r_i_glide_energy>
-46.5857601165771

> <r_i_glide_einternal>
2.68431830406189

> <i_i_glide_confnum>
27

> <i_i_glide_posenum>
212

> <r_i_glide_eff_state_penalty>
0

> <s_user_duplicate_titles>
325966

> <s_m_subgroup_title>
dock_pv

> <s_m_subgroupid>
dock_pv1

> <b_m_subgroup_collapsed>
0

$$$$
32908
                    3D
 Schrodinger Suite 2021-1.
 62 65  0  0  1  0            999 V2000
   26.3768   21.4557   31.8535 C   0  0  0  0  0  0
   24.9659   22.0681   31.8759 C   0  0  0  0  0  0
   24.1736   21.7780   30.6123 C   0  0  0  0  0  0
   23.9435   22.6920   29.7036 N   0  0  0  0  0  0
   23.2722   22.0438   28.7043 C   0  0  0  0  0  0
   22.8330   22.5419   27.4683 C   0  0  0  0  0  0
   22.1670   21.6675   26.5928 C   0  0  0  0  0  0
   21.8971   20.3575   26.9920 C   0  0  0  0  0  0
   22.3174   19.8357   28.2157 C   0  0  0  0  0  0
   23.0360   20.6938   29.0507 C   0  0  0  0  0  0
   23.6490   20.5401   30.2817 N   0  0  0  0  0  0
   23.7354   19.3021   31.0557 C   0  0  0  0  0  0
   24.6299   18.2115   30.4785 C   0  0  0  0  0  0
   25.6060   18.3558   29.5581 C   0  0  0  0  0  0
   26.4305   17.2525   29.0354 C   0  0  0  0  0  0
   25.8841   15.9845   28.8085 C   0  0  0  0  0  0
   26.6816   14.9284   28.3757 C   0  0  0  0  0  0
   28.0389   15.1230   28.1663 C   0  0  0  0  0  0
   28.5936   16.3773   28.3867 C   0  0  0  0  0  0
   27.7990   17.4446   28.8117 C   0  0  0  0  0  0
   29.9531   16.5329   28.1899 N   0  0  0  0  0  0
   21.7208   21.9919   25.3273 O   0  0  0  0  0  0
   22.1540   23.1683   24.6467 C   0  0  0  0  0  0
   22.6746   22.7692   23.2565 C   0  0  0  0  0  0
   23.0458   24.0216   22.4361 C   0  0  0  0  0  0
   21.8555   24.8833   22.3139 N   0  0  0  0  0  0
   21.3813   25.3709   23.6232 C   0  0  0  0  0  0
   20.9880   24.1629   24.5049 C   0  0  0  0  0  0
   21.2845   25.2896   21.1053 C   0  0  0  0  0  0
   20.3606   26.1339   20.9355 N   0  0  0  0  0  0
   21.8277   24.6515   19.8329 C   0  0  0  0  0  0
   26.9338   21.7298   32.7491 H   0  0  0  0  0  0
   26.3444   20.3674   31.8127 H   0  0  0  0  0  0
   26.9509   21.7981   30.9920 H   0  0  0  0  0  0
   25.0601   23.1453   32.0196 H   0  0  0  0  0  0
   24.4250   21.7164   32.7555 H   0  0  0  0  0  0
   23.0154   23.5758   27.2255 H   0  0  0  0  0  0
   21.3399   19.7240   26.3167 H   0  0  0  0  0  0
   22.0827   18.8248   28.5044 H   0  0  0  0  0  0
   22.7266   18.9135   31.1435 H   0  0  0  0  0  0
   24.0578   19.5171   32.0744 H   0  0  0  0  0  0
   24.4468   17.2275   30.8884 H   0  0  0  0  0  0
   25.8088   19.3330   29.1475 H   0  0  0  0  0  0
   24.8347   15.7988   28.9904 H   0  0  0  0  0  0
   26.2576   13.9471   28.2292 H   0  0  0  0  0  0
   28.6597   14.2935   27.8588 H   0  0  0  0  0  0
   28.2490   18.4101   28.9903 H   0  0  0  0  0  0
   30.4524   17.3536   28.5291 H   0  0  0  0  0  0
   30.4672   15.7916   27.7298 H   0  0  0  0  0  0
   22.9823   23.6657   25.1478 H   0  0  0  0  0  0
   23.5532   22.1333   23.3404 H   0  0  0  0  0  0
   21.9090   22.2181   22.7083 H   0  0  0  0  0  0
   23.7733   24.6021   23.0056 H   0  0  0  0  0  0
   23.5482   23.7759   21.5028 H   0  0  0  0  0  0
   22.2324   25.8848   24.0746 H   0  0  0  0  0  0
   20.5723   26.1001   23.5557 H   0  0  0  0  0  0
   20.1391   23.6685   24.0292 H   0  0  0  0  0  0
   20.6648   24.5189   25.4831 H   0  0  0  0  0  0
   20.0359   26.5245   21.8076 H   0  0  0  0  0  0
   21.7746   23.5637   19.8888 H   0  0  0  0  0  0
   21.2675   24.9483   18.9449 H   0  0  0  0  0  0
   22.8654   24.9405   19.6635 H   0  0  0  0  0  0
  1  2  1  0  0  0
  1 32  1  0  0  0
  1 33  1  0  0  0
  1 34  1  0  0  0
  2  3  1  0  0  0
  2 35  1  0  0  0
  2 36  1  0  0  0
  3 11  1  0  0  0
  3  4  2  0  0  0
  4  5  1  0  0  0
  5 10  2  0  0  0
  5  6  1  0  0  0
  6  7  2  0  0  0
  6 37  1  0  0  0
  7  8  1  0  0  0
  7 22  1  0  0  0
  8  9  2  0  0  0
  8 38  1  0  0  0
  9 10  1  0  0  0
  9 39  1  0  0  0
 10 11  1  0  0  0
 11 12  1  0  0  0
 12 13  1  0  0  0
 12 40  1  0  0  0
 12 41  1  0  0  0
 13 14  2  0  0  0
 13 42  1  0  0  0
 14 15  1  0  0  0
 14 43  1  0  0  0
 15 20  1  0  0  0
 15 16  2  0  0  0
 16 17  1  0  0  0
 16 44  1  0  0  0
 17 18  2  0  0  0
 17 45  1  0  0  0
 18 19  1  0  0  0
 18 46  1  0  0  0
 19 20  2  0  0  0
 19 21  1  0  0  0
 20 47  1  0  0  0
 21 48  1  0  0  0
 21 49  1  0  0  0
 22 23  1  0  0  0
 23 28  1  0  0  0
 23 24  1  0  0  0
 23 50  1  0  0  0
 24 25  1  0  0  0
 24 51  1  0  0  0
 24 52  1  0  0  0
 25 26  1  0  0  0
 25 53  1  0  0  0
 25 54  1  0  0  0
 26 27  1  0  0  0
 26 29  1  0  0  0
 27 28  1  0  0  0
 27 55  1  0  0  0
 27 56  1  0  0  0
 28 57  1  0  0  0
 28 58  1  0  0  0
 29 30  2  3  0  0
 29 31  1  0  0  0
 30 59  1  0  0  0
 31 60  1  0  0  0
 31 61  1  0  0  0
 31 62  1  0  0  0
M  END
> <s_m_entry_id>
40023

> <s_m_entry_name>
ligand_docking-pose.64

> <s_m_Source_Path>
/home/csk/Desktop/cluster/DUD-E-result/try1

> <s_m_Source_File>
ligand_docking-pose.sdf

> <i_m_Source_File_Index>
64

> <i_lp_mmshare_version>
53161

> <i_f3d_flags>
0

> <r_lp_tautomer_probability>
0.499900269896156

> <s_lp_Force_Field>
OPLS_2005

> <r_lp_Energy>
27.985447

> <b_lp_Chiralities_Consistent>
1

> <s_lp_Variant>
32908-2

> <s_i_glide_gridfile>
glide-grid_2ayw

> <i_i_glide_lignum>
1469

> <i_i_glide_rotatable_bonds>
7

> <r_i_docking_score>
-7.0993935352706

> <r_i_glide_ligand_efficiency>
-0.229012694686148

> <r_i_glide_ligand_efficiency_sa>
-0.719416047415595

> <r_i_glide_ligand_efficiency_ln>
-1.60113081248617

> <r_i_glide_gscore>
-7.0993935352706

> <r_i_glide_lipo>
-3.53604817341655

> <r_i_glide_hbond>
-0.37528485510473

> <r_i_glide_metal>
0

> <r_i_glide_rewards>
-0.705396821845763

> <r_i_glide_evdw>
-39.5978622436523

> <r_i_glide_ecoul>
-6.77047920227051

> <r_i_glide_erotb>
0.566867802141604

> <r_i_glide_esite>
-0.0540664945219689

> <r_i_glide_emodel>
-59.7900018282605

> <r_i_glide_energy>
-46.3683414459229

> <r_i_glide_einternal>
10.6133441925049

> <i_i_glide_confnum>
2

> <i_i_glide_posenum>
62

> <r_i_glide_eff_state_penalty>
0

> <s_user_duplicate_titles>
32908

> <s_m_subgroup_title>
dock_pv

> <s_m_subgroupid>
dock_pv1

> <b_m_subgroup_collapsed>
0

$$$$
273070
                    3D
 Schrodinger Suite 2021-1.
 75 77  0  0  1  0            999 V2000
   19.8269   23.8488   26.8188 C   0  0  0  0  0  0
   19.8355   22.5316   26.3594 C   0  0  0  0  0  0
   20.3318   21.5177   27.1749 C   0  0  0  0  0  0
   20.8235   21.8259   28.4455 C   0  0  0  0  0  0
   20.8173   23.1480   28.9012 C   0  0  0  0  0  0
   20.3164   24.1602   28.0859 C   0  0  0  0  0  0
   21.4055   20.7293   29.3210 C   0  0  0  0  0  0
   23.2327   20.4497   28.9658 S   0  0  0  0  0  0
   23.3387   19.7330   27.6928 O   0  0  0  0  0  0
   23.9523   21.7101   29.1840 O   0  0  0  0  0  0
   23.7249   19.3334   30.2286 N   0  0  2  0  0  0
   25.1653   19.3244   30.6318 C   0  0  2  0  0  0
   26.0678   18.6722   29.5331 C   0  0  0  0  0  0
   27.5912   18.8447   29.7335 C   0  0  0  0  0  0
   28.4025   18.2121   28.5790 C   0  0  0  0  0  0
   28.0608   16.7823   28.4370 N   0  0  0  0  0  0
   26.6328   16.5846   28.1483 C   0  0  0  0  0  0
   25.7822   17.1811   29.2805 C   0  0  0  0  0  0
   29.0092   15.7355   28.1911 C   0  0  0  0  0  0
   28.7183   14.5483   27.8996 N   0  0  0  0  0  0
   30.3632   16.1017   28.2769 N   0  0  0  0  0  0
   25.3019   18.7068   32.0511 C   0  0  0  0  0  0
   26.3687   18.8387   32.6527 O   0  0  0  0  0  0
   24.2511   18.0833   32.6190 N   0  0  0  0  0  0
   24.1908   17.7701   34.0500 C   0  0  0  0  0  0
   23.7280   18.9835   34.8856 C   0  0  0  0  0  0
   23.9536   18.9903   36.0946 O   0  0  0  0  0  0
   23.0363   19.9743   34.2849 N   0  0  0  0  0  0
   22.6509   21.2501   34.9042 C   0  0  1  0  0  0
   22.1003   22.2460   33.8574 C   0  0  0  0  0  0
   20.6752   21.8679   33.4078 C   0  0  0  0  0  0
   19.7199   21.6783   34.6083 C   0  0  0  0  0  0
   20.2916   20.6972   35.5468 N   0  0  0  0  0  0
   21.6133   21.1025   36.0659 C   0  0  2  0  0  0
   21.5908   22.2522   36.8927 O   0  0  0  0  0  0
   19.5795   19.5302   35.9719 C   0  0  0  0  0  0
   18.3490   19.3334   35.7923 N   0  0  0  0  0  0
   20.3529   18.5339   36.5907 N   0  0  0  0  0  0
   23.5762   21.6641   35.3169 H   0  0  0  0  0  0
   19.4447   24.6346   26.1835 H   0  0  0  0  0  0
   19.4637   22.2940   25.3737 H   0  0  0  0  0  0
   20.3429   20.4999   26.8092 H   0  0  0  0  0  0
   21.2080   23.3924   29.8779 H   0  0  0  0  0  0
   20.3121   25.1848   28.4327 H   0  0  0  0  0  0
   21.3140   20.9778   30.3757 H   0  0  0  0  0  0
   20.8981   19.7797   29.1475 H   0  0  0  0  0  0
   23.4064   18.3819   30.0244 H   0  0  0  0  0  0
   25.4561   20.3689   30.7611 H   0  0  0  0  0  0
   25.8478   19.1666   28.5902 H   0  0  0  0  0  0
   27.8288   19.9082   29.8098 H   0  0  0  0  0  0
   27.9270   18.4210   30.6829 H   0  0  0  0  0  0
   28.1757   18.7135   27.6375 H   0  0  0  0  0  0
   29.4641   18.3706   28.7666 H   0  0  0  0  0  0
   26.3875   17.0535   27.1942 H   0  0  0  0  0  0
   26.3864   15.5266   28.0406 H   0  0  0  0  0  0
   25.8622   16.5998   30.1906 H   0  0  0  0  0  0
   24.7518   17.0576   28.9999 H   0  0  0  0  0  0
   29.5627   14.0016   27.7905 H   0  0  0  0  0  0
   31.1057   15.4573   28.0357 H   0  0  0  0  0  0
   30.6727   17.0415   28.4918 H   0  0  0  0  0  0
   23.4069   17.9415   32.0805 H   0  0  0  0  0  0
   23.4673   16.9641   34.1902 H   0  0  0  0  0  0
   25.1477   17.3956   34.4223 H   0  0  0  0  0  0
   22.9863   19.9396   33.2772 H   0  0  0  0  0  0
   22.0953   23.2534   34.2771 H   0  0  0  0  0  0
   22.7657   22.2948   32.9928 H   0  0  0  0  0  0
   20.2809   22.6440   32.7521 H   0  0  0  0  0  0
   20.6834   20.9590   32.8020 H   0  0  0  0  0  0
   19.5671   22.6253   35.1279 H   0  0  0  0  0  0
   18.7431   21.3671   34.2362 H   0  0  0  0  0  0
   21.9913   20.3525   36.7592 H   0  0  0  0  0  0
   21.3684   23.0142   36.3560 H   0  0  0  0  0  0
   17.9116   20.1209   35.3357 H   0  0  0  0  0  0
   19.9573   17.6411   36.8465 H   0  0  0  0  0  0
   21.3511   18.6218   36.7237 H   0  0  0  0  0  0
  1  6  1  0  0  0
  1  2  2  0  0  0
  1 40  1  0  0  0
  2  3  1  0  0  0
  2 41  1  0  0  0
  3  4  2  0  0  0
  3 42  1  0  0  0
  4  5  1  0  0  0
  4  7  1  0  0  0
  5  6  2  0  0  0
  5 43  1  0  0  0
  6 44  1  0  0  0
  7  8  1  0  0  0
  7 45  1  0  0  0
  7 46  1  0  0  0
  8  9  2  0  0  0
  8 10  2  0  0  0
  8 11  1  0  0  0
 11 12  1  0  0  0
 11 47  1  0  0  0
 12 13  1  0  0  0
 12 22  1  0  0  0
 12 48  1  0  0  0
 13 18  1  0  0  0
 13 14  1  0  0  0
 13 49  1  0  0  0
 14 15  1  0  0  0
 14 50  1  0  0  0
 14 51  1  0  0  0
 15 16  1  0  0  0
 15 52  1  0  0  0
 15 53  1  0  0  0
 16 17  1  0  0  0
 16 19  1  0  0  0
 17 18  1  0  0  0
 17 54  1  0  0  0
 17 55  1  0  0  0
 18 56  1  0  0  0
 18 57  1  0  0  0
 19 20  2  3  0  0
 19 21  1  0  0  0
 20 58  1  0  0  0
 21 59  1  0  0  0
 21 60  1  0  0  0
 22 23  2  0  0  0
 22 24  1  0  0  0
 24 25  1  0  0  0
 24 61  1  0  0  0
 25 26  1  0  0  0
 25 62  1  0  0  0
 25 63  1  0  0  0
 26 27  2  0  0  0
 26 28  1  0  0  0
 28 29  1  0  0  0
 28 64  1  0  0  0
 29 39  1  0  0  0
 29 34  1  0  0  0
 29 30  1  0  0  0
 30 31  1  0  0  0
 30 65  1  0  0  0
 30 66  1  0  0  0
 31 32  1  0  0  0
 31 67  1  0  0  0
 31 68  1  0  0  0
 32 33  1  0  0  0
 32 69  1  0  0  0
 32 70  1  0  0  0
 33 34  1  0  0  0
 33 36  1  0  0  0
 34 35  1  0  0  0
 34 71  1  0  0  0
 35 72  1  0  0  0
 36 37  2  3  0  0
 36 38  1  0  0  0
 37 73  1  0  0  0
 38 74  1  0  0  0
 38 75  1  0  0  0
M  END
> <s_m_entry_id>
40024

> <s_m_entry_name>
ligand_docking-pose.65

> <s_m_Source_Path>
/home/csk/Desktop/cluster/DUD-E-result/try1

> <s_m_Source_File>
ligand_docking-pose.sdf

> <i_m_Source_File_Index>
65

> <i_lp_mmshare_version>
53161

> <i_f3d_flags>
0

> <r_lp_tautomer_probability>
1

> <s_lp_Force_Field>
OPLS_2005

> <r_lp_Energy>
18.104145

> <b_lp_Chiralities_Consistent>
1

> <s_lp_Variant>
273070-11

> <s_i_glide_gridfile>
glide-grid_2ayw

> <i_i_glide_lignum>
775

> <i_i_glide_rotatable_bonds>
14

> <r_i_docking_score>
-7.08696361351011

> <r_i_glide_ligand_efficiency>
-0.186499042460792

> <r_i_glide_ligand_efficiency_sa>
-0.627005193384478

> <r_i_glide_ligand_efficiency_ln>
-1.52815783242036

> <r_i_glide_gscore>
-7.08696361351011

> <r_i_glide_lipo>
-1.5728400056756

> <r_i_glide_hbond>
-0.631524493515767

> <r_i_glide_metal>
0

> <r_i_glide_rewards>
-0.744653782400124

> <r_i_glide_evdw>
-42.3679809570312

> <r_i_glide_ecoul>
-17.2426719665527

> <r_i_glide_erotb>
0.611087366396103

> <r_i_glide_esite>
-0.0442328554802589

> <r_i_glide_emodel>
-78.4183875011581

> <r_i_glide_energy>
-59.610652923584

> <r_i_glide_einternal>
12.5878763198853

> <i_i_glide_confnum>
210

> <i_i_glide_posenum>
133

> <r_i_glide_eff_state_penalty>
0

> <s_user_duplicate_titles>
273070

> <s_m_subgroup_title>
dock_pv

> <s_m_subgroupid>
dock_pv1

> <b_m_subgroup_collapsed>
0

$$$$
290377
                    3D
 Schrodinger Suite 2021-1.
 61 64  0  0  1  0            999 V2000
   17.2031   25.4327   27.3851 C   0  0  0  0  0  0
   17.4948   25.5915   28.7369 C   0  0  0  0  0  0
   18.0980   24.5511   29.4373 C   0  0  0  0  0  0
   18.4069   23.3546   28.7844 C   0  0  0  0  0  0
   18.0961   23.1945   27.4299 C   0  0  0  0  0  0
   17.4968   24.2393   26.7304 C   0  0  0  0  0  0
   19.1194   22.2479   29.5536 C   0  0  0  0  0  0
   20.6551   22.4357   29.5846 C   0  0  0  0  0  0
   21.3529   21.6008   30.6897 C   0  0  0  0  0  0
   22.8843   21.8316   30.6770 C   0  0  0  0  0  0
   23.3447   21.4033   29.3429 N   0  0  0  0  0  0
   22.8656   22.2979   28.2697 C   0  0  0  0  0  0
   21.3239   22.1586   28.2120 C   0  0  0  0  0  0
   23.5944   20.0937   29.0639 C   0  0  0  0  0  0
   23.5524   19.6552   27.9138 O   0  0  0  0  0  0
   24.1628   19.1651   30.1568 C   0  0  0  0  0  0
   25.6250   19.1004   30.1420 N   0  0  0  0  0  0
   26.4655   20.0932   30.5909 C   0  0  0  0  0  0
   27.7883   19.7977   30.3129 C   0  0  0  0  0  0
   27.7636   18.4705   29.7533 C   0  0  0  0  0  0
   26.3986   18.0900   29.5970 C   0  0  0  0  0  0
   26.0359   16.8857   28.9915 C   0  0  0  0  0  0
   27.0617   16.0458   28.5734 C   0  0  0  0  0  0
   28.4246   16.3357   28.7544 C   0  0  0  0  0  0
   28.7583   17.5702   29.3404 C   0  0  0  0  0  0
   29.4558   15.3310   28.3591 C   0  0  0  0  0  0
   29.1385   14.1282   28.1909 N   0  0  0  0  0  0
   30.7293   15.8043   28.1905 N   0  0  0  0  0  0
   28.9932   20.7080   30.4935 C   0  0  0  0  0  0
   29.3024   21.1000   31.9507 C   0  0  0  0  0  0
   30.1062   20.1332   32.5909 O   0  0  0  0  0  0
   16.7516   26.2465   26.8357 H   0  0  0  0  0  0
   17.2659   26.5209   29.2368 H   0  0  0  0  0  0
   18.3395   24.6812   30.4825 H   0  0  0  0  0  0
   18.3398   22.2762   26.9132 H   0  0  0  0  0  0
   17.2716   24.1331   25.6806 H   0  0  0  0  0  0
   18.8554   21.2730   29.1392 H   0  0  0  0  0  0
   18.7232   22.2365   30.5704 H   0  0  0  0  0  0
   20.8742   23.4771   29.8301 H   0  0  0  0  0  0
   21.1407   20.5365   30.5682 H   0  0  0  0  0  0
   20.9383   21.8601   31.6646 H   0  0  0  0  0  0
   23.4384   21.4052   31.5120 H   0  0  0  0  0  0
   23.1041   22.8964   30.7693 H   0  0  0  0  0  0
   23.1460   23.3168   28.5402 H   0  0  0  0  0  0
   23.3787   22.1223   27.3226 H   0  0  0  0  0  0
   20.9168   22.8224   27.4492 H   0  0  0  0  0  0
   21.0644   21.1557   27.8672 H   0  0  0  0  0  0
   23.7528   18.1633   30.0269 H   0  0  0  0  0  0
   23.8477   19.4416   31.1594 H   0  0  0  0  0  0
   26.0387   20.9850   31.0255 H   0  0  0  0  0  0
   25.0070   16.5873   28.8793 H   0  0  0  0  0  0
   26.7570   15.1173   28.1118 H   0  0  0  0  0  0
   29.7908   17.8343   29.5045 H   0  0  0  0  0  0
   28.1747   13.9508   28.4255 H   0  0  0  0  0  0
   31.4327   15.1725   27.8116 H   0  0  0  0  0  0
   30.9807   16.7674   28.3732 H   0  0  0  0  0  0
   29.8859   20.3040   30.0118 H   0  0  0  0  0  0
   28.7867   21.6280   29.9445 H   0  0  0  0  0  0
   29.8248   22.0574   31.9776 H   0  0  0  0  0  0
   28.3834   21.2481   32.5198 H   0  0  0  0  0  0
   29.6540   19.2797   32.5938 H   0  0  0  0  0  0
  1  6  1  0  0  0
  1  2  2  0  0  0
  1 32  1  0  0  0
  2  3  1  0  0  0
  2 33  1  0  0  0
  3  4  2  0  0  0
  3 34  1  0  0  0
  4  5  1  0  0  0
  4  7  1  0  0  0
  5  6  2  0  0  0
  5 35  1  0  0  0
  6 36  1  0  0  0
  7  8  1  0  0  0
  7 37  1  0  0  0
  7 38  1  0  0  0
  8 13  1  0  0  0
  8  9  1  0  0  0
  8 39  1  0  0  0
  9 10  1  0  0  0
  9 40  1  0  0  0
  9 41  1  0  0  0
 10 11  1  0  0  0
 10 42  1  0  0  0
 10 43  1  0  0  0
 11 12  1  0  0  0
 11 14  1  0  0  0
 12 13  1  0  0  0
 12 44  1  0  0  0
 12 45  1  0  0  0
 13 46  1  0  0  0
 13 47  1  0  0  0
 14 15  2  0  0  0
 14 16  1  0  0  0
 16 17  1  0  0  0
 16 48  1  0  0  0
 16 49  1  0  0  0
 17 21  1  0  0  0
 17 18  1  0  0  0
 18 19  2  0  0  0
 18 50  1  0  0  0
 19 20  1  0  0  0
 19 29  1  0  0  0
 20 25  2  0  0  0
 20 21  1  0  0  0
 21 22  2  0  0  0
 22 23  1  0  0  0
 22 51  1  0  0  0
 23 24  2  0  0  0
 23 52  1  0  0  0
 24 25  1  0  0  0
 24 26  1  0  0  0
 25 53  1  0  0  0
 26 27  2  3  0  0
 26 28  1  0  0  0
 27 54  1  0  0  0
 28 55  1  0  0  0
 28 56  1  0  0  0
 29 30  1  0  0  0
 29 57  1  0  0  0
 29 58  1  0  0  0
 30 31  1  0  0  0
 30 59  1  0  0  0
 30 60  1  0  0  0
 31 61  1  0  0  0
M  END
> <s_m_entry_id>
40029

> <s_m_entry_name>
ligand_docking-pose.70

> <s_m_Source_Path>
/home/csk/Desktop/cluster/DUD-E-result/try1

> <s_m_Source_File>
ligand_docking-pose.sdf

> <i_m_Source_File_Index>
70

> <i_lp_mmshare_version>
53161

> <i_f3d_flags>
0

> <r_lp_tautomer_probability>
1

> <s_lp_Force_Field>
OPLS_2005

> <r_lp_Energy>
30.494096

> <b_lp_Chiralities_Consistent>
1

> <s_lp_Variant>
290377-2

> <s_i_glide_gridfile>
glide-grid_2ayw

> <i_i_glide_lignum>
420

> <i_i_glide_rotatable_bonds>
9

> <r_i_docking_score>
-7.0348811677728

> <r_i_glide_ligand_efficiency>
-0.226931650573316

> <r_i_glide_ligand_efficiency_sa>
-0.712878695710254

> <r_i_glide_ligand_efficiency_ln>
-1.58658129654879

> <r_i_glide_gscore>
-7.0348811677728

> <r_i_glide_lipo>
-1.94243778676654

> <r_i_glide_hbond>
-1.1440655241235

> <r_i_glide_metal>
0

> <r_i_glide_rewards>
-0.923953770452258

> <r_i_glide_evdw>
-36.7450561523438

> <r_i_glide_ecoul>
-12.7144403457642

> <r_i_glide_erotb>
0.790243996598261

> <r_i_glide_esite>
-0.0702492235469481

> <r_i_glide_emodel>
-64.7129545304073

> <r_i_glide_energy>
-49.4594964981079

> <r_i_glide_einternal>
9.53295993804932

> <i_i_glide_confnum>
35

> <i_i_glide_posenum>
224

> <r_i_glide_eff_state_penalty>
0

> <s_user_duplicate_titles>
290377

> <s_m_subgroup_title>
dock_pv

> <s_m_subgroupid>
dock_pv1

> <b_m_subgroup_collapsed>
0

$$$$
286971
                    3D
 Schrodinger Suite 2021-1.
 67 69  0  0  1  0            999 V2000
   29.1228   23.2130   33.6356 C   0  0  0  0  0  0
   28.9986   21.9003   32.3013 S   0  0  0  0  0  0
   30.3488   21.6259   31.7993 O   0  0  0  0  0  0
   27.9144   22.2853   31.3919 O   0  0  0  0  0  0
   28.4911   20.4844   33.2065 N   0  0  0  0  0  0
   27.3474   19.7487   32.8209 C   0  0  0  0  0  0
   27.3552   18.8696   31.7749 C   0  0  0  0  0  0
   26.1436   18.1047   31.5490 C   0  0  0  0  0  0
   25.0922   18.3004   32.3554 C   0  0  0  0  0  0
   25.0388   19.2375   33.3599 N   0  0  0  0  0  0
   26.1432   20.0243   33.6446 C   0  0  0  0  0  0
   26.1199   20.9085   34.5090 O   0  0  0  0  0  0
   23.7626   19.5357   34.0598 C   0  0  0  0  0  0
   22.7560   20.2898   33.1556 C   0  0  0  0  0  0
   21.6539   20.5850   33.6117 O   0  0  0  0  0  0
   23.1069   20.5507   31.8828 N   0  0  0  0  0  0
   22.2752   21.1070   30.8164 C   0  0  1  0  0  0
   21.8769   22.5834   31.0269 C   0  0  0  0  0  0
   21.0851   23.1267   29.8299 C   0  0  0  0  0  0
   21.8062   22.8368   28.5063 C   0  0  0  0  0  0
   21.9835   21.3835   28.3189 N   0  0  0  0  0  0
   22.8418   20.8119   29.3863 C   0  0  2  0  0  0
   23.1536   19.4239   29.2953 O   0  0  0  0  0  0
   21.7850   20.7797   27.0273 C   0  0  0  0  0  0
   22.3529   19.7331   26.6309 N   0  0  0  0  0  0
   20.8539   21.4215   26.1912 N   0  0  0  0  0  0
   28.5871   18.5865   30.9155 C   0  0  0  0  0  0
   28.5499   19.1952   29.4925 C   0  0  0  0  0  0
   27.5773   18.5250   28.4928 C   0  0  0  0  0  0
   27.7362   17.0162   28.3680 C   0  0  0  0  0  0
   26.6089   16.1961   28.4559 C   0  0  0  0  0  0
   26.7532   14.8164   28.3984 C   0  0  0  0  0  0
   28.0118   14.2610   28.1911 C   0  0  0  0  0  0
   29.1421   15.0688   28.1151 C   0  0  0  0  0  0
   29.0036   16.4497   28.1911 C   0  0  0  0  0  0
   21.3457   20.5359   30.8450 H   0  0  0  0  0  0
   29.4124   24.1524   33.1695 H   0  0  0  0  0  0
   28.1477   23.3105   34.1116 H   0  0  0  0  0  0
   29.8700   22.9030   34.3643 H   0  0  0  0  0  0
   29.2703   19.9288   33.5686 H   0  0  0  0  0  0
   26.1002   17.3449   30.7856 H   0  0  0  0  0  0
   24.1826   17.7168   32.2752 H   0  0  0  0  0  0
   23.9153   20.0687   34.9995 H   0  0  0  0  0  0
   23.2980   18.5895   34.3402 H   0  0  0  0  0  0
   23.9444   20.0913   31.5540 H   0  0  0  0  0  0
   22.7802   23.1841   31.1424 H   0  0  0  0  0  0
   21.2907   22.7026   31.9391 H   0  0  0  0  0  0
   20.9416   24.2025   29.9411 H   0  0  0  0  0  0
   20.0826   22.6951   29.8058 H   0  0  0  0  0  0
   22.7967   23.2948   28.5210 H   0  0  0  0  0  0
   21.2708   23.3255   27.6922 H   0  0  0  0  0  0
   23.8119   21.3048   29.2957 H   0  0  0  0  0  0
   22.4181   18.9209   29.6650 H   0  0  0  0  0  0
   22.9466   19.3929   27.3817 H   0  0  0  0  0  0
   20.5371   20.9790   25.3362 H   0  0  0  0  0  0
   20.2746   22.1720   26.5281 H   0  0  0  0  0  0
   29.4871   18.9347   31.4179 H   0  0  0  0  0  0
   28.7232   17.5061   30.8570 H   0  0  0  0  0  0
   28.3267   20.2603   29.5570 H   0  0  0  0  0  0
   29.5529   19.1457   29.0730 H   0  0  0  0  0  0
   26.5513   18.7760   28.7656 H   0  0  0  0  0  0
   27.7317   18.9329   27.4954 H   0  0  0  0  0  0
   25.6249   16.6189   28.6062 H   0  0  0  0  0  0
   25.8981   14.1774   28.5652 H   0  0  0  0  0  0
   28.1234   13.1863   28.1906 H   0  0  0  0  0  0
   30.1231   14.6295   27.9873 H   0  0  0  0  0  0
   29.8858   17.0687   28.1217 H   0  0  0  0  0  0
  1  2  1  0  0  0
  1 37  1  0  0  0
  1 38  1  0  0  0
  1 39  1  0  0  0
  2  3  2  0  0  0
  2  4  2  0  0  0
  2  5  1  0  0  0
  5  6  1  0  0  0
  5 40  1  0  0  0
  6 11  1  0  0  0
  6  7  2  0  0  0
  7  8  1  0  0  0
  7 27  1  0  0  0
  8  9  2  0  0  0
  8 41  1  0  0  0
  9 10  1  0  0  0
  9 42  1  0  0  0
 10 11  1  0  0  0
 10 13  1  0  0  0
 11 12  2  0  0  0
 13 14  1  0  0  0
 13 43  1  0  0  0
 13 44  1  0  0  0
 14 15  2  0  0  0
 14 16  1  0  0  0
 16 17  1  0  0  0
 16 45  1  0  0  0
 17 36  1  0  0  0
 17 22  1  0  0  0
 17 18  1  0  0  0
 18 19  1  0  0  0
 18 46  1  0  0  0
 18 47  1  0  0  0
 19 20  1  0  0  0
 19 48  1  0  0  0
 19 49  1  0  0  0
 20 21  1  0  0  0
 20 50  1  0  0  0
 20 51  1  0  0  0
 21 22  1  0  0  0
 21 24  1  0  0  0
 22 23  1  0  0  0
 22 52  1  0  0  0
 23 53  1  0  0  0
 24 25  2  3  0  0
 24 26  1  0  0  0
 25 54  1  0  0  0
 26 55  1  0  0  0
 26 56  1  0  0  0
 27 28  1  0  0  0
 27 57  1  0  0  0
 27 58  1  0  0  0
 28 29  1  0  0  0
 28 59  1  0  0  0
 28 60  1  0  0  0
 29 30  1  0  0  0
 29 61  1  0  0  0
 29 62  1  0  0  0
 30 35  1  0  0  0
 30 31  2  0  0  0
 31 32  1  0  0  0
 31 63  1  0  0  0
 32 33  2  0  0  0
 32 64  1  0  0  0
 33 34  1  0  0  0
 33 65  1  0  0  0
 34 35  2  0  0  0
 34 66  1  0  0  0
 35 67  1  0  0  0
M  END
> <s_m_entry_id>
40030

> <s_m_entry_name>
ligand_docking-pose.71

> <s_m_Source_Path>
/home/csk/Desktop/cluster/DUD-E-result/try1

> <s_m_Source_File>
ligand_docking-pose.sdf

> <i_m_Source_File_Index>
71

> <i_lp_mmshare_version>
53161

> <i_f3d_flags>
0

> <r_lp_tautomer_probability>
1

> <s_lp_Force_Field>
OPLS_2005

> <r_lp_Energy>
33.453287

> <b_lp_Chiralities_Consistent>
1

> <s_lp_Variant>
286971-4

> <s_i_glide_gridfile>
glide-grid_2ayw

> <i_i_glide_lignum>
2710

> <i_i_glide_rotatable_bonds>
12

> <r_i_docking_score>
-7.02085073707285

> <r_i_glide_ligand_efficiency>
-0.200595735344939

> <r_i_glide_ligand_efficiency_sa>
-0.656161951076707

> <r_i_glide_ligand_efficiency_ln>
-1.54123255617427

> <r_i_glide_gscore>
-7.02085073707285

> <r_i_glide_lipo>
-2.58222300255551

> <r_i_glide_hbond>
-0.837949677562223

> <r_i_glide_metal>
0

> <r_i_glide_rewards>
-0.188813429162642

> <r_i_glide_evdw>
-39.8862266540527

> <r_i_glide_ecoul>
-13.6108741760254

> <r_i_glide_erotb>
0.642444100474946

> <r_i_glide_esite>
-0.0183662691609795

> <r_i_glide_emodel>
-72.0162600426521

> <r_i_glide_energy>
-53.4971008300781

> <r_i_glide_einternal>
6.83788681030273

> <i_i_glide_confnum>
34

> <i_i_glide_posenum>
175

> <r_i_glide_eff_state_penalty>
0

> <s_user_duplicate_titles>
286971

> <s_m_subgroup_title>
dock_pv

> <s_m_subgroupid>
dock_pv1

> <b_m_subgroup_collapsed>
0

$$$$
273626
                    3D
 Schrodinger Suite 2021-1.
 65 67  0  0  1  0            999 V2000
   26.1315   27.0265   26.7186 C   0  0  0  0  0  0
   24.7447   26.7219   26.8257 O   0  0  0  0  0  0
   24.2026   25.7686   25.9861 C   0  0  0  0  0  0
   24.9177   25.0869   24.9913 C   0  0  0  0  0  0
   24.2871   24.1327   24.1944 C   0  0  0  0  0  0
   22.9374   23.8103   24.3901 C   0  0  0  0  0  0
   22.2211   24.4872   25.3883 C   0  0  0  0  0  0
   22.8516   25.4706   26.1581 C   0  0  0  0  0  0
   20.4933   24.1243   25.6976 S   0  0  0  0  0  0
   19.8671   23.7332   24.4313 O   0  0  0  0  0  0
   19.9355   25.2479   26.4591 O   0  0  0  0  0  0
   20.5469   22.7106   26.7449 N   0  0  1  0  0  0
   20.4556   22.8913   28.2176 C   0  0  1  0  0  0
   19.0263   22.5951   28.7319 C   0  0  0  0  0  0
   18.4491   21.2170   28.3742 C   0  0  0  0  0  0
   19.2339   20.0608   28.9924 C   0  0  0  0  0  0
   20.7104   19.9819   28.5582 C   0  0  0  0  0  0
   21.6260   20.9254   29.2219 N   0  0  0  0  0  0
   21.6810   22.2626   28.9399 C   0  0  0  0  0  0
   22.6117   22.9908   29.2952 O   0  0  0  0  0  0
   22.6568   20.3555   30.1332 C   0  0  0  0  0  0
   23.9194   19.8517   29.4076 C   0  0  0  0  0  0
   23.9528   19.7216   28.1867 O   0  0  0  0  0  0
   25.1562   19.5847   30.2896 C   0  0  0  0  0  0
   26.1655   18.6055   29.6788 C   0  0  0  0  0  0
   25.7728   17.3266   29.2892 C   0  0  0  0  0  0
   26.7002   16.4242   28.7791 C   0  0  0  0  0  0
   28.0634   16.7525   28.6797 C   0  0  0  0  0  0
   28.4439   18.0497   29.0795 C   0  0  0  0  0  0
   27.5109   18.9600   29.5734 C   0  0  0  0  0  0
   29.0431   15.7362   28.1909 C   0  0  0  0  0  0
   28.6783   14.5931   27.8114 N   0  0  0  0  0  0
   30.3541   16.1330   28.1913 N   0  0  0  0  0  0
   22.3027   22.8293   23.6557 O   0  0  0  0  0  0
   22.6973   22.6419   22.3028 C   0  0  0  0  0  0
   20.5855   23.9548   28.4197 H   0  0  0  0  0  0
   26.3866   27.7898   27.4527 H   0  0  0  0  0  0
   26.7520   26.1519   26.9200 H   0  0  0  0  0  0
   26.3808   27.4240   25.7326 H   0  0  0  0  0  0
   25.9678   25.2735   24.8258 H   0  0  0  0  0  0
   24.8738   23.6229   23.4454 H   0  0  0  0  0  0
   22.3016   25.9942   26.9272 H   0  0  0  0  0  0
   20.1475   21.8536   26.3537 H   0  0  0  0  0  0
   18.3548   23.3575   28.3326 H   0  0  0  0  0  0
   18.9949   22.7269   29.8149 H   0  0  0  0  0  0
   18.3939   21.0948   27.2910 H   0  0  0  0  0  0
   17.4158   21.1626   28.7247 H   0  0  0  0  0  0
   18.7485   19.1269   28.7087 H   0  0  0  0  0  0
   19.1530   20.1325   30.0785 H   0  0  0  0  0  0
   20.7354   20.1954   27.4891 H   0  0  0  0  0  0
   21.1087   18.9668   28.5926 H   0  0  0  0  0  0
   22.2418   19.4993   30.6643 H   0  0  0  0  0  0
   22.9531   21.0859   30.8884 H   0  0  0  0  0  0
   24.8297   19.1917   31.2532 H   0  0  0  0  0  0
   25.6448   20.5393   30.4845 H   0  0  0  0  0  0
   24.7485   17.0105   29.3923 H   0  0  0  0  0  0
   26.3427   15.4454   28.4906 H   0  0  0  0  0  0
   29.4731   18.3715   29.0312 H   0  0  0  0  0  0
   27.8418   19.9395   29.8830 H   0  0  0  0  0  0
   29.4959   14.0522   27.5591 H   0  0  0  0  0  0
   31.0599   15.5173   27.8064 H   0  0  0  0  0  0
   30.6573   17.0364   28.5428 H   0  0  0  0  0  0
   21.9540   22.0227   21.7982 H   0  0  0  0  0  0
   22.7575   23.5877   21.7617 H   0  0  0  0  0  0
   23.6579   22.1330   22.2335 H   0  0  0  0  0  0
  1  2  1  0  0  0
  1 37  1  0  0  0
  1 38  1  0  0  0
  1 39  1  0  0  0
  2  3  1  0  0  0
  3  8  1  0  0  0
  3  4  2  0  0  0
  4  5  1  0  0  0
  4 40  1  0  0  0
  5  6  2  0  0  0
  5 41  1  0  0  0
  6  7  1  0  0  0
  6 34  1  0  0  0
  7  8  2  0  0  0
  7  9  1  0  0  0
  8 42  1  0  0  0
  9 10  2  0  0  0
  9 11  2  0  0  0
  9 12  1  0  0  0
 12 13  1  0  0  0
 12 43  1  0  0  0
 13 36  1  0  0  0
 13 19  1  0  0  0
 13 14  1  0  0  0
 14 15  1  0  0  0
 14 44  1  0  0  0
 14 45  1  0  0  0
 15 16  1  0  0  0
 15 46  1  0  0  0
 15 47  1  0  0  0
 16 17  1  0  0  0
 16 48  1  0  0  0
 16 49  1  0  0  0
 17 18  1  0  0  0
 17 50  1  0  0  0
 17 51  1  0  0  0
 18 19  1  0  0  0
 18 21  1  0  0  0
 19 20  2  0  0  0
 21 22  1  0  0  0
 21 52  1  0  0  0
 21 53  1  0  0  0
 22 23  2  0  0  0
 22 24  1  0  0  0
 24 25  1  0  0  0
 24 54  1  0  0  0
 24 55  1  0  0  0
 25 30  1  0  0  0
 25 26  2  0  0  0
 26 27  1  0  0  0
 26 56  1  0  0  0
 27 28  2  0  0  0
 27 57  1  0  0  0
 28 29  1  0  0  0
 28 31  1  0  0  0
 29 30  2  0  0  0
 29 58  1  0  0  0
 30 59  1  0  0  0
 31 32  2  3  0  0
 31 33  1  0  0  0
 32 60  1  0  0  0
 33 61  1  0  0  0
 33 62  1  0  0  0
 34 35  1  0  0  0
 35 63  1  0  0  0
 35 64  1  0  0  0
 35 65  1  0  0  0
M  END
> <s_m_entry_id>
40031

> <s_m_entry_name>
ligand_docking-pose.72

> <s_m_Source_Path>
/home/csk/Desktop/cluster/DUD-E-result/try1

> <s_m_Source_File>
ligand_docking-pose.sdf

> <i_m_Source_File_Index>
72

> <i_lp_mmshare_version>
53161

> <i_f3d_flags>
0

> <r_lp_tautomer_probability>
0.999999960000001

> <s_lp_Force_Field>
OPLS_2005

> <r_lp_Energy>
33.603342

> <b_lp_Chiralities_Consistent>
1

> <s_lp_Variant>
273626-1

> <s_i_glide_gridfile>
glide-grid_2ayw

> <i_i_glide_lignum>
2446

> <i_i_glide_rotatable_bonds>
10

> <r_i_docking_score>
-7.01848506539973

> <r_i_glide_ligand_efficiency>
-0.200528144725707

> <r_i_glide_ligand_efficiency_sa>
-0.655940857679515

> <r_i_glide_ligand_efficiency_ln>
-1.54071323873877

> <r_i_glide_gscore>
-7.01848506539973

> <r_i_glide_lipo>
-2.34629125129562

> <r_i_glide_hbond>
-0.617739812101984

> <r_i_glide_metal>
0

> <r_i_glide_rewards>
-0.629614076476561

> <r_i_glide_evdw>
-44.5389251708984

> <r_i_glide_ecoul>
-11.5775852203369

> <r_i_glide_erotb>
0.56628825320651

> <r_i_glide_esite>
-0.0275441371366225

> <r_i_glide_emodel>
-76.2101407820619

> <r_i_glide_energy>
-56.1165103912354

> <r_i_glide_einternal>
6.76043081283569

> <i_i_glide_confnum>
47

> <i_i_glide_posenum>
106

> <r_i_glide_eff_state_penalty>
0

> <s_user_duplicate_titles>
273626

> <s_m_subgroup_title>
dock_pv

> <s_m_subgroupid>
dock_pv1

> <b_m_subgroup_collapsed>
0

$$$$
74484
                    3D
 Schrodinger Suite 2021-1.
 46 48  0  0  1  0            999 V2000
   26.4055   18.5938   34.4869 C   0  0  0  0  0  0
   26.1325   19.2547   33.1422 C   0  0  0  0  0  0
   25.0668   20.1510   33.0018 C   0  0  0  0  0  0
   24.8263   20.7378   31.7542 C   0  0  0  0  0  0
   25.5946   20.4653   30.6550 N   0  0  0  0  0  0
   26.6104   19.5727   30.7974 C   0  0  0  0  0  0
   26.9185   18.9651   32.0208 C   0  0  0  0  0  0
   27.9529   18.1014   32.1043 F   0  0  0  0  0  0
   27.3202   19.2817   29.6513 O   0  0  0  0  0  0
   27.2420   17.9903   29.1734 C   0  0  0  0  0  0
   25.9993   17.3799   28.9911 C   0  0  0  0  0  0
   25.9264   16.0553   28.5885 C   0  0  0  0  0  0
   27.0837   15.3339   28.3465 C   0  0  0  0  0  0
   28.3579   15.9086   28.5098 C   0  0  0  0  0  0
   28.4099   17.2628   28.9080 C   0  0  0  0  0  0
   29.5647   15.0674   28.2880 C   0  0  0  0  0  0
   29.4661   13.8195   28.1910 N   0  0  0  0  0  0
   30.7530   15.7330   28.1910 N   0  0  0  0  0  0
   23.7538   21.6043   31.6371 O   0  0  0  0  0  0
   23.3219   22.0672   30.4178 C   0  0  0  0  0  0
   23.5771   23.3879   30.0611 C   0  0  0  0  0  0
   23.1527   23.8679   28.8271 C   0  0  0  0  0  0
   22.4488   23.0323   27.9627 C   0  0  0  0  0  0
   22.1287   21.7046   28.3116 C   0  0  0  0  0  0
   22.5904   21.2416   29.5600 C   0  0  0  0  0  0
   21.3227   20.8600   27.3865 C   0  0  0  0  0  0
   21.1530   21.2102   26.1910 N   0  0  0  0  0  0
   20.7814   19.7329   27.9520 N   0  0  0  0  0  0
   24.2743   20.4479   34.0599 F   0  0  0  0  0  0
   25.4742   18.2323   34.9246 H   0  0  0  0  0  0
   27.0704   17.7334   34.4064 H   0  0  0  0  0  0
   26.8392   19.3131   35.1819 H   0  0  0  0  0  0
   25.0880   17.9252   29.1871 H   0  0  0  0  0  0
   24.9649   15.5767   28.4774 H   0  0  0  0  0  0
   26.9610   14.3051   28.0403 H   0  0  0  0  0  0
   29.3582   17.7547   29.0704 H   0  0  0  0  0  0
   28.5307   13.4794   28.3465 H   0  0  0  0  0  0
   31.5663   15.1982   27.8837 H   0  0  0  0  0  0
   30.8479   16.7300   28.3265 H   0  0  0  0  0  0
   24.1206   24.0328   30.7358 H   0  0  0  0  0  0
   23.3660   24.8870   28.5398 H   0  0  0  0  0  0
   22.1280   23.4439   27.0156 H   0  0  0  0  0  0
   22.4011   20.2297   29.8867 H   0  0  0  0  0  0
   20.5554   20.5841   25.6612 H   0  0  0  0  0  0
   20.1568   19.1507   27.4138 H   0  0  0  0  0  0
   20.9023   19.5264   28.9316 H   0  0  0  0  0  0
  1  2  1  0  0  0
  1 30  1  0  0  0
  1 31  1  0  0  0
  1 32  1  0  0  0
  2  7  1  0  0  0
  2  3  2  0  0  0
  3  4  1  0  0  0
  3 29  1  0  0  0
  4  5  2  0  0  0
  4 19  1  0  0  0
  5  6  1  0  0  0
  6  7  2  0  0  0
  6  9  1  0  0  0
  7  8  1  0  0  0
  9 10  1  0  0  0
 10 15  1  0  0  0
 10 11  2  0  0  0
 11 12  1  0  0  0
 11 33  1  0  0  0
 12 13  2  0  0  0
 12 34  1  0  0  0
 13 14  1  0  0  0
 13 35  1  0  0  0
 14 15  2  0  0  0
 14 16  1  0  0  0
 15 36  1  0  0  0
 16 17  2  3  0  0
 16 18  1  0  0  0
 17 37  1  0  0  0
 18 38  1  0  0  0
 18 39  1  0  0  0
 19 20  1  0  0  0
 20 25  1  0  0  0
 20 21  2  0  0  0
 21 22  1  0  0  0
 21 40  1  0  0  0
 22 23  2  0  0  0
 22 41  1  0  0  0
 23 24  1  0  0  0
 23 42  1  0  0  0
 24 25  2  0  0  0
 24 26  1  0  0  0
 25 43  1  0  0  0
 26 27  2  3  0  0
 26 28  1  0  0  0
 27 44  1  0  0  0
 28 45  1  0  0  0
 28 46  1  0  0  0
M  END
> <s_m_entry_id>
40032

> <s_m_entry_name>
ligand_docking-pose.73

> <s_m_Source_Path>
/home/csk/Desktop/cluster/DUD-E-result/try1

> <s_m_Source_File>
ligand_docking-pose.sdf

> <i_m_Source_File_Index>
73

> <i_lp_mmshare_version>
53161

> <i_f3d_flags>
0

> <r_lp_tautomer_probability>
1

> <s_lp_Force_Field>
OPLS_2005

> <r_lp_Energy>
13.907436

> <b_lp_Chiralities_Consistent>
1

> <s_lp_Variant>
74484-2

> <s_i_glide_gridfile>
glide-grid_2ayw

> <i_i_glide_lignum>
1246

> <i_i_glide_rotatable_bonds>
6

> <r_i_docking_score>
-7.01248010417229

> <r_i_glide_ligand_efficiency>
-0.241809658764562

> <r_i_glide_ligand_efficiency_sa>
-0.742915882401844

> <r_i_glide_ligand_efficiency_ln>
-1.60568012270284

> <r_i_glide_gscore>
-7.01248010417229

> <r_i_glide_lipo>
-2.23512940791854

> <r_i_glide_hbond>
-0.77847472179088

> <r_i_glide_metal>
0

> <r_i_glide_rewards>
-1.04229734987158

> <r_i_glide_evdw>
-35.8820877075195

> <r_i_glide_ecoul>
-10.5701932907104

> <r_i_glide_erotb>
0.495833100002334

> <r_i_glide_esite>
-0.0727783456110891

> <r_i_glide_emodel>
-61.6473768219959

> <r_i_glide_energy>
-46.45228099823

> <r_i_glide_einternal>
6.1799488067627

> <i_i_glide_confnum>
20

> <i_i_glide_posenum>
337

> <r_i_glide_eff_state_penalty>
0

> <s_user_duplicate_titles>
74484

> <s_m_subgroup_title>
dock_pv

> <s_m_subgroupid>
dock_pv1

> <b_m_subgroup_collapsed>
0

$$$$
73639
                    3D
 Schrodinger Suite 2021-1.
 54 56  0  0  1  0            999 V2000
   26.9494   22.5163   33.7781 C   0  0  0  0  0  0
   26.4713   21.7710   32.5395 C   0  0  0  0  0  0
   27.3790   21.0384   31.7617 C   0  0  0  0  0  0
   26.9252   20.3965   30.5910 C   0  0  0  0  0  0
   25.6136   20.4449   30.2407 N   0  0  0  0  0  0
   24.7162   21.0808   31.0337 C   0  0  0  0  0  0
   25.1210   21.7992   32.1686 C   0  0  0  0  0  0
   24.2193   22.4836   32.9151 F   0  0  0  0  0  0
   23.3584   20.9702   30.6722 N   0  0  0  0  0  0
   22.6155   20.1330   31.6207 C   0  0  0  0  0  0
   22.8412   21.0955   29.3569 C   0  0  0  0  0  0
   21.9192   20.1864   28.8201 C   0  0  0  0  0  0
   21.4245   20.3489   27.5307 C   0  0  0  0  0  0
   21.8277   21.4373   26.7628 C   0  0  0  0  0  0
   22.7372   22.3923   27.2599 C   0  0  0  0  0  0
   23.2413   22.1760   28.5598 C   0  0  0  0  0  0
   23.1530   23.5943   26.4737 C   0  0  0  0  0  0
   23.8852   24.4830   26.9840 N   0  0  0  0  0  0
   22.6915   23.6297   25.1798 N   0  0  0  0  0  0
   27.7871   19.6026   29.7911 N   0  0  0  0  0  0
   29.0619   20.2532   29.4466 C   0  0  0  0  0  0
   27.5942   18.2743   29.3093 C   0  0  0  0  0  0
   26.3150   17.7400   29.0863 C   0  0  0  0  0  0
   26.1463   16.4537   28.5912 C   0  0  0  0  0  0
   27.2537   15.6627   28.3251 C   0  0  0  0  0  0
   28.5605   16.1269   28.5565 C   0  0  0  0  0  0
   28.6946   17.4383   29.0467 C   0  0  0  0  0  0
   29.7259   15.2407   28.2823 C   0  0  0  0  0  0
   29.5530   14.1038   27.7910 N   0  0  0  0  0  0
   30.9665   15.7330   28.5910 N   0  0  0  0  0  0
   28.6745   20.9530   32.1542 F   0  0  0  0  0  0
   27.9357   22.9511   33.6103 H   0  0  0  0  0  0
   26.2882   23.3449   34.0339 H   0  0  0  0  0  0
   27.0156   21.8385   34.6298 H   0  0  0  0  0  0
   22.9347   20.2806   32.6534 H   0  0  0  0  0  0
   21.5530   20.3669   31.5858 H   0  0  0  0  0  0
   22.7531   19.0749   31.3905 H   0  0  0  0  0  0
   21.5858   19.3330   29.3898 H   0  0  0  0  0  0
   20.7159   19.6376   27.1303 H   0  0  0  0  0  0
   21.3948   21.5266   25.7771 H   0  0  0  0  0  0
   23.9419   22.8829   28.9815 H   0  0  0  0  0  0
   24.0953   25.2233   26.3325 H   0  0  0  0  0  0
   22.9431   24.3952   24.5734 H   0  0  0  0  0  0
   22.1196   22.8871   24.8115 H   0  0  0  0  0  0
   29.3808   20.0029   28.4338 H   0  0  0  0  0  0
   28.9968   21.3413   29.5007 H   0  0  0  0  0  0
   29.8483   19.9406   30.1348 H   0  0  0  0  0  0
   25.4130   18.2990   29.2598 H   0  0  0  0  0  0
   25.1531   16.0649   28.4191 H   0  0  0  0  0  0
   27.0772   14.6641   27.9501 H   0  0  0  0  0  0
   29.6804   17.8139   29.2538 H   0  0  0  0  0  0
   30.4403   13.6438   27.6207 H   0  0  0  0  0  0
   31.7656   15.1995   28.2553 H   0  0  0  0  0  0
   31.1169   16.7185   28.7803 H   0  0  0  0  0  0
  1  2  1  0  0  0
  1 32  1  0  0  0
  1 33  1  0  0  0
  1 34  1  0  0  0
  2  7  1  0  0  0
  2  3  2  0  0  0
  3  4  1  0  0  0
  3 31  1  0  0  0
  4  5  2  0  0  0
  4 20  1  0  0  0
  5  6  1  0  0  0
  6  7  2  0  0  0
  6  9  1  0  0  0
  7  8  1  0  0  0
  9 10  1  0  0  0
  9 11  1  0  0  0
 10 35  1  0  0  0
 10 36  1  0  0  0
 10 37  1  0  0  0
 11 16  1  0  0  0
 11 12  2  0  0  0
 12 13  1  0  0  0
 12 38  1  0  0  0
 13 14  2  0  0  0
 13 39  1  0  0  0
 14 15  1  0  0  0
 14 40  1  0  0  0
 15 16  2  0  0  0
 15 17  1  0  0  0
 16 41  1  0  0  0
 17 18  2  3  0  0
 17 19  1  0  0  0
 18 42  1  0  0  0
 19 43  1  0  0  0
 19 44  1  0  0  0
 20 21  1  0  0  0
 20 22  1  0  0  0
 21 45  1  0  0  0
 21 46  1  0  0  0
 21 47  1  0  0  0
 22 27  1  0  0  0
 22 23  2  0  0  0
 23 24  1  0  0  0
 23 48  1  0  0  0
 24 25  2  0  0  0
 24 49  1  0  0  0
 25 26  1  0  0  0
 25 50  1  0  0  0
 26 27  2  0  0  0
 26 28  1  0  0  0
 27 51  1  0  0  0
 28 29  2  3  0  0
 28 30  1  0  0  0
 29 52  1  0  0  0
 30 53  1  0  0  0
 30 54  1  0  0  0
M  END
> <s_m_entry_id>
40033

> <s_m_entry_name>
ligand_docking-pose.74

> <s_m_Source_Path>
/home/csk/Desktop/cluster/DUD-E-result/try1

> <s_m_Source_File>
ligand_docking-pose.sdf

> <i_m_Source_File_Index>
74

> <i_lp_mmshare_version>
53161

> <i_f3d_flags>
0

> <r_lp_tautomer_probability>
1

> <s_lp_Force_Field>
OPLS_2005

> <r_lp_Energy>
22.291477

> <b_lp_Chiralities_Consistent>
1

> <s_lp_Variant>
73639-1

> <s_i_glide_gridfile>
glide-grid_2ayw

> <i_i_glide_lignum>
1238

> <i_i_glide_rotatable_bonds>
6

> <r_i_docking_score>
-7.00783699155961

> <r_i_glide_ligand_efficiency>
-0.226059257792245

> <r_i_glide_ligand_efficiency_sa>
-0.710138177909649

> <r_i_glide_ligand_efficiency_ln>
-1.58048200600825

> <r_i_glide_gscore>
-7.00783699155961

> <r_i_glide_lipo>
-2.40135256076515

> <r_i_glide_hbond>
-0.729661894937394

> <r_i_glide_metal>
0

> <r_i_glide_rewards>
-0.740458657479651

> <r_i_glide_evdw>
-36.1540794372559

> <r_i_glide_ecoul>
-11.2451448440552

> <r_i_glide_erotb>
0.442106580861081

> <r_i_glide_esite>
-0.0839947607674183

> <r_i_glide_emodel>
-62.1589202692952

> <r_i_glide_energy>
-47.399224281311

> <r_i_glide_einternal>
8.84817600250244

> <i_i_glide_confnum>
77

> <i_i_glide_posenum>
322

> <r_i_glide_eff_state_penalty>
0

> <s_user_duplicate_titles>
73639

> <s_m_subgroup_title>
dock_pv

> <s_m_subgroupid>
dock_pv1

> <b_m_subgroup_collapsed>
0

$$$$
284668
                    3D
 Schrodinger Suite 2021-1.
 64 66  0  0  1  0            999 V2000
   29.9072   17.3321   38.3397 C   0  0  0  0  0  0
   30.6069   18.2392   36.8529 S   0  0  0  0  0  0
   31.5527   17.3364   36.1912 O   0  0  0  0  0  0
   31.0209   19.5787   37.2813 O   0  0  0  0  0  0
   29.2095   18.3970   35.7936 N   0  0  0  0  0  0
   28.6069   19.6319   35.4455 C   0  0  0  0  0  0
   27.4315   20.0776   35.9883 C   0  0  0  0  0  0
   26.8492   21.2830   35.4054 C   0  0  0  0  0  0
   27.3841   21.7582   34.2690 C   0  0  0  0  0  0
   28.5103   21.2508   33.6712 N   0  0  0  0  0  0
   29.2997   20.3406   34.3442 C   0  0  0  0  0  0
   30.4689   20.1330   34.0037 O   0  0  0  0  0  0
   28.9247   21.6593   32.3124 C   0  0  0  0  0  0
   28.3698   20.6943   31.2416 C   0  0  0  0  0  0
   27.9688   21.1789   30.1919 O   0  0  0  0  0  0
   28.3698   19.3657   31.4724 N   0  0  0  0  0  0
   27.8593   18.3095   30.5805 C   0  0  1  0  0  0
   26.4141   18.4887   30.0496 C   0  0  0  0  0  0
   25.9668   17.2932   29.1889 C   0  0  0  0  0  0
   27.0161   16.8862   28.1398 C   0  0  0  0  0  0
   28.3376   16.6670   28.7554 N   0  0  0  0  0  0
   28.8362   17.8634   29.4530 C   0  0  1  0  0  0
   29.1530   18.9380   28.5912 O   0  0  0  0  0  0
   29.1777   15.5830   28.3323 C   0  0  0  0  0  0
   28.7545   14.5332   27.7915 N   0  0  0  0  0  0
   30.5640   15.7331   28.5448 N   0  0  0  0  0  0
   26.6331   19.2707   37.0181 C   0  0  0  0  0  0
   25.0851   19.3328   36.9003 C   0  0  0  0  0  0
   24.4605   18.9508   35.5518 C   0  0  0  0  0  0
   25.1601   18.2120   34.5886 C   0  0  0  0  0  0
   24.5435   17.8618   33.3907 C   0  0  0  0  0  0
   23.2273   18.2429   33.1524 C   0  0  0  0  0  0
   22.5204   18.9764   34.1018 C   0  0  0  0  0  0
   23.1378   19.3303   35.2992 C   0  0  0  0  0  0
   27.7956   17.4567   31.2593 H   0  0  0  0  0  0
   30.7110   17.1751   39.0577 H   0  0  0  0  0  0
   29.1186   17.9367   38.7803 H   0  0  0  0  0  0
   29.5155   16.3715   38.0114 H   0  0  0  0  0  0
   28.7944   17.5232   35.4614 H   0  0  0  0  0  0
   26.0071   21.7795   35.8646 H   0  0  0  0  0  0
   27.0431   22.6733   33.8049 H   0  0  0  0  0  0
   30.0063   21.7584   32.2139 H   0  0  0  0  0  0
   28.5280   22.6580   32.1285 H   0  0  0  0  0  0
   28.8388   19.0367   32.3061 H   0  0  0  0  0  0
   26.3671   19.3771   29.4205 H   0  0  0  0  0  0
   25.7134   18.6487   30.8683 H   0  0  0  0  0  0
   25.0492   17.5640   28.6700 H   0  0  0  0  0  0
   25.6922   16.4288   29.7908 H   0  0  0  0  0  0
   27.1082   17.6727   27.3912 H   0  0  0  0  0  0
   26.6666   15.9965   27.6128 H   0  0  0  0  0  0
   29.7685   17.6230   29.9667 H   0  0  0  0  0  0
   30.0762   18.8452   28.3295 H   0  0  0  0  0  0
   29.5422   13.9267   27.6027 H   0  0  0  0  0  0
   31.2300   15.0836   28.1387 H   0  0  0  0  0  0
   30.9673   16.6296   28.7889 H   0  0  0  0  0  0
   26.9300   18.2223   36.9822 H   0  0  0  0  0  0
   26.9318   19.6208   38.0070 H   0  0  0  0  0  0
   24.6455   18.6912   37.6655 H   0  0  0  0  0  0
   24.7585   20.3422   37.1538 H   0  0  0  0  0  0
   26.1763   17.8935   34.7604 H   0  0  0  0  0  0
   25.0779   17.2875   32.6491 H   0  0  0  0  0  0
   22.7532   17.9582   32.2237 H   0  0  0  0  0  0
   21.4969   19.2644   33.9109 H   0  0  0  0  0  0
   22.5808   19.8895   36.0371 H   0  0  0  0  0  0
  1  2  1  0  0  0
  1 36  1  0  0  0
  1 37  1  0  0  0
  1 38  1  0  0  0
  2  3  2  0  0  0
  2  4  2  0  0  0
  2  5  1  0  0  0
  5  6  1  0  0  0
  5 39  1  0  0  0
  6 11  1  0  0  0
  6  7  2  0  0  0
  7  8  1  0  0  0
  7 27  1  0  0  0
  8  9  2  0  0  0
  8 40  1  0  0  0
  9 10  1  0  0  0
  9 41  1  0  0  0
 10 11  1  0  0  0
 10 13  1  0  0  0
 11 12  2  0  0  0
 13 14  1  0  0  0
 13 42  1  0  0  0
 13 43  1  0  0  0
 14 15  2  0  0  0
 14 16  1  0  0  0
 16 17  1  0  0  0
 16 44  1  0  0  0
 17 35  1  0  0  0
 17 22  1  0  0  0
 17 18  1  0  0  0
 18 19  1  0  0  0
 18 45  1  0  0  0
 18 46  1  0  0  0
 19 20  1  0  0  0
 19 47  1  0  0  0
 19 48  1  0  0  0
 20 21  1  0  0  0
 20 49  1  0  0  0
 20 50  1  0  0  0
 21 22  1  0  0  0
 21 24  1  0  0  0
 22 23  1  0  0  0
 22 51  1  0  0  0
 23 52  1  0  0  0
 24 25  2  3  0  0
 24 26  1  0  0  0
 25 53  1  0  0  0
 26 54  1  0  0  0
 26 55  1  0  0  0
 27 28  1  0  0  0
 27 56  1  0  0  0
 27 57  1  0  0  0
 28 29  1  0  0  0
 28 58  1  0  0  0
 28 59  1  0  0  0
 29 34  1  0  0  0
 29 30  2  0  0  0
 30 31  1  0  0  0
 30 60  1  0  0  0
 31 32  2  0  0  0
 31 61  1  0  0  0
 32 33  1  0  0  0
 32 62  1  0  0  0
 33 34  2  0  0  0
 33 63  1  0  0  0
 34 64  1  0  0  0
M  END
> <s_m_entry_id>
40034

> <s_m_entry_name>
ligand_docking-pose.75

> <s_m_Source_Path>
/home/csk/Desktop/cluster/DUD-E-result/try1

> <s_m_Source_File>
ligand_docking-pose.sdf

> <i_m_Source_File_Index>
75

> <i_lp_mmshare_version>
53161

> <i_f3d_flags>
0

> <r_lp_tautomer_probability>
1

> <s_lp_Force_Field>
OPLS_2005

> <r_lp_Energy>
30.414041

> <b_lp_Chiralities_Consistent>
1

> <s_lp_Variant>
284668-1

> <s_i_glide_gridfile>
glide-grid_2ayw

> <i_i_glide_lignum>
2699

> <i_i_glide_rotatable_bonds>
11

> <r_i_docking_score>
-6.99870880270677

> <r_i_glide_ligand_efficiency>
-0.205844376550199

> <r_i_glide_ligand_efficiency_sa>
-0.666855870714773

> <r_i_glide_ligand_efficiency_ln>
-1.54621108165047

> <r_i_glide_gscore>
-6.99870880270677

> <r_i_glide_lipo>
-1.75929318916364

> <r_i_glide_hbond>
-0.817227769854102

> <r_i_glide_metal>
0

> <r_i_glide_rewards>
-0.786197982180876

> <r_i_glide_evdw>
-39.2172698974609

> <r_i_glide_ecoul>
-15.4927806854248

> <r_i_glide_erotb>
0.676507604889969

> <r_i_glide_esite>
-0.027716868711346

> <r_i_glide_emodel>
-68.468706347446

> <r_i_glide_energy>
-54.7100505828857

> <r_i_glide_einternal>
17.2525234222412

> <i_i_glide_confnum>
48

> <i_i_glide_posenum>
290

> <r_i_glide_eff_state_penalty>
0

> <s_user_duplicate_titles>
284668

> <s_m_subgroup_title>
dock_pv

> <s_m_subgroupid>
dock_pv1

> <b_m_subgroup_collapsed>
0

$$$$
261262
                    3D
 Schrodinger Suite 2021-1.
 58 59  0  0  1  0            999 V2000
   21.6079   22.4211   21.9661 C   0  0  0  0  0  0
   22.1907   22.5329   23.2572 O   0  0  0  0  0  0
   21.5219   23.1404   24.2544 C   0  0  0  0  0  0
   20.4097   23.6653   24.1639 O   0  0  0  0  0  0
   22.3200   23.1784   25.5665 C   0  0  0  0  0  0
   22.0360   22.0283   26.5857 C   0  0  1  0  0  0
   22.9959   22.1605   27.8037 C   0  0  0  0  0  0
   23.3131   20.8412   28.5441 C   0  0  0  0  0  0
   23.9548   21.0508   29.9291 C   0  0  0  0  0  0
   24.2660   19.7410   30.6858 C   0  0  0  0  0  0
   25.5455   19.0455   30.2345 C   0  0  0  0  0  0
   25.5529   18.2547   29.0850 C   0  0  0  0  0  0
   26.7178   17.6084   28.6870 C   0  0  0  0  0  0
   27.8839   17.7273   29.4531 C   0  0  0  0  0  0
   27.8761   18.5260   30.5974 C   0  0  0  0  0  0
   26.7132   19.1844   30.9879 C   0  0  0  0  0  0
   29.0822   17.0798   29.1258 N   0  0  0  0  0  0
   29.3436   15.9074   28.3757 C   0  0  0  0  0  0
   28.4817   15.1050   27.9301 N   0  0  0  0  0  0
   30.7229   15.7322   28.1911 N   0  0  0  0  0  0
   20.5691   21.8884   27.0480 C   0  0  0  0  0  0
   20.0919   20.6584   27.5101 C   0  0  0  0  0  0
   18.7901   20.5344   27.9833 C   0  0  0  0  0  0
   17.9174   21.6183   27.9138 C   0  0  0  0  0  0
   18.3294   22.8566   27.3881 C   0  0  0  0  0  0
   19.6830   22.9740   27.0191 C   0  0  0  0  0  0
   17.3611   23.9735   27.2000 C   0  0  0  0  0  0
   16.2509   23.9835   27.7930 N   0  0  0  0  0  0
   17.7657   24.9329   26.3028 N   0  0  0  0  0  0
   22.3395   22.0258   21.2610 H   0  0  0  0  0  0
   20.7532   21.7438   21.9833 H   0  0  0  0  0  0
   21.2721   23.3898   21.5928 H   0  0  0  0  0  0
   22.1373   24.1453   26.0336 H   0  0  0  0  0  0
   23.3772   23.1759   25.2999 H   0  0  0  0  0  0
   22.2836   21.1040   26.0595 H   0  0  0  0  0  0
   23.9492   22.5850   27.4846 H   0  0  0  0  0  0
   22.5794   22.8900   28.5006 H   0  0  0  0  0  0
   22.4098   20.2609   28.7053 H   0  0  0  0  0  0
   23.9528   20.2295   27.9092 H   0  0  0  0  0  0
   24.8534   21.6598   29.8502 H   0  0  0  0  0  0
   23.2586   21.6331   30.5336 H   0  0  0  0  0  0
   24.3494   19.9585   31.7523 H   0  0  0  0  0  0
   23.4297   19.0432   30.6148 H   0  0  0  0  0  0
   24.6604   18.1339   28.4934 H   0  0  0  0  0  0
   26.6981   17.0212   27.7812 H   0  0  0  0  0  0
   28.7681   18.6242   31.2010 H   0  0  0  0  0  0
   26.7201   19.7891   31.8836 H   0  0  0  0  0  0
   29.9072   17.6118   29.3626 H   0  0  0  0  0  0
   27.5511   15.3864   28.1979 H   0  0  0  0  0  0
   31.0738   15.0244   27.5535 H   0  0  0  0  0  0
   31.3655   16.4985   28.3342 H   0  0  0  0  0  0
   20.7254   19.7845   27.5138 H   0  0  0  0  0  0
   18.4442   19.5851   28.3656 H   0  0  0  0  0  0
   16.8990   21.4567   28.2363 H   0  0  0  0  0  0
   20.0557   23.9275   26.6811 H   0  0  0  0  0  0
   16.1615   23.2013   28.4253 H   0  0  0  0  0  0
   17.1562   25.7064   26.0795 H   0  0  0  0  0  0
   18.6219   24.8161   25.7809 H   0  0  0  0  0  0
  1  2  1  0  0  0
  1 30  1  0  0  0
  1 31  1  0  0  0
  1 32  1  0  0  0
  2  3  1  0  0  0
  3  4  2  0  0  0
  3  5  1  0  0  0
  5  6  1  0  0  0
  5 33  1  0  0  0
  5 34  1  0  0  0
  6  7  1  0  0  0
  6 21  1  0  0  0
  6 35  1  0  0  0
  7  8  1  0  0  0
  7 36  1  0  0  0
  7 37  1  0  0  0
  8  9  1  0  0  0
  8 38  1  0  0  0
  8 39  1  0  0  0
  9 10  1  0  0  0
  9 40  1  0  0  0
  9 41  1  0  0  0
 10 11  1  0  0  0
 10 42  1  0  0  0
 10 43  1  0  0  0
 11 16  1  0  0  0
 11 12  2  0  0  0
 12 13  1  0  0  0
 12 44  1  0  0  0
 13 14  2  0  0  0
 13 45  1  0  0  0
 14 15  1  0  0  0
 14 17  1  0  0  0
 15 16  2  0  0  0
 15 46  1  0  0  0
 16 47  1  0  0  0
 17 18  1  0  0  0
 17 48  1  0  0  0
 18 19  2  3  0  0
 18 20  1  0  0  0
 19 49  1  0  0  0
 20 50  1  0  0  0
 20 51  1  0  0  0
 21 26  1  0  0  0
 21 22  2  0  0  0
 22 23  1  0  0  0
 22 52  1  0  0  0
 23 24  2  0  0  0
 23 53  1  0  0  0
 24 25  1  0  0  0
 24 54  1  0  0  0
 25 26  2  0  0  0
 25 27  1  0  0  0
 26 55  1  0  0  0
 27 28  2  3  0  0
 27 29  1  0  0  0
 28 56  1  0  0  0
 29 57  1  0  0  0
 29 58  1  0  0  0
M  END
> <s_m_entry_id>
40035

> <s_m_entry_name>
ligand_docking-pose.76

> <s_m_Source_Path>
/home/csk/Desktop/cluster/DUD-E-result/try1

> <s_m_Source_File>
ligand_docking-pose.sdf

> <i_m_Source_File_Index>
76

> <i_lp_mmshare_version>
53161

> <i_f3d_flags>
0

> <r_lp_tautomer_probability>
1

> <s_lp_Force_Field>
OPLS_2005

> <r_lp_Energy>
1.498687

> <b_lp_Chiralities_Consistent>
1

> <s_lp_Variant>
261262-8

> <s_i_glide_gridfile>
glide-grid_2ayw

> <i_i_glide_lignum>
2621

> <i_i_glide_rotatable_bonds>
12

> <r_i_docking_score>
-6.98295520100182

> <r_i_glide_ligand_efficiency>
-0.240791558655235

> <r_i_glide_ligand_efficiency_sa>
-0.739787956309238

> <r_i_glide_ligand_efficiency_ln>
-1.59891966856375

> <r_i_glide_gscore>
-6.98295520100182

> <r_i_glide_lipo>
-2.45330299255218

> <r_i_glide_hbond>
-0.870573096949501

> <r_i_glide_metal>
0

> <r_i_glide_rewards>
-0.986315444299986

> <r_i_glide_evdw>
-44.7860298156738

> <r_i_glide_ecoul>
-10.534987449646

> <r_i_glide_erotb>
1.25020135663852

> <r_i_glide_esite>
-0.103415415608079

> <r_i_glide_emodel>
-76.6477320813299

> <r_i_glide_energy>
-55.3210172653198

> <r_i_glide_einternal>
7.17194128036499

> <i_i_glide_confnum>
56

> <i_i_glide_posenum>
62

> <r_i_glide_eff_state_penalty>
0

> <s_user_duplicate_titles>
261262

> <s_m_subgroup_title>
dock_pv

> <s_m_subgroupid>
dock_pv1

> <b_m_subgroup_collapsed>
0

$$$$
33531
                    3D
 Schrodinger Suite 2021-1.
 63 65  0  0  1  0            999 V2000
   24.0222   19.4819   30.1342 C   0  0  0  0  0  0
   24.2075   19.0203   28.6916 C   0  0  0  0  0  0
   25.2630   18.3107   28.2330 C   0  0  0  0  0  0
   26.5604   18.0177   28.8689 C   0  0  0  0  0  0
   27.1501   18.8929   29.7872 C   0  0  0  0  0  0
   28.4329   18.6559   30.2630 C   0  0  0  0  0  0
   29.1521   17.5641   29.7913 C   0  0  0  0  0  0
   28.6079   16.6718   28.8507 C   0  0  0  0  0  0
   27.2865   16.9046   28.4312 C   0  0  0  0  0  0
   29.3979   15.5444   28.2970 C   0  0  0  0  0  0
   28.8458   14.5334   27.7913 N   0  0  0  0  0  0
   30.7534   15.7327   28.3800 N   0  0  0  0  0  0
   23.1279   19.4454   27.7045 C   0  0  0  0  0  0
   21.7764   19.7347   28.1849 N   0  0  0  0  0  0
   21.0320   20.8247   27.6904 C   0  0  0  0  0  0
   21.6077   21.8725   26.9649 C   0  0  0  0  0  0
   20.8455   22.9439   26.5367 C   0  0  0  0  0  0
   19.4734   23.0198   26.8036 C   0  0  0  0  0  0
   18.8678   21.9734   27.5364 C   0  0  0  0  0  0
   19.6633   20.8922   27.9694 C   0  0  0  0  0  0
   17.4170   21.9879   27.8707 N   0  3  0  0  0  0
   17.0230   21.2446   28.7641 O   0  5  0  0  0  0
   16.6491   22.7173   27.2483 O   0  0  0  0  0  0
   18.6960   24.0917   26.3934 O   0  0  0  0  0  0
   19.1696   25.1052   25.4982 C   0  0  0  0  0  0
   20.1533   26.1374   26.1289 C   0  0  0  0  0  0
   20.7360   27.1220   25.0821 C   0  0  0  0  0  0
   21.2344   26.3393   23.9388 N   0  0  0  0  0  0
   20.1249   25.7130   23.2069 C   0  0  0  0  0  0
   19.5893   24.5752   24.0944 C   0  0  0  0  0  0
   22.5738   25.9677   23.7995 C   0  0  0  0  0  0
   23.5446   26.2772   24.5468 N   0  0  0  0  0  0
   22.9012   25.0592   22.6222 C   0  0  0  0  0  0
   23.0289   19.2258   30.4985 H   0  0  0  0  0  0
   24.7218   19.0045   30.8187 H   0  0  0  0  0  0
   24.1485   20.5627   30.2056 H   0  0  0  0  0  0
   25.2085   17.9567   27.2149 H   0  0  0  0  0  0
   26.6454   19.7894   30.1094 H   0  0  0  0  0  0
   28.8822   19.3280   30.9786 H   0  0  0  0  0  0
   30.1449   17.4117   30.1893 H   0  0  0  0  0  0
   26.8387   16.2475   27.6972 H   0  0  0  0  0  0
   29.5714   13.8962   27.4889 H   0  0  0  0  0  0
   31.3828   15.0783   27.9184 H   0  0  0  0  0  0
   31.1189   16.6542   28.5977 H   0  0  0  0  0  0
   23.5868   20.3313   27.2825 H   0  0  0  0  0  0
   23.0601   18.7635   26.8577 H   0  0  0  0  0  0
   21.2986   19.0172   28.7183 H   0  0  0  0  0  0
   22.6536   21.9237   26.7214 H   0  0  0  0  0  0
   21.3720   23.7097   25.9961 H   0  0  0  0  0  0
   19.2078   20.0866   28.5302 H   0  0  0  0  0  0
   18.2475   25.6703   25.3550 H   0  0  0  0  0  0
   19.6325   26.7383   26.8753 H   0  0  0  0  0  0
   20.9901   25.6572   26.6287 H   0  0  0  0  0  0
   19.9131   27.7331   24.7073 H   0  0  0  0  0  0
   21.4956   27.7937   25.4845 H   0  0  0  0  0  0
   19.3339   26.4622   23.1409 H   0  0  0  0  0  0
   20.3475   25.4335   22.1763 H   0  0  0  0  0  0
   20.3640   23.8150   24.1413 H   0  0  0  0  0  0
   18.7539   24.1218   23.5751 H   0  0  0  0  0  0
   24.4160   25.8683   24.2406 H   0  0  0  0  0  0
   22.6606   25.5460   21.6761 H   0  0  0  0  0  0
   23.9524   24.7851   22.5843 H   0  0  0  0  0  0
   22.3440   24.1235   22.6772 H   0  0  0  0  0  0
  1  2  1  0  0  0
  1 34  1  0  0  0
  1 35  1  0  0  0
  1 36  1  0  0  0
  2  3  2  0  0  0
  2 13  1  0  0  0
  3  4  1  0  0  0
  3 37  1  0  0  0
  4  9  1  0  0  0
  4  5  2  0  0  0
  5  6  1  0  0  0
  5 38  1  0  0  0
  6  7  2  0  0  0
  6 39  1  0  0  0
  7  8  1  0  0  0
  7 40  1  0  0  0
  8  9  2  0  0  0
  8 10  1  0  0  0
  9 41  1  0  0  0
 10 11  2  3  0  0
 10 12  1  0  0  0
 11 42  1  0  0  0
 12 43  1  0  0  0
 12 44  1  0  0  0
 13 14  1  0  0  0
 13 45  1  0  0  0
 13 46  1  0  0  0
 14 15  1  0  0  0
 14 47  1  0  0  0
 15 20  1  0  0  0
 15 16  2  0  0  0
 16 17  1  0  0  0
 16 48  1  0  0  0
 17 18  2  0  0  0
 17 49  1  0  0  0
 18 19  1  0  0  0
 18 24  1  0  0  0
 19 20  2  0  0  0
 19 21  1  0  0  0
 20 50  1  0  0  0
 21 22  1  0  0  0
 21 23  2  0  0  0
 24 25  1  0  0  0
 25 30  1  0  0  0
 25 26  1  0  0  0
 25 51  1  0  0  0
 26 27  1  0  0  0
 26 52  1  0  0  0
 26 53  1  0  0  0
 27 28  1  0  0  0
 27 54  1  0  0  0
 27 55  1  0  0  0
 28 29  1  0  0  0
 28 31  1  0  0  0
 29 30  1  0  0  0
 29 56  1  0  0  0
 29 57  1  0  0  0
 30 58  1  0  0  0
 30 59  1  0  0  0
 31 32  2  3  0  0
 31 33  1  0  0  0
 32 60  1  0  0  0
 33 61  1  0  0  0
 33 62  1  0  0  0
 33 63  1  0  0  0
M  CHG  2  21   1  22  -1
M  END
> <s_m_entry_id>
40036

> <s_m_entry_name>
ligand_docking-pose.77

> <s_m_Source_Path>
/home/csk/Desktop/cluster/DUD-E-result/try1

> <s_m_Source_File>
ligand_docking-pose.sdf

> <i_m_Source_File_Index>
77

> <i_lp_mmshare_version>
53161

> <i_f3d_flags>
0

> <r_lp_tautomer_probability>
0.499900269896156

> <s_lp_Force_Field>
OPLS_2005

> <r_lp_Energy>
37.673384

> <b_lp_Chiralities_Consistent>
1

> <s_lp_Variant>
33531-1

> <s_i_glide_gridfile>
glide-grid_2ayw

> <i_i_glide_lignum>
1508

> <i_i_glide_rotatable_bonds>
9

> <r_i_docking_score>
-6.98042060529752

> <r_i_glide_ligand_efficiency>
-0.211527897130228

> <r_i_glide_ligand_efficiency_sa>
-0.678482991006258

> <r_i_glide_ligand_efficiency_ln>
-1.55240939993459

> <r_i_glide_gscore>
-6.98042060529752

> <r_i_glide_lipo>
-2.45356636772482

> <r_i_glide_hbond>
-0.781829359586343

> <r_i_glide_metal>
0

> <r_i_glide_rewards>
-0.790756257679983

> <r_i_glide_evdw>
-40.3550796508789

> <r_i_glide_ecoul>
-9.57246017456055

> <r_i_glide_erotb>
0.592661437445921

> <r_i_glide_esite>
-0.0933070490242621

> <r_i_glide_emodel>
-63.1300066993507

> <r_i_glide_energy>
-49.9275398254395

> <r_i_glide_einternal>
11.99782371521

> <i_i_glide_confnum>
2

> <i_i_glide_posenum>
120

> <r_i_glide_eff_state_penalty>
0

> <s_user_duplicate_titles>
33531

> <s_m_subgroup_title>
dock_pv

> <s_m_subgroupid>
dock_pv1

> <b_m_subgroup_collapsed>
0

$$$$
186000
                    3D
 Schrodinger Suite 2021-1.
 78 79  0  0  1  0            999 V2000
   18.6208   20.1344   28.6711 C   0  0  0  0  0  0
   20.0354   20.2650   28.1063 C   0  0  0  0  0  0
   20.5908   21.7062   28.1731 C   0  0  0  0  0  0
   22.1103   21.8400   27.8635 C   0  0  0  0  0  0
   22.4705   21.3964   26.4123 C   0  0  0  0  0  0
   21.8328   22.2143   25.2694 C   0  0  0  0  0  0
   22.2427   23.6963   25.2486 C   0  0  0  0  0  0
   22.9475   21.0871   28.9218 C   0  0  0  0  0  0
   23.4341   19.9880   28.6475 O   0  0  0  0  0  0
   23.0481   21.6628   30.1432 N   0  0  0  0  0  0
   23.6295   21.0579   31.3599 C   0  0  1  0  0  0
   23.0065   19.6541   31.5852 C   0  0  0  0  0  0
   23.0535   19.0490   32.9860 C   0  0  0  0  0  0
   22.7194   19.6956   33.9802 O   0  0  0  0  0  0
   23.4598   17.7657   32.9580 O   0  0  0  0  0  0
   23.5329   16.9918   34.1426 C   0  0  0  0  0  0
   25.1773   21.0013   31.2923 C   0  0  0  0  0  0
   25.7179   20.9331   30.1910 O   0  0  0  0  0  0
   25.8974   20.9780   32.4396 N   0  0  0  0  0  0
   25.4820   21.4458   33.7599 C   0  0  0  0  0  0
   26.7916   21.8095   34.4470 C   0  0  0  0  0  0
   27.7472   20.7470   33.9222 C   0  0  0  0  0  0
   27.3000   20.5154   32.4631 C   0  0  1  0  0  0
   27.4097   19.0509   31.9894 C   0  0  0  0  0  0
   27.1762   18.1331   32.7720 O   0  0  0  0  0  0
   27.6706   18.8800   30.6841 N   0  0  0  0  0  0
   27.5667   17.6134   29.9621 C   0  0  1  0  0  0
   26.1080   17.1930   29.6132 C   0  0  0  0  0  0
   26.0518   15.8790   28.7945 C   0  0  0  0  0  0
   27.0556   15.8740   27.6404 C   0  0  0  0  0  0
   28.4000   16.1632   28.1627 N   0  0  0  0  0  0
   28.5186   17.5027   28.7413 C   0  0  1  0  0  0
   28.3533   18.5374   27.7997 O   0  0  0  0  0  0
   29.4475   15.2033   28.1908 C   0  0  0  0  0  0
   29.2416   13.9675   28.1910 N   0  0  0  0  0  0
   30.7530   15.7279   28.1928 N   0  0  0  0  0  0
   23.3252   21.7169   32.1721 H   0  0  0  0  0  0
   27.9543   16.8575   30.6477 H   0  0  0  0  0  0
   18.3540   19.0804   28.7101 H   0  0  0  0  0  0
   17.8898   20.6504   28.0479 H   0  0  0  0  0  0
   18.5503   20.5300   29.6871 H   0  0  0  0  0  0
   20.6759   19.5822   28.6652 H   0  0  0  0  0  0
   20.0436   19.9093   27.0755 H   0  0  0  0  0  0
   20.0209   22.3465   27.4997 H   0  0  0  0  0  0
   20.3936   22.1172   29.1653 H   0  0  0  0  0  0
   22.3842   22.8894   27.9647 H   0  0  0  0  0  0
   23.5529   21.4245   26.2904 H   0  0  0  0  0  0
   22.1985   20.3484   26.2722 H   0  0  0  0  0  0
   22.1260   21.7656   24.3189 H   0  0  0  0  0  0
   20.7444   22.1286   25.3042 H   0  0  0  0  0  0
   21.8393   24.1978   24.3678 H   0  0  0  0  0  0
   21.8736   24.2304   26.1246 H   0  0  0  0  0  0
   23.3289   23.8080   25.2137 H   0  0  0  0  0  0
   22.6274   22.5694   30.2773 H   0  0  0  0  0  0
   21.9529   19.7297   31.3352 H   0  0  0  0  0  0
   23.4287   18.9345   30.8826 H   0  0  0  0  0  0
   23.2950   15.9533   33.9088 H   0  0  0  0  0  0
   24.5397   17.0260   34.5600 H   0  0  0  0  0  0
   22.8287   17.3298   34.9039 H   0  0  0  0  0  0
   24.7976   22.2958   33.7347 H   0  0  0  0  0  0
   25.0123   20.6306   34.3062 H   0  0  0  0  0  0
   27.1181   22.7965   34.1127 H   0  0  0  0  0  0
   26.7198   21.8270   35.5349 H   0  0  0  0  0  0
   28.7920   21.0590   33.9956 H   0  0  0  0  0  0
   27.6370   19.8470   34.5314 H   0  0  0  0  0  0
   27.8796   21.1691   31.8092 H   0  0  0  0  0  0
   27.7054   19.7074   30.1035 H   0  0  0  0  0  0
   25.4969   17.0956   30.5108 H   0  0  0  0  0  0
   25.6510   17.9839   29.0145 H   0  0  0  0  0  0
   26.2363   14.9918   29.3919 H   0  0  0  0  0  0
   25.0487   15.7305   28.3992 H   0  0  0  0  0  0
   27.0182   14.9294   27.0970 H   0  0  0  0  0  0
   26.7754   16.6450   26.9269 H   0  0  0  0  0  0
   29.5228   17.6650   29.1326 H   0  0  0  0  0  0
   29.1832   18.6389   27.3252 H   0  0  0  0  0  0
   28.2590   13.7450   28.2413 H   0  0  0  0  0  0
   31.5467   15.1177   28.0176 H   0  0  0  0  0  0
   30.9509   16.7155   28.1298 H   0  0  0  0  0  0
  1  2  1  0  0  0
  1 39  1  0  0  0
  1 40  1  0  0  0
  1 41  1  0  0  0
  2  3  1  0  0  0
  2 42  1  0  0  0
  2 43  1  0  0  0
  3  4  1  0  0  0
  3 44  1  0  0  0
  3 45  1  0  0  0
  4  5  1  0  0  0
  4  8  1  0  0  0
  4 46  1  0  0  0
  5  6  1  0  0  0
  5 47  1  0  0  0
  5 48  1  0  0  0
  6  7  1  0  0  0
  6 49  1  0  0  0
  6 50  1  0  0  0
  7 51  1  0  0  0
  7 52  1  0  0  0
  7 53  1  0  0  0
  8  9  2  0  0  0
  8 10  1  0  0  0
 10 11  1  0  0  0
 10 54  1  0  0  0
 11 37  1  0  0  0
 11 12  1  0  0  0
 11 17  1  0  0  0
 12 13  1  0  0  0
 12 55  1  0  0  0
 12 56  1  0  0  0
 13 14  2  0  0  0
 13 15  1  0  0  0
 15 16  1  0  0  0
 16 57  1  0  0  0
 16 58  1  0  0  0
 16 59  1  0  0  0
 17 18  2  0  0  0
 17 19  1  0  0  0
 19 23  1  0  0  0
 19 20  1  0  0  0
 20 21  1  0  0  0
 20 60  1  0  0  0
 20 61  1  0  0  0
 21 22  1  0  0  0
 21 62  1  0  0  0
 21 63  1  0  0  0
 22 23  1  0  0  0
 22 64  1  0  0  0
 22 65  1  0  0  0
 23 24  1  0  0  0
 23 66  1  0  0  0
 24 25  2  0  0  0
 24 26  1  0  0  0
 26 27  1  0  0  0
 26 67  1  0  0  0
 27 38  1  0  0  0
 27 32  1  0  0  0
 27 28  1  0  0  0
 28 29  1  0  0  0
 28 68  1  0  0  0
 28 69  1  0  0  0
 29 30  1  0  0  0
 29 70  1  0  0  0
 29 71  1  0  0  0
 30 31  1  0  0  0
 30 72  1  0  0  0
 30 73  1  0  0  0
 31 32  1  0  0  0
 31 34  1  0  0  0
 32 33  1  0  0  0
 32 74  1  0  0  0
 33 75  1  0  0  0
 34 35  2  3  0  0
 34 36  1  0  0  0
 35 76  1  0  0  0
 36 77  1  0  0  0
 36 78  1  0  0  0
M  END
> <s_m_entry_id>
40037

> <s_m_entry_name>
ligand_docking-pose.78

> <s_m_Source_Path>
/home/csk/Desktop/cluster/DUD-E-result/try1

> <s_m_Source_File>
ligand_docking-pose.sdf

> <i_m_Source_File_Index>
78

> <i_lp_mmshare_version>
53161

> <i_f3d_flags>
0

> <r_lp_tautomer_probability>
1

> <s_lp_Force_Field>
OPLS_2005

> <r_lp_Energy>
22.906939

> <b_lp_Chiralities_Consistent>
1

> <s_lp_Variant>
186000-2

> <s_i_glide_gridfile>
glide-grid_2ayw

> <i_i_glide_lignum>
1587

> <i_i_glide_rotatable_bonds>
17

> <r_i_docking_score>
-6.97930688160201

> <r_i_glide_ligand_efficiency>
-0.193869635600056

> <r_i_glide_ligand_efficiency_sa>
-0.640143431756441

> <r_i_glide_ligand_efficiency_ln>
-1.52269620248431

> <r_i_glide_gscore>
-6.97930688160201

> <r_i_glide_lipo>
-2.30646273372223

> <r_i_glide_hbond>
-0.800485891615958

> <r_i_glide_metal>
0

> <r_i_glide_rewards>
-0.88315599016311

> <r_i_glide_evdw>
-43.8059349060059

> <r_i_glide_ecoul>
-10.9849491119385

> <r_i_glide_erotb>
0.942904567283156

> <r_i_glide_esite>
-0.0940677212928043

> <r_i_glide_emodel>
-69.4548635658968

> <r_i_glide_energy>
-54.7908840179443

> <r_i_glide_einternal>
12.6354103088379

> <i_i_glide_confnum>
86

> <i_i_glide_posenum>
120

> <r_i_glide_eff_state_penalty>
0

> <s_user_duplicate_titles>
186000

> <s_m_subgroup_title>
dock_pv

> <s_m_subgroupid>
dock_pv1

> <b_m_subgroup_collapsed>
0

$$$$
128760
                    3D
 Schrodinger Suite 2021-1.
 62 64  0  0  1  0            999 V2000
   19.4533   20.1653   35.6663 C   0  0  0  0  0  0
   19.4560   20.8877   34.4739 C   0  0  0  0  0  0
   20.6666   21.1934   33.8572 C   0  0  0  0  0  0
   21.8757   20.7794   34.4328 C   0  0  0  0  0  0
   21.8595   20.0535   35.6290 C   0  0  0  0  0  0
   20.6500   19.7411   36.2424 C   0  0  0  0  0  0
   23.2107   21.1703   33.7871 C   0  0  0  0  0  0
   23.6670   20.3652   32.5158 C   0  0  2  0  0  0
   23.4958   18.8133   32.6043 C   0  0  0  0  0  0
   24.2116   18.0574   33.7333 C   0  0  0  0  0  0
   25.7329   18.1812   33.7282 C   0  0  0  0  0  0
   26.2472   19.6190   33.8675 C   0  0  0  0  0  0
   26.1965   20.4490   32.6489 N   0  0  0  0  0  0
   25.0703   20.8703   31.9840 C   0  0  0  0  0  0
   25.1492   21.5905   30.9757 O   0  0  0  0  0  0
   27.5219   20.7989   32.0599 C   0  0  0  0  0  0
   28.0622   19.6819   31.1352 C   0  0  0  0  0  0
   29.2767   19.5758   30.9746 O   0  0  0  0  0  0
   27.1588   18.8691   30.5585 N   0  0  0  0  0  0
   27.3593   17.5894   29.8824 C   0  0  1  0  0  0
   25.9923   17.0449   29.3915 C   0  0  0  0  0  0
   26.1096   15.7069   28.6481 C   0  0  0  0  0  0
   27.2027   15.7649   27.5703 C   0  0  0  0  0  0
   28.4814   16.1316   28.2081 N   0  0  0  0  0  0
   28.4697   17.4877   28.7870 C   0  0  1  0  0  0
   28.3627   18.5295   27.8390 O   0  0  0  0  0  0
   29.6050   15.2408   28.1916 C   0  0  0  0  0  0
   29.5477   14.0571   27.8037 N   0  0  0  0  0  0
   30.8550   15.7336   28.5909 N   0  0  0  0  0  0
   22.6922   20.7163   31.4758 N   0  0  0  0  0  0
   27.7279   16.9346   30.6708 H   0  0  0  0  0  0
   18.5145   19.9368   36.1472 H   0  0  0  0  0  0
   18.5262   21.2207   34.0358 H   0  0  0  0  0  0
   20.6664   21.7625   32.9386 H   0  0  0  0  0  0
   22.7807   19.7446   36.0998 H   0  0  0  0  0  0
   20.6464   19.1928   37.1717 H   0  0  0  0  0  0
   23.9614   21.1444   34.5695 H   0  0  0  0  0  0
   23.1508   22.2344   33.5438 H   0  0  0  0  0  0
   23.7992   18.3545   31.6587 H   0  0  0  0  0  0
   22.4365   18.5639   32.7078 H   0  0  0  0  0  0
   23.9499   16.9990   33.6606 H   0  0  0  0  0  0
   23.8306   18.3757   34.6989 H   0  0  0  0  0  0
   26.1598   17.7106   32.8484 H   0  0  0  0  0  0
   26.0935   17.6070   34.5808 H   0  0  0  0  0  0
   27.2541   19.6303   34.2857 H   0  0  0  0  0  0
   25.6653   20.0961   34.6495 H   0  0  0  0  0  0
   28.2287   20.9097   32.8839 H   0  0  0  0  0  0
   27.5285   21.7611   31.5436 H   0  0  0  0  0  0
   26.2007   19.0486   30.8162 H   0  0  0  0  0  0
   25.5556   17.7663   28.6983 H   0  0  0  0  0  0
   25.2920   16.9367   30.2214 H   0  0  0  0  0  0
   25.1445   15.4437   28.2098 H   0  0  0  0  0  0
   26.3349   14.8968   29.3416 H   0  0  0  0  0  0
   26.9609   16.5066   26.8036 H   0  0  0  0  0  0
   27.2517   14.8080   27.0514 H   0  0  0  0  0  0
   29.4199   17.6766   29.2871 H   0  0  0  0  0  0
   29.2385   18.6871   27.4732 H   0  0  0  0  0  0
   30.4656   13.6285   27.7913 H   0  0  0  0  0  0
   31.6903   15.1979   28.3783 H   0  0  0  0  0  0
   31.0297   16.7253   28.7058 H   0  0  0  0  0  0
   23.1832   21.2583   30.7715 H   0  0  0  0  0  0
   22.3928   19.8645   31.0215 H   0  0  0  0  0  0
  1  6  1  0  0  0
  1  2  2  0  0  0
  1 32  1  0  0  0
  2  3  1  0  0  0
  2 33  1  0  0  0
  3  4  2  0  0  0
  3 34  1  0  0  0
  4  5  1  0  0  0
  4  7  1  0  0  0
  5  6  2  0  0  0
  5 35  1  0  0  0
  6 36  1  0  0  0
  7  8  1  0  0  0
  7 37  1  0  0  0
  7 38  1  0  0  0
  8 14  1  0  0  0
  8  9  1  0  0  0
  8 30  1  0  0  0
  9 10  1  0  0  0
  9 39  1  0  0  0
  9 40  1  0  0  0
 10 11  1  0  0  0
 10 41  1  0  0  0
 10 42  1  0  0  0
 11 12  1  0  0  0
 11 43  1  0  0  0
 11 44  1  0  0  0
 12 13  1  0  0  0
 12 45  1  0  0  0
 12 46  1  0  0  0
 13 14  1  0  0  0
 13 16  1  0  0  0
 14 15  2  0  0  0
 16 17  1  0  0  0
 16 47  1  0  0  0
 16 48  1  0  0  0
 17 18  2  0  0  0
 17 19  1  0  0  0
 19 20  1  0  0  0
 19 49  1  0  0  0
 20 31  1  0  0  0
 20 25  1  0  0  0
 20 21  1  0  0  0
 21 22  1  0  0  0
 21 50  1  0  0  0
 21 51  1  0  0  0
 22 23  1  0  0  0
 22 52  1  0  0  0
 22 53  1  0  0  0
 23 24  1  0  0  0
 23 54  1  0  0  0
 23 55  1  0  0  0
 24 25  1  0  0  0
 24 27  1  0  0  0
 25 26  1  0  0  0
 25 56  1  0  0  0
 26 57  1  0  0  0
 27 28  2  3  0  0
 27 29  1  0  0  0
 28 58  1  0  0  0
 29 59  1  0  0  0
 29 60  1  0  0  0
 30 61  1  0  0  0
 30 62  1  0  0  0
M  END
> <s_m_entry_id>
40039

> <s_m_entry_name>
ligand_docking-pose.80

> <s_m_Source_Path>
/home/csk/Desktop/cluster/DUD-E-result/try1

> <s_m_Source_File>
ligand_docking-pose.sdf

> <i_m_Source_File_Index>
80

> <i_lp_mmshare_version>
53161

> <i_f3d_flags>
0

> <r_lp_tautomer_probability>
1

> <s_lp_Force_Field>
OPLS_2005

> <r_lp_Energy>
42.036389

> <b_lp_Chiralities_Consistent>
1

> <s_lp_Variant>
128760-1

> <s_i_glide_gridfile>
glide-grid_2ayw

> <i_i_glide_lignum>
403

> <i_i_glide_rotatable_bonds>
8

> <r_i_docking_score>
-6.9659185693734

> <r_i_glide_ligand_efficiency>
-0.23219728564578

> <r_i_glide_ligand_efficiency_sa>
-0.721490952934843

> <r_i_glide_ligand_efficiency_ln>
-1.58273259872354

> <r_i_glide_gscore>
-6.9659185693734

> <r_i_glide_lipo>
-1.79756677624316

> <r_i_glide_hbond>
-0.808820031068064

> <r_i_glide_metal>
0

> <r_i_glide_rewards>
-1.39235435546725

> <r_i_glide_evdw>
-35.4433860778809

> <r_i_glide_ecoul>
-12.0730142593384

> <r_i_glide_erotb>
0.683281471445277

> <r_i_glide_esite>
-0.0673374352453998

> <r_i_glide_emodel>
-56.9500568870107

> <r_i_glide_energy>
-47.5164003372192

> <r_i_glide_einternal>
16.2351360321045

> <i_i_glide_confnum>
165

> <i_i_glide_posenum>
214

> <r_i_glide_eff_state_penalty>
0

> <s_user_duplicate_titles>
128760

> <s_m_subgroup_title>
dock_pv

> <s_m_subgroupid>
dock_pv1

> <b_m_subgroup_collapsed>
0

$$$$
202506
                    3D
 Schrodinger Suite 2021-1.
 68 71  0  0  1  0            999 V2000
   30.9419   22.9105   32.2374 C   0  0  0  0  0  0
   30.3133   22.9485   30.9944 C   0  0  0  0  0  0
   29.5543   21.8601   30.5723 C   0  0  0  0  0  0
   29.4399   20.7361   31.3915 C   0  0  0  0  0  0
   30.0558   20.7085   32.6441 C   0  0  0  0  0  0
   30.8138   21.7977   33.0655 C   0  0  0  0  0  0
   28.5872   19.5664   30.9451 C   0  0  0  0  0  0
   26.7973   19.8478   31.4320 S   0  0  0  0  0  0
   26.7513   19.9439   32.8928 O   0  0  0  0  0  0
   26.2838   20.9329   30.5910 O   0  0  0  0  0  0
   25.9912   18.3336   31.0004 N   0  0  2  0  0  0
   25.0362   18.1731   29.8573 C   0  0  2  0  0  0
   25.7939   18.0022   28.5105 C   0  0  0  0  0  0
   26.8489   16.9172   28.4657 C   0  0  0  0  0  0
   28.1830   17.2536   28.2195 C   0  0  0  0  0  0
   29.1410   16.2573   28.0913 C   0  0  0  0  0  0
   28.7619   14.9211   28.1538 C   0  0  0  0  0  0
   27.4307   14.5734   28.4215 C   0  0  0  0  0  0
   26.4792   15.5771   28.5879 C   0  0  0  0  0  0
   26.9438   12.9212   28.5910 Cl  0  0  0  0  0  0
   29.9528   13.7330   27.7946 Cl  0  0  0  0  0  0
   23.9433   19.2889   29.8012 C   0  0  0  0  0  0
   23.6345   19.7358   28.6922 O   0  0  0  0  0  0
   23.3150   19.7325   30.9265 N   0  0  0  0  0  0
   23.3574   19.0807   32.2435 C   0  0  0  0  0  0
   22.2571   19.7304   33.0780 C   0  0  0  0  0  0
   22.1163   21.1063   32.4506 C   0  0  0  0  0  0
   22.3856   20.8861   30.9498 C   0  0  1  0  0  0
   22.8963   22.1697   30.2575 C   0  0  0  0  0  0
   23.8415   22.7957   30.7389 O   0  0  0  0  0  0
   22.2505   22.5242   29.1348 N   0  0  0  0  0  0
   22.5418   23.7140   28.3349 C   0  0  0  0  0  0
   22.5627   23.4710   26.8277 C   0  0  0  0  0  0
   21.6678   22.5886   26.2061 C   0  0  0  0  0  0
   21.7182   22.4108   24.8226 C   0  0  0  0  0  0
   22.6725   23.1177   24.0925 C   0  0  0  0  0  0
   23.5529   23.9687   24.6695 N   0  0  0  0  0  0
   23.4927   24.1328   26.0163 C   0  0  0  0  0  0
   22.7532   22.9620   22.7143 N   0  0  0  0  0  0
   24.4787   17.2551   30.0534 H   0  0  0  0  0  0
   21.4662   20.5532   30.4667 H   0  0  0  0  0  0
   31.5293   23.7544   32.5659 H   0  0  0  0  0  0
   30.4093   23.8209   30.3629 H   0  0  0  0  0  0
   29.0552   21.8956   29.6141 H   0  0  0  0  0  0
   29.9450   19.8471   33.2882 H   0  0  0  0  0  0
   31.2914   21.7815   34.0341 H   0  0  0  0  0  0
   28.6175   19.4583   29.8663 H   0  0  0  0  0  0
   28.9117   18.6278   31.3929 H   0  0  0  0  0  0
   25.7713   17.7415   31.8051 H   0  0  0  0  0  0
   25.1053   17.7838   27.6959 H   0  0  0  0  0  0
   26.2672   18.9336   28.2286 H   0  0  0  0  0  0
   28.4825   18.2811   28.0804 H   0  0  0  0  0  0
   30.1669   16.5194   27.8709 H   0  0  0  0  0  0
   25.4491   15.3122   28.7784 H   0  0  0  0  0  0
   23.2245   17.9986   32.1804 H   0  0  0  0  0  0
   24.3090   19.2841   32.7285 H   0  0  0  0  0  0
   21.3236   19.1762   32.9908 H   0  0  0  0  0  0
   22.5023   19.7691   34.1400 H   0  0  0  0  0  0
   21.1382   21.5488   32.6419 H   0  0  0  0  0  0
   22.8664   21.7690   32.8857 H   0  0  0  0  0  0
   21.4728   21.9549   28.8346 H   0  0  0  0  0  0
   21.7674   24.4518   28.5466 H   0  0  0  0  0  0
   23.4802   24.1825   28.6419 H   0  0  0  0  0  0
   20.9297   22.0480   26.7807 H   0  0  0  0  0  0
   21.0323   21.7369   24.3354 H   0  0  0  0  0  0
   24.2168   24.8154   26.4381 H   0  0  0  0  0  0
   22.0663   22.4041   22.2306 H   0  0  0  0  0  0
   23.4346   23.5154   22.2147 H   0  0  0  0  0  0
  1  6  1  0  0  0
  1  2  2  0  0  0
  1 42  1  0  0  0
  2  3  1  0  0  0
  2 43  1  0  0  0
  3  4  2  0  0  0
  3 44  1  0  0  0
  4  5  1  0  0  0
  4  7  1  0  0  0
  5  6  2  0  0  0
  5 45  1  0  0  0
  6 46  1  0  0  0
  7  8  1  0  0  0
  7 47  1  0  0  0
  7 48  1  0  0  0
  8  9  2  0  0  0
  8 10  2  0  0  0
  8 11  1  0  0  0
 11 12  1  0  0  0
 11 49  1  0  0  0
 12 40  1  0  0  0
 12 13  1  0  0  0
 12 22  1  0  0  0
 13 14  1  0  0  0
 13 50  1  0  0  0
 13 51  1  0  0  0
 14 19  1  0  0  0
 14 15  2  0  0  0
 15 16  1  0  0  0
 15 52  1  0  0  0
 16 17  2  0  0  0
 16 53  1  0  0  0
 17 18  1  0  0  0
 17 21  1  0  0  0
 18 19  2  0  0  0
 18 20  1  0  0  0
 19 54  1  0  0  0
 22 23  2  0  0  0
 22 24  1  0  0  0
 24 28  1  0  0  0
 24 25  1  0  0  0
 25 26  1  0  0  0
 25 55  1  0  0  0
 25 56  1  0  0  0
 26 27  1  0  0  0
 26 57  1  0  0  0
 26 58  1  0  0  0
 27 28  1  0  0  0
 27 59  1  0  0  0
 27 60  1  0  0  0
 28 41  1  0  0  0
 28 29  1  0  0  0
 29 30  2  0  0  0
 29 31  1  0  0  0
 31 32  1  0  0  0
 31 61  1  0  0  0
 32 33  1  0  0  0
 32 62  1  0  0  0
 32 63  1  0  0  0
 33 38  1  0  0  0
 33 34  2  0  0  0
 34 35  1  0  0  0
 34 64  1  0  0  0
 35 36  2  0  0  0
 35 65  1  0  0  0
 36 37  1  0  0  0
 36 39  1  0  0  0
 37 38  2  0  0  0
 38 66  1  0  0  0
 39 67  1  0  0  0
 39 68  1  0  0  0
M  END
> <s_m_entry_id>
40040

> <s_m_entry_name>
ligand_docking-pose.81

> <s_m_Source_Path>
/home/csk/Desktop/cluster/DUD-E-result/try1

> <s_m_Source_File>
ligand_docking-pose.sdf

> <i_m_Source_File_Index>
81

> <i_lp_mmshare_version>
53161

> <i_f3d_flags>
0

> <r_lp_tautomer_probability>
0.999999772200052

> <s_lp_Force_Field>
OPLS_2005

> <r_lp_Energy>
19.894305

> <b_lp_Chiralities_Consistent>
1

> <s_lp_Variant>
202506-1

> <s_i_glide_gridfile>
glide-grid_2ayw

> <i_i_glide_lignum>
854

> <i_i_glide_rotatable_bonds>
12

> <r_i_docking_score>
-6.96321195212915

> <r_i_glide_ligand_efficiency>
-0.17854389620844

> <r_i_glide_ligand_efficiency_sa>
-0.60548010316299

> <r_i_glide_ligand_efficiency_ln>
-1.49311030506223

> <r_i_glide_gscore>
-6.96321195212915

> <r_i_glide_lipo>
-3.19834660866933

> <r_i_glide_hbond>
0

> <r_i_glide_metal>
0

> <r_i_glide_rewards>
-0.0962279912636153

> <r_i_glide_evdw>
-52.5163917541504

> <r_i_glide_ecoul>
-9.77258586883545

> <r_i_glide_erotb>
0.492055257183069

> <r_i_glide_esite>
-0.0689851413464401

> <r_i_glide_emodel>
-83.8971943757106

> <r_i_glide_energy>
-62.2889776229858

> <r_i_glide_einternal>
6.92294645309448

> <i_i_glide_confnum>
37

> <i_i_glide_posenum>
383

> <r_i_glide_eff_state_penalty>
0

> <s_user_duplicate_titles>
202506

> <s_m_subgroup_title>
dock_pv

> <s_m_subgroupid>
dock_pv1

> <b_m_subgroup_collapsed>
0

$$$$
291575
                    3D
 Schrodinger Suite 2021-1.
 50 53  0  0  1  0            999 V2000
   20.7170   23.4251   25.3960 C   0  0  0  0  0  0
   19.4016   23.6363   25.8033 C   0  0  0  0  0  0
   18.8812   23.0371   26.9681 C   0  0  0  0  0  0
   19.7662   22.2440   27.7211 C   0  0  0  0  0  0
   21.1088   22.0603   27.3518 C   0  0  0  0  0  0
   21.5660   22.6376   26.1642 C   0  0  0  0  0  0
   22.0607   21.2849   28.2267 C   0  0  0  0  0  0
   22.9777   20.6344   27.7224 O   0  0  0  0  0  0
   21.8235   21.4311   29.5508 N   0  0  0  0  0  0
   22.5103   20.9328   30.6678 C   0  0  0  0  0  0
   21.9519   21.2421   31.9089 C   0  0  0  0  0  0
   22.5351   20.8175   33.0995 C   0  0  0  0  0  0
   23.7090   20.0548   33.0494 C   0  0  0  0  0  0
   24.5623   19.4790   34.0408 C   0  0  0  0  0  0
   25.5727   18.8291   33.3651 C   0  0  0  0  0  0
   25.4029   18.9621   32.0020 N   0  0  0  0  0  0
   24.2658   19.7298   31.7751 C   0  0  0  0  0  0
   23.6835   20.1747   30.5797 C   0  0  0  0  0  0
   26.2171   18.3506   31.0262 C   0  0  0  0  0  0
   25.6272   17.7307   29.9235 C   0  0  0  0  0  0
   26.4181   17.0708   28.9914 C   0  0  0  0  0  0
   27.8147   17.0243   29.1318 C   0  0  0  0  0  0
   28.3951   17.7254   30.2049 C   0  0  0  0  0  0
   27.6071   18.3766   31.1483 C   0  0  0  0  0  0
   28.6244   16.2120   28.1910 C   0  0  0  0  0  0
   28.1090   15.2991   27.4991 N   0  0  0  0  0  0
   29.9529   16.5326   28.1164 N   0  0  0  0  0  0
   17.4576   23.2434   27.3696 C   0  0  0  0  0  0
   16.7532   24.1337   26.8197 N   0  0  0  0  0  0
   16.9978   22.3909   28.3463 N   0  0  0  0  0  0
   21.0811   23.8801   24.4868 H   0  0  0  0  0  0
   18.7829   24.2549   25.1703 H   0  0  0  0  0  0
   19.4148   21.7708   28.6266 H   0  0  0  0  0  0
   22.5909   22.5024   25.8450 H   0  0  0  0  0  0
   21.0323   22.0098   29.7808 H   0  0  0  0  0  0
   21.0438   21.8264   31.9627 H   0  0  0  0  0  0
   22.0888   21.0737   34.0495 H   0  0  0  0  0  0
   24.4488   19.5198   35.1142 H   0  0  0  0  0  0
   26.4001   18.2484   33.7465 H   0  0  0  0  0  0
   24.1399   19.9365   29.6350 H   0  0  0  0  0  0
   24.5520   17.6849   29.8151 H   0  0  0  0  0  0
   25.9253   16.5539   28.1789 H   0  0  0  0  0  0
   29.4662   17.7303   30.3521 H   0  0  0  0  0  0
   28.0843   18.8756   31.9798 H   0  0  0  0  0  0
   28.8585   14.9332   26.9289 H   0  0  0  0  0  0
   30.5505   16.0020   27.4947 H   0  0  0  0  0  0
   30.3745   17.3217   28.5941 H   0  0  0  0  0  0
   17.2765   24.6739   26.1457 H   0  0  0  0  0  0
   16.0467   22.4747   28.6695 H   0  0  0  0  0  0
   17.5588   21.6206   28.6756 H   0  0  0  0  0  0
  1  6  1  0  0  0
  1  2  2  0  0  0
  1 31  1  0  0  0
  2  3  1  0  0  0
  2 32  1  0  0  0
  3  4  2  0  0  0
  3 28  1  0  0  0
  4  5  1  0  0  0
  4 33  1  0  0  0
  5  6  2  0  0  0
  5  7  1  0  0  0
  6 34  1  0  0  0
  7  8  2  0  0  0
  7  9  1  0  0  0
  9 10  1  0  0  0
  9 35  1  0  0  0
 10 18  1  0  0  0
 10 11  2  0  0  0
 11 12  1  0  0  0
 11 36  1  0  0  0
 12 13  2  0  0  0
 12 37  1  0  0  0
 13 17  1  0  0  0
 13 14  1  0  0  0
 14 15  2  0  0  0
 14 38  1  0  0  0
 15 16  1  0  0  0
 15 39  1  0  0  0
 16 17  1  0  0  0
 16 19  1  0  0  0
 17 18  2  0  0  0
 18 40  1  0  0  0
 19 24  1  0  0  0
 19 20  2  0  0  0
 20 21  1  0  0  0
 20 41  1  0  0  0
 21 22  2  0  0  0
 21 42  1  0  0  0
 22 23  1  0  0  0
 22 25  1  0  0  0
 23 24  2  0  0  0
 23 43  1  0  0  0
 24 44  1  0  0  0
 25 26  2  3  0  0
 25 27  1  0  0  0
 26 45  1  0  0  0
 27 46  1  0  0  0
 27 47  1  0  0  0
 28 29  2  3  0  0
 28 30  1  0  0  0
 29 48  1  0  0  0
 30 49  1  0  0  0
 30 50  1  0  0  0
M  END
> <s_m_entry_id>
40041

> <s_m_entry_name>
ligand_docking-pose.82

> <s_m_Source_Path>
/home/csk/Desktop/cluster/DUD-E-result/try1

> <s_m_Source_File>
ligand_docking-pose.sdf

> <i_m_Source_File_Index>
82

> <i_lp_mmshare_version>
53161

> <i_f3d_flags>
0

> <r_lp_tautomer_probability>
1

> <s_lp_Force_Field>
OPLS_2005

> <r_lp_Energy>
23.85443

> <b_lp_Chiralities_Consistent>
1

> <s_lp_Variant>
291575-3

> <s_i_glide_gridfile>
glide-grid_2ayw

> <i_i_glide_lignum>
705

> <i_i_glide_rotatable_bonds>
6

> <r_i_docking_score>
-6.96288063692294

> <r_i_glide_ligand_efficiency>
-0.232096021230765

> <r_i_glide_ligand_efficiency_sa>
-0.721176300853168

> <r_i_glide_ligand_efficiency_ln>
-1.58204234736987

> <r_i_glide_gscore>
-6.96288063692294

> <r_i_glide_lipo>
-1.76568753652656

> <r_i_glide_hbond>
-0.879540249785639

> <r_i_glide_metal>
0

> <r_i_glide_rewards>
-1.27673363582169

> <r_i_glide_evdw>
-40.3222312927246

> <r_i_glide_ecoul>
-9.78871822357178

> <r_i_glide_erotb>
0.497935367953853

> <r_i_glide_esite>
-0.0544352845709141

> <r_i_glide_emodel>
-69.7480567602856

> <r_i_glide_energy>
-50.1109495162964

> <r_i_glide_einternal>
1.49847197532654

> <i_i_glide_confnum>
21

> <i_i_glide_posenum>
273

> <r_i_glide_eff_state_penalty>
0

> <s_user_duplicate_titles>
291575

> <s_m_subgroup_title>
dock_pv

> <s_m_subgroupid>
dock_pv1

> <b_m_subgroup_collapsed>
0

$$$$
217241
                    3D
 Schrodinger Suite 2021-1.
 63 66  0  0  1  0            999 V2000
   28.4186   15.5493   28.1539 C   0  0  0  0  0  0
   27.2370   15.3453   27.4428 C   0  0  0  0  0  0
   26.1670   16.2194   27.6065 C   0  0  0  0  0  0
   26.2810   17.2781   28.4991 C   0  0  0  0  0  0
   27.4326   17.4793   29.2670 C   0  0  0  0  0  0
   28.5234   16.6156   29.0486 C   0  0  0  0  0  0
   27.4289   18.5732   30.1777 N   0  0  0  0  0  0
   26.3200   19.2999   30.5222 C   0  0  0  0  0  0
   26.3387   20.3182   31.2183 O   0  0  0  0  0  0
   25.0129   18.6748   29.9120 C   0  0  2  0  0  0
   25.2382   18.1715   28.5835 O   0  0  0  0  0  0
   23.8059   19.6386   29.9650 C   0  0  0  0  0  0
   23.3897   20.2002   31.1790 C   0  0  0  0  0  0
   22.2957   21.0542   31.2215 C   0  0  0  0  0  0
   21.5780   21.3344   30.0627 C   0  0  0  0  0  0
   21.9293   20.7607   28.8272 C   0  0  0  0  0  0
   23.0587   19.9142   28.8105 C   0  0  0  0  0  0
   21.1192   21.0413   27.6049 C   0  0  0  0  0  0
   20.3344   22.0252   27.5471 N   0  0  0  0  0  0
   21.2947   20.1334   26.5900 N   0  0  0  0  0  0
   28.7124   18.9646   30.8014 C   0  0  0  0  0  0
   29.5532   19.9678   29.9969 C   0  0  0  0  0  0
   28.9752   21.3891   29.9150 C   0  0  0  0  0  0
   29.9051   22.4551   29.2931 C   0  0  0  0  0  0
   30.4074   22.1464   27.8606 C   0  0  0  0  0  0
   31.3683   23.1405   27.3555 N   0  0  0  0  0  0
   30.7136   24.4173   27.0227 C   0  0  0  0  0  0
   31.7036   25.4618   26.4661 C   0  0  0  0  0  0
   32.4769   24.9323   25.2488 C   0  0  0  0  0  0
   33.1286   23.5896   25.6057 C   0  0  0  0  0  0
   32.1198   22.5907   26.2126 C   0  0  0  0  0  0
   29.2617   14.8891   28.0062 H   0  0  0  0  0  0
   27.1532   14.5338   26.7365 H   0  0  0  0  0  0
   25.2644   16.0919   27.0256 H   0  0  0  0  0  0
   29.4619   16.7282   29.5609 H   0  0  0  0  0  0
   24.7293   17.8339   30.5512 H   0  0  0  0  0  0
   23.9191   19.9821   32.0939 H   0  0  0  0  0  0
   21.9916   21.4909   32.1634 H   0  0  0  0  0  0
   20.7203   21.9826   30.1530 H   0  0  0  0  0  0
   23.3720   19.4646   27.8812 H   0  0  0  0  0  0
   20.3477   22.5775   28.3897 H   0  0  0  0  0  0
   20.6954   20.2191   25.7765 H   0  0  0  0  0  0
   21.6792   19.2323   26.8153 H   0  0  0  0  0  0
   29.3185   18.0862   30.9997 H   0  0  0  0  0  0
   28.5263   19.3819   31.7937 H   0  0  0  0  0  0
   29.7560   19.5670   29.0054 H   0  0  0  0  0  0
   30.5055   20.0319   30.5114 H   0  0  0  0  0  0
   28.7089   21.7179   30.9209 H   0  0  0  0  0  0
   28.0349   21.3325   29.3776 H   0  0  0  0  0  0
   30.7546   22.6244   29.9566 H   0  0  0  0  0  0
   29.3407   23.3871   29.2833 H   0  0  0  0  0  0
   29.5633   22.0461   27.1764 H   0  0  0  0  0  0
   30.8795   21.1636   27.8765 H   0  0  0  0  0  0
   30.2187   24.8277   27.9013 H   0  0  0  0  0  0
   29.9346   24.2258   26.2831 H   0  0  0  0  0  0
   32.3836   25.7799   27.2581 H   0  0  0  0  0  0
   31.1510   26.3591   26.1841 H   0  0  0  0  0  0
   31.7934   24.7986   24.4081 H   0  0  0  0  0  0
   33.2286   25.6540   24.9264 H   0  0  0  0  0  0
   33.5659   23.1549   24.7046 H   0  0  0  0  0  0
   33.9709   23.7264   26.2881 H   0  0  0  0  0  0
   32.6688   21.7196   26.5583 H   0  0  0  0  0  0
   31.4266   22.2445   25.4425 H   0  0  0  0  0  0
  1  6  1  0  0  0
  1  2  2  0  0  0
  1 32  1  0  0  0
  2  3  1  0  0  0
  2 33  1  0  0  0
  3  4  2  0  0  0
  3 34  1  0  0  0
  4 11  1  0  0  0
  4  5  1  0  0  0
  5  6  2  0  0  0
  5  7  1  0  0  0
  6 35  1  0  0  0
  7  8  1  0  0  0
  7 21  1  0  0  0
  8  9  2  0  0  0
  8 10  1  0  0  0
 10 11  1  0  0  0
 10 12  1  0  0  0
 10 36  1  0  0  0
 12 17  1  0  0  0
 12 13  2  0  0  0
 13 14  1  0  0  0
 13 37  1  0  0  0
 14 15  2  0  0  0
 14 38  1  0  0  0
 15 16  1  0  0  0
 15 39  1  0  0  0
 16 17  2  0  0  0
 16 18  1  0  0  0
 17 40  1  0  0  0
 18 19  2  3  0  0
 18 20  1  0  0  0
 19 41  1  0  0  0
 20 42  1  0  0  0
 20 43  1  0  0  0
 21 22  1  0  0  0
 21 44  1  0  0  0
 21 45  1  0  0  0
 22 23  1  0  0  0
 22 46  1  0  0  0
 22 47  1  0  0  0
 23 24  1  0  0  0
 23 48  1  0  0  0
 23 49  1  0  0  0
 24 25  1  0  0  0
 24 50  1  0  0  0
 24 51  1  0  0  0
 25 26  1  0  0  0
 25 52  1  0  0  0
 25 53  1  0  0  0
 26 31  1  0  0  0
 26 27  1  0  0  0
 27 28  1  0  0  0
 27 54  1  0  0  0
 27 55  1  0  0  0
 28 29  1  0  0  0
 28 56  1  0  0  0
 28 57  1  0  0  0
 29 30  1  0  0  0
 29 58  1  0  0  0
 29 59  1  0  0  0
 30 31  1  0  0  0
 30 60  1  0  0  0
 30 61  1  0  0  0
 31 62  1  0  0  0
 31 63  1  0  0  0
M  END
> <s_m_entry_id>
40042

> <s_m_entry_name>
ligand_docking-pose.83

> <s_m_Source_Path>
/home/csk/Desktop/cluster/DUD-E-result/try1

> <s_m_Source_File>
ligand_docking-pose.sdf

> <i_m_Source_File_Index>
83

> <i_lp_mmshare_version>
53161

> <i_f3d_flags>
0

> <r_lp_tautomer_probability>
1

> <s_lp_Force_Field>
OPLS_2005

> <r_lp_Energy>
43.904978

> <b_lp_Chiralities_Consistent>
1

> <s_lp_Variant>
217241-4

> <s_i_glide_gridfile>
glide-grid_2ayw

> <i_i_glide_lignum>
134

> <i_i_glide_rotatable_bonds>
8

> <r_i_docking_score>
-6.96225549330967

> <r_i_glide_ligand_efficiency>
-0.224588886880957

> <r_i_glide_ligand_efficiency_sa>
-0.705519183182377

> <r_i_glide_ligand_efficiency_ln>
-1.57020198124773

> <r_i_glide_gscore>
-6.96225549330967

> <r_i_glide_lipo>
-3.46503379726457

> <r_i_glide_hbond>
-0.316030092680979

> <r_i_glide_metal>
0

> <r_i_glide_rewards>
-1.02535002689765

> <r_i_glide_evdw>
-45.3609466552734

> <r_i_glide_ecoul>
-3.72859215736389

> <r_i_glide_erotb>
0.67149457990178

> <r_i_glide_esite>
0

> <r_i_glide_emodel>
-67.6437664321501

> <r_i_glide_energy>
-49.0895388126373

> <r_i_glide_einternal>
3.69193530082703

> <i_i_glide_confnum>
15

> <i_i_glide_posenum>
132

> <r_i_glide_eff_state_penalty>
0

> <s_user_duplicate_titles>
217241

> <s_m_subgroup_title>
dock_pv

> <s_m_subgroupid>
dock_pv1

> <b_m_subgroup_collapsed>
0

$$$$
33671
                    3D
 Schrodinger Suite 2021-1.
 58 60  0  0  1  0            999 V2000
   19.8809   19.5428   36.4573 C   0  0  0  0  0  0
   18.5409   19.9781   35.8769 C   0  0  0  0  0  0
   17.5534   19.2470   36.1755 N   0  0  0  0  0  0
   18.5395   21.1239   35.0778 N   0  0  0  0  0  0
   17.3499   21.5359   34.3074 C   0  0  0  0  0  0
   17.7554   21.8566   32.8518 C   0  0  0  0  0  0
   18.8514   22.9371   32.7983 C   0  0  0  0  0  0
   20.0468   22.4980   33.6700 C   0  0  0  0  0  0
   19.5898   22.1621   35.1074 C   0  0  0  0  0  0
   19.1971   23.3641   31.4735 O   0  0  0  0  0  0
   19.8383   22.4664   30.6497 C   0  0  0  0  0  0
   21.2345   22.4635   30.5980 C   0  0  0  0  0  0
   21.9090   21.5742   29.7609 C   0  0  0  0  0  0
   21.1903   20.6741   28.9671 C   0  0  0  0  0  0
   19.7945   20.7030   28.9912 C   0  0  0  0  0  0
   19.1190   21.6023   29.8153 C   0  0  0  0  0  0
   17.7670   21.6344   29.7898 F   0  0  0  0  0  0
   21.7927   19.7153   28.1453 N   0  0  0  0  0  0
   23.1481   19.8314   27.6289 C   0  0  0  0  0  0
   24.3289   19.4228   28.5014 C   0  0  0  0  0  0
   25.1932   18.4324   28.1907 C   0  0  0  0  0  0
   26.4783   18.1092   28.8453 C   0  0  0  0  0  0
   27.0290   18.9249   29.8389 C   0  0  0  0  0  0
   28.3129   18.6831   30.3135 C   0  0  0  0  0  0
   29.0580   17.6271   29.7975 C   0  0  0  0  0  0
   28.5337   16.7550   28.8295 C   0  0  0  0  0  0
   27.2244   17.0150   28.3792 C   0  0  0  0  0  0
   29.3229   15.6060   28.3025 C   0  0  0  0  0  0
   28.7539   14.6091   27.7913 N   0  0  0  0  0  0
   30.6872   15.7331   28.4249 N   0  0  0  0  0  0
   20.6600   19.5492   35.6947 H   0  0  0  0  0  0
   20.1887   20.2035   37.2676 H   0  0  0  0  0  0
   19.8525   18.5311   36.8662 H   0  0  0  0  0  0
   16.6997   19.5939   35.7628 H   0  0  0  0  0  0
   16.9723   22.4370   34.7939 H   0  0  0  0  0  0
   16.5436   20.8011   34.3252 H   0  0  0  0  0  0
   16.8719   22.1729   32.2977 H   0  0  0  0  0  0
   18.1255   20.9340   32.4056 H   0  0  0  0  0  0
   18.4316   23.8347   33.2553 H   0  0  0  0  0  0
   20.5136   21.6041   33.2543 H   0  0  0  0  0  0
   20.8000   23.2842   33.7144 H   0  0  0  0  0  0
   19.1127   23.0411   35.5443 H   0  0  0  0  0  0
   20.4385   21.9303   35.7503 H   0  0  0  0  0  0
   21.7939   23.1503   31.2154 H   0  0  0  0  0  0
   22.9859   21.5857   29.7512 H   0  0  0  0  0  0
   19.2202   20.0262   28.3748 H   0  0  0  0  0  0
   21.1425   19.2181   27.5534 H   0  0  0  0  0  0
   23.3274   20.8302   27.2277 H   0  0  0  0  0  0
   23.1568   19.1884   26.7485 H   0  0  0  0  0  0
   24.4888   20.0206   29.3842 H   0  0  0  0  0  0
   24.9749   17.8233   27.3231 H   0  0  0  0  0  0
   26.4881   19.7731   30.2291 H   0  0  0  0  0  0
   28.7406   19.3202   31.0737 H   0  0  0  0  0  0
   30.0504   17.4743   30.1927 H   0  0  0  0  0  0
   26.7971   16.3811   27.6130 H   0  0  0  0  0  0
   29.4682   13.9428   27.5290 H   0  0  0  0  0  0
   31.3025   15.0556   27.9798 H   0  0  0  0  0  0
   31.0803   16.6497   28.6146 H   0  0  0  0  0  0
  1  2  1  0  0  0
  1 31  1  0  0  0
  1 32  1  0  0  0
  1 33  1  0  0  0
  2  3  2  3  0  0
  2  4  1  0  0  0
  3 34  1  0  0  0
  4  9  1  0  0  0
  4  5  1  0  0  0
  5  6  1  0  0  0
  5 35  1  0  0  0
  5 36  1  0  0  0
  6  7  1  0  0  0
  6 37  1  0  0  0
  6 38  1  0  0  0
  7  8  1  0  0  0
  7 10  1  0  0  0
  7 39  1  0  0  0
  8  9  1  0  0  0
  8 40  1  0  0  0
  8 41  1  0  0  0
  9 42  1  0  0  0
  9 43  1  0  0  0
 10 11  1  0  0  0
 11 16  1  0  0  0
 11 12  2  0  0  0
 12 13  1  0  0  0
 12 44  1  0  0  0
 13 14  2  0  0  0
 13 45  1  0  0  0
 14 15  1  0  0  0
 14 18  1  0  0  0
 15 16  2  0  0  0
 15 46  1  0  0  0
 16 17  1  0  0  0
 18 19  1  0  0  0
 18 47  1  0  0  0
 19 20  1  0  0  0
 19 48  1  0  0  0
 19 49  1  0  0  0
 20 21  2  0  0  0
 20 50  1  0  0  0
 21 22  1  0  0  0
 21 51  1  0  0  0
 22 27  1  0  0  0
 22 23  2  0  0  0
 23 24  1  0  0  0
 23 52  1  0  0  0
 24 25  2  0  0  0
 24 53  1  0  0  0
 25 26  1  0  0  0
 25 54  1  0  0  0
 26 27  2  0  0  0
 26 28  1  0  0  0
 27 55  1  0  0  0
 28 29  2  3  0  0
 28 30  1  0  0  0
 29 56  1  0  0  0
 30 57  1  0  0  0
 30 58  1  0  0  0
M  END
> <s_m_entry_id>
40043

> <s_m_entry_name>
ligand_docking-pose.84

> <s_m_Source_Path>
/home/csk/Desktop/cluster/DUD-E-result/try1

> <s_m_Source_File>
ligand_docking-pose.sdf

> <i_m_Source_File_Index>
84

> <i_lp_mmshare_version>
53161

> <i_f3d_flags>
0

> <r_lp_tautomer_probability>
0.499900269896156

> <s_lp_Force_Field>
OPLS_2005

> <r_lp_Energy>
26.152688

> <b_lp_Chiralities_Consistent>
1

> <s_lp_Variant>
33671-2

> <s_i_glide_gridfile>
glide-grid_2ayw

> <i_i_glide_lignum>
1919

> <i_i_glide_rotatable_bonds>
8

> <r_i_docking_score>
-6.95501392283886

> <r_i_glide_ligand_efficiency>
-0.231833797427962

> <r_i_glide_ligand_efficiency_sa>
-0.720361510530189

> <r_i_glide_ligand_efficiency_ln>
-1.58025494421526

> <r_i_glide_gscore>
-6.95501392283886

> <r_i_glide_lipo>
-2.02858968509672

> <r_i_glide_hbond>
-1.11255557481611

> <r_i_glide_metal>
0

> <r_i_glide_rewards>
-0.98376528792606

> <r_i_glide_evdw>
-35.551685333252

> <r_i_glide_ecoul>
-11.163462638855

> <r_i_glide_erotb>
0.70456289884426

> <r_i_glide_esite>
-0.0825626113533952

> <r_i_glide_emodel>
-57.4732673064086

> <r_i_glide_energy>
-46.7151479721069

> <r_i_glide_einternal>
12.7361755371094

> <i_i_glide_confnum>
16

> <i_i_glide_posenum>
76

> <r_i_glide_eff_state_penalty>
0

> <s_user_duplicate_titles>
33671

> <s_m_subgroup_title>
dock_pv

> <s_m_subgroupid>
dock_pv1

> <b_m_subgroup_collapsed>
0

$$$$
152150
                    3D
 Schrodinger Suite 2021-1.
 42 45  0  0  1  0            999 V2000
   17.5775   21.3338   28.1915 C   0  0  0  0  0  0
   17.6984   21.3615   29.5756 C   0  0  0  0  0  0
   18.9605   21.4316   30.1553 C   0  0  0  0  0  0
   20.1124   21.4723   29.3591 C   0  0  0  0  0  0
   19.9708   21.4538   27.9654 C   0  0  0  0  0  0
   18.7097   21.3780   27.3828 C   0  0  0  0  0  0
   21.4627   21.5354   29.9941 C   0  0  0  0  0  0
   21.6875   22.4714   31.0079 C   0  0  0  0  0  0
   22.9227   22.5678   31.6347 C   0  0  0  0  0  0
   23.9542   21.7105   31.2671 C   0  0  0  0  0  0
   23.7756   20.7434   30.2651 C   0  0  0  0  0  0
   22.5179   20.6722   29.6251 C   0  0  0  0  0  0
   22.2807   19.7324   28.6516 O   0  0  0  0  0  0
   24.9276   19.8197   29.9487 C   0  0  0  0  0  0
   25.0758   18.8250   28.9908 C   0  0  0  0  0  0
   26.3632   18.2276   29.1222 C   0  0  0  0  0  0
   27.0252   17.1844   28.4640 C   0  0  0  0  0  0
   28.3244   16.8171   28.8552 C   0  0  0  0  0  0
   28.9454   17.5597   29.8745 C   0  0  0  0  0  0
   28.3255   18.6067   30.5520 C   0  0  0  0  0  0
   27.0209   18.9167   30.1666 C   0  0  0  0  0  0
   26.1252   19.8536   30.6339 N   0  0  0  0  0  0
   28.9932   15.6481   28.2288 C   0  0  0  0  0  0
   28.3072   14.6857   27.7912 N   0  0  0  0  0  0
   30.3613   15.7420   28.1901 N   0  0  0  0  0  0
   26.2874   20.4962   31.3939 H   0  0  0  0  0  0
   16.5956   21.2659   27.7478 H   0  0  0  0  0  0
   16.8195   21.3122   30.2001 H   0  0  0  0  0  0
   19.0399   21.4350   31.2319 H   0  0  0  0  0  0
   20.8395   21.5036   27.3237 H   0  0  0  0  0  0
   18.6183   21.3488   26.3057 H   0  0  0  0  0  0
   20.8986   23.1458   31.3099 H   0  0  0  0  0  0
   23.0801   23.3008   32.4127 H   0  0  0  0  0  0
   24.8933   21.8091   31.7886 H   0  0  0  0  0  0
   21.3419   19.6774   28.4507 H   0  0  0  0  0  0
   24.3387   18.5352   28.2614 H   0  0  0  0  0  0
   26.5131   16.6597   27.6702 H   0  0  0  0  0  0
   29.9460   17.3027   30.1922 H   0  0  0  0  0  0
   28.8328   19.1306   31.3486 H   0  0  0  0  0  0
   27.3250   14.8385   27.9693 H   0  0  0  0  0  0
   30.8919   15.0289   27.6961 H   0  0  0  0  0  0
   30.8255   16.6106   28.4252 H   0  0  0  0  0  0
  1  6  1  0  0  0
  1  2  2  0  0  0
  1 27  1  0  0  0
  2  3  1  0  0  0
  2 28  1  0  0  0
  3  4  2  0  0  0
  3 29  1  0  0  0
  4  5  1  0  0  0
  4  7  1  0  0  0
  5  6  2  0  0  0
  5 30  1  0  0  0
  6 31  1  0  0  0
  7 12  1  0  0  0
  7  8  2  0  0  0
  8  9  1  0  0  0
  8 32  1  0  0  0
  9 10  2  0  0  0
  9 33  1  0  0  0
 10 11  1  0  0  0
 10 34  1  0  0  0
 11 12  2  0  0  0
 11 14  1  0  0  0
 12 13  1  0  0  0
 13 35  1  0  0  0
 14 22  1  0  0  0
 14 15  2  0  0  0
 15 16  1  0  0  0
 15 36  1  0  0  0
 16 21  2  0  0  0
 16 17  1  0  0  0
 17 18  2  0  0  0
 17 37  1  0  0  0
 18 19  1  0  0  0
 18 23  1  0  0  0
 19 20  2  0  0  0
 19 38  1  0  0  0
 20 21  1  0  0  0
 20 39  1  0  0  0
 21 22  1  0  0  0
 22 26  1  0  0  0
 23 24  2  3  0  0
 23 25  1  0  0  0
 24 40  1  0  0  0
 25 41  1  0  0  0
 25 42  1  0  0  0
M  END
> <s_m_entry_id>
40045

> <s_m_entry_name>
ligand_docking-pose.86

> <s_m_Source_Path>
/home/csk/Desktop/cluster/DUD-E-result/try1

> <s_m_Source_File>
ligand_docking-pose.sdf

> <i_m_Source_File_Index>
86

> <i_lp_mmshare_version>
53161

> <i_f3d_flags>
0

> <r_lp_tautomer_probability>
0.999999999997365

> <s_lp_Force_Field>
OPLS_2005

> <r_lp_Energy>
21.352282

> <b_lp_Chiralities_Consistent>
1

> <s_lp_Variant>
152150-2

> <s_i_glide_gridfile>
glide-grid_2ayw

> <i_i_glide_lignum>
319

> <i_i_glide_rotatable_bonds>
4

> <r_i_docking_score>
-6.9336954880044

> <r_i_glide_ligand_efficiency>
-0.277347819520176

> <r_i_glide_ligand_efficiency_sa>
-0.810969943061518

> <r_i_glide_ligand_efficiency_ln>
-1.64349361674351

> <r_i_glide_gscore>
-6.9336954880044

> <r_i_glide_lipo>
-1.98854742837875

> <r_i_glide_hbond>
-0.656646381185012

> <r_i_glide_metal>
0

> <r_i_glide_rewards>
-1.61939491042976

> <r_i_glide_evdw>
-35.7430686950684

> <r_i_glide_ecoul>
-7.89698457717896

> <r_i_glide_erotb>
0.35021251521435

> <r_i_glide_esite>
-0.0476181618949634

> <r_i_glide_emodel>
-61.4120540228569

> <r_i_glide_energy>
-43.6400532722473

> <r_i_glide_einternal>
0.26915568113327

> <i_i_glide_confnum>
2

> <i_i_glide_posenum>
225

> <r_i_glide_eff_state_penalty>
0

> <s_user_duplicate_titles>
152150

> <s_m_subgroup_title>
dock_pv

> <s_m_subgroupid>
dock_pv1

> <b_m_subgroup_collapsed>
0

$$$$
354610
                    3D
 Schrodinger Suite 2021-1.
 78 81  0  0  1  0            999 V2000
   33.3676   23.2331   25.8741 C   0  0  0  0  0  0
   32.0400   23.0765   25.4861 C   0  0  0  0  0  0
   31.0497   22.9333   26.4539 C   0  0  0  0  0  0
   31.3953   22.9318   27.8073 C   0  0  0  0  0  0
   32.7286   23.1051   28.1913 C   0  0  0  0  0  0
   33.7175   23.2510   27.2225 C   0  0  0  0  0  0
   30.3200   22.7477   28.8649 C   0  0  0  0  0  0
   29.9820   21.3680   28.9961 O   0  0  0  0  0  0
   29.1100   20.9756   29.9337 C   0  0  0  0  0  0
   28.4882   21.7450   30.6634 O   0  0  0  0  0  0
   28.9883   19.5941   29.9076 N   0  0  0  0  0  0
   27.6745   18.9381   30.0941 C   0  0  1  0  0  0
   27.7466   17.5755   29.3600 C   0  0  0  0  0  0
   26.3766   16.9275   29.0885 C   0  0  0  0  0  0
   26.4714   15.4803   28.5744 C   0  0  0  0  0  0
   27.4054   15.3105   27.3611 C   0  0  0  0  0  0
   28.7400   14.9340   27.7913 N   0  0  0  0  0  0
   27.3391   18.7891   31.5892 C   0  0  0  0  0  0
   27.5532   17.7335   32.1888 O   0  0  0  0  0  0
   26.6930   19.8959   32.2939 C   0  0  0  0  0  0
   25.8749   20.7364   31.6879 N   0  0  0  0  0  0
   25.4956   21.5224   32.6599 C   0  0  0  0  0  0
   26.0703   21.2228   33.8480 O   0  0  0  0  0  0
   26.8669   20.1104   33.5840 N   0  0  0  0  0  0
   24.5483   22.7088   32.6053 C   0  0  0  0  0  0
   23.7192   22.8287   31.3268 C   0  0  0  0  0  0
   23.0759   21.7069   30.7914 C   0  0  0  0  0  0
   22.3490   21.8117   29.6130 C   0  0  0  0  0  0
   22.2361   23.0487   28.9637 C   0  0  0  0  0  0
   22.8371   24.1807   29.5265 C   0  0  0  0  0  0
   23.5791   24.0705   30.7013 C   0  0  0  0  0  0
   21.4480   23.1716   27.6875 C   0  0  0  0  0  0
   20.7227   24.1448   27.4798 O   0  0  0  0  0  0
   21.5955   22.1472   26.8328 N   0  0  0  0  0  0
   20.8154   21.9092   25.6213 C   0  0  0  0  0  0
   20.9119   22.9791   24.5442 C   0  0  0  0  0  0
   21.2934   22.7459   23.2726 C   0  0  0  0  0  0
   21.3482   23.7232   22.1653 C   0  0  0  0  0  0
   21.9527   23.3350   20.9643 C   0  0  0  0  0  0
   21.9761   24.2017   19.8753 C   0  0  0  0  0  0
   21.4112   25.4685   19.9886 C   0  0  0  0  0  0
   20.8181   25.8737   21.1803 C   0  0  0  0  0  0
   20.7832   25.0015   22.2660 C   0  0  0  0  0  0
   26.9095   19.5314   29.5869 H   0  0  0  0  0  0
   34.1314   23.3479   25.1197 H   0  0  0  0  0  0
   31.7904   23.0609   24.4374 H   0  0  0  0  0  0
   30.0177   22.8059   26.1555 H   0  0  0  0  0  0
   33.0002   23.1166   29.2378 H   0  0  0  0  0  0
   34.7501   23.3796   27.5101 H   0  0  0  0  0  0
   29.4432   23.3358   28.5900 H   0  0  0  0  0  0
   30.6748   23.1471   29.8182 H   0  0  0  0  0  0
   29.6880   19.0792   29.3906 H   0  0  0  0  0  0
   28.2461   17.7146   28.3985 H   0  0  0  0  0  0
   28.3809   16.8814   29.9144 H   0  0  0  0  0  0
   25.7654   16.9329   29.9904 H   0  0  0  0  0  0
   25.8344   17.5329   28.3603 H   0  0  0  0  0  0
   26.7538   14.8035   29.3871 H   0  0  0  0  0  0
   25.4647   15.1795   28.2852 H   0  0  0  0  0  0
   27.0219   14.5322   26.7035 H   0  0  0  0  0  0
   27.4403   16.2204   26.7666 H   0  0  0  0  0  0
   29.4196   15.0093   27.0381 H   0  0  0  0  0  0
   29.0701   15.5515   28.5184 H   0  0  0  0  0  0
   25.1133   23.6272   32.7733 H   0  0  0  0  0  0
   23.8471   22.6512   33.4392 H   0  0  0  0  0  0
   23.1430   20.7452   31.2814 H   0  0  0  0  0  0
   21.8628   20.9277   29.2237 H   0  0  0  0  0  0
   22.7452   25.1477   29.0487 H   0  0  0  0  0  0
   24.0481   24.9525   31.1165 H   0  0  0  0  0  0
   22.3218   21.4768   27.0373 H   0  0  0  0  0  0
   19.7701   21.7690   25.9032 H   0  0  0  0  0  0
   21.1531   20.9558   25.2163 H   0  0  0  0  0  0
   20.6338   23.9736   24.8591 H   0  0  0  0  0  0
   21.5677   21.7330   23.0148 H   0  0  0  0  0  0
   22.3962   22.3554   20.8592 H   0  0  0  0  0  0
   22.4390   23.8972   18.9485 H   0  0  0  0  0  0
   21.4340   26.1435   19.1461 H   0  0  0  0  0  0
   20.3808   26.8558   21.2621 H   0  0  0  0  0  0
   20.3022   25.3276   23.1762 H   0  0  0  0  0  0
  1  6  1  0  0  0
  1  2  2  0  0  0
  1 45  1  0  0  0
  2  3  1  0  0  0
  2 46  1  0  0  0
  3  4  2  0  0  0
  3 47  1  0  0  0
  4  5  1  0  0  0
  4  7  1  0  0  0
  5  6  2  0  0  0
  5 48  1  0  0  0
  6 49  1  0  0  0
  7  8  1  0  0  0
  7 50  1  0  0  0
  7 51  1  0  0  0
  8  9  1  0  0  0
  9 10  2  0  0  0
  9 11  1  0  0  0
 11 12  1  0  0  0
 11 52  1  0  0  0
 12 44  1  0  0  0
 12 13  1  0  0  0
 12 18  1  0  0  0
 13 14  1  0  0  0
 13 53  1  0  0  0
 13 54  1  0  0  0
 14 15  1  0  0  0
 14 55  1  0  0  0
 14 56  1  0  0  0
 15 16  1  0  0  0
 15 57  1  0  0  0
 15 58  1  0  0  0
 16 17  1  0  0  0
 16 59  1  0  0  0
 16 60  1  0  0  0
 17 61  1  0  0  0
 17 62  1  0  0  0
 18 19  2  0  0  0
 18 20  1  0  0  0
 20 24  2  0  0  0
 20 21  1  0  0  0
 21 22  2  0  0  0
 22 23  1  0  0  0
 22 25  1  0  0  0
 23 24  1  0  0  0
 25 26  1  0  0  0
 25 63  1  0  0  0
 25 64  1  0  0  0
 26 31  1  0  0  0
 26 27  2  0  0  0
 27 28  1  0  0  0
 27 65  1  0  0  0
 28 29  2  0  0  0
 28 66  1  0  0  0
 29 30  1  0  0  0
 29 32  1  0  0  0
 30 31  2  0  0  0
 30 67  1  0  0  0
 31 68  1  0  0  0
 32 33  2  0  0  0
 32 34  1  0  0  0
 34 35  1  0  0  0
 34 69  1  0  0  0
 35 36  1  0  0  0
 35 70  1  0  0  0
 35 71  1  0  0  0
 36 37  2  0  0  0
 36 72  1  0  0  0
 37 38  1  0  0  0
 37 73  1  0  0  0
 38 43  1  0  0  0
 38 39  2  0  0  0
 39 40  1  0  0  0
 39 74  1  0  0  0
 40 41  2  0  0  0
 40 75  1  0  0  0
 41 42  1  0  0  0
 41 76  1  0  0  0
 42 43  2  0  0  0
 42 77  1  0  0  0
 43 78  1  0  0  0
M  END
> <s_m_entry_id>
40046

> <s_m_entry_name>
ligand_docking-pose.87

> <s_m_Source_Path>
/home/csk/Desktop/cluster/DUD-E-result/try1

> <s_m_Source_File>
ligand_docking-pose.sdf

> <i_m_Source_File_Index>
87

> <i_lp_mmshare_version>
53161

> <i_f3d_flags>
0

> <r_lp_tautomer_probability>
0.99990000499975

> <s_lp_Force_Field>
OPLS_2005

> <r_lp_Energy>
23.890906

> <b_lp_Chiralities_Consistent>
1

> <s_lp_Variant>
354610-1

> <s_i_glide_gridfile>
glide-grid_2ayw

> <i_i_glide_lignum>
683

> <i_i_glide_rotatable_bonds>
18

> <r_i_docking_score>
-6.92537833030774

> <r_i_glide_ligand_efficiency>
-0.161055310007157

> <r_i_glide_ligand_efficiency_sa>
-0.564240859986648

> <r_i_glide_ligand_efficiency_ln>
-1.45454468663914

> <r_i_glide_gscore>
-6.92537833030774

> <r_i_glide_lipo>
-3.47627680195135

> <r_i_glide_hbond>
-0.776359397173992

> <r_i_glide_metal>
0

> <r_i_glide_rewards>
-0.0111186136250094

> <r_i_glide_evdw>
-50.557430267334

> <r_i_glide_ecoul>
-6.39800977706909

> <r_i_glide_erotb>
0.825949462369674

> <r_i_glide_esite>
0

> <r_i_glide_emodel>
-70.9229406073816

> <r_i_glide_energy>
-56.9554400444031

> <r_i_glide_einternal>
15.5009956359863

> <i_i_glide_confnum>
3

> <i_i_glide_posenum>
5

> <r_i_glide_eff_state_penalty>
0

> <s_user_duplicate_titles>
354610

> <s_m_subgroup_title>
dock_pv

> <s_m_subgroupid>
dock_pv1

> <b_m_subgroup_collapsed>
0

$$$$
217345
                    3D
 Schrodinger Suite 2021-1.
 69 72  0  0  1  0            999 V2000
   32.9359   23.9580   30.1890 C   0  0  0  0  0  0
   32.5063   24.0206   28.7088 C   0  0  1  0  0  0
   33.6547   23.5262   27.7890 C   0  0  0  0  0  0
   33.3021   23.5003   26.2936 C   0  0  0  0  0  0
   31.9518   22.8043   26.0900 C   0  0  0  0  0  0
   30.8250   23.4588   26.9204 C   0  0  1  0  0  0
   31.1976   23.4242   28.3476 N   0  0  2  0  0  0
   30.0728   23.7203   29.2525 C   0  0  0  0  0  0
   29.8307   22.5341   30.2133 C   0  0  0  0  0  0
   29.3963   21.2399   29.4910 C   0  0  0  0  0  0
   29.6461   19.9429   30.2830 C   0  0  0  0  0  0
   28.4956   19.4132   31.1513 C   0  0  0  0  0  0
   27.2953   18.9701   30.4046 N   0  0  0  0  0  0
   27.4027   17.8261   29.5530 C   0  0  0  0  0  0
   28.5109   16.9617   29.4946 C   0  0  0  0  0  0
   28.5441   15.8955   28.5913 C   0  0  0  0  0  0
   27.4579   15.6549   27.7557 C   0  0  0  0  0  0
   26.3525   16.4992   27.7908 C   0  0  0  0  0  0
   26.3448   17.5786   28.6699 C   0  0  0  0  0  0
   25.2779   18.4444   28.6232 O   0  0  0  0  0  0
   24.9363   18.9970   29.9072 C   0  0  1  0  0  0
   26.1665   19.7288   30.5448 C   0  0  0  0  0  0
   26.1088   20.8317   31.0961 O   0  0  0  0  0  0
   23.6767   19.8780   29.8330 C   0  0  0  0  0  0
   23.1591   20.5293   30.9599 C   0  0  0  0  0  0
   21.9846   21.2672   30.8686 C   0  0  0  0  0  0
   21.2931   21.3342   29.6608 C   0  0  0  0  0  0
   21.7622   20.6713   28.5113 C   0  0  0  0  0  0
   22.9674   19.9606   28.6329 C   0  0  0  0  0  0
   21.0412   20.6800   27.2075 C   0  0  0  0  0  0
   21.5437   20.1318   26.1914 N   0  0  0  0  0  0
   19.8201   21.3066   27.2190 N   0  0  0  0  0  0
   30.4352   24.8497   26.3745 C   0  0  0  0  0  0
   33.8488   24.5301   30.3526 H   0  0  0  0  0  0
   33.1370   22.9334   30.5022 H   0  0  0  0  0  0
   32.1827   24.3688   30.8588 H   0  0  0  0  0  0
   32.3706   25.0703   28.4392 H   0  0  0  0  0  0
   34.5275   24.1703   27.9109 H   0  0  0  0  0  0
   33.9453   22.5196   28.0896 H   0  0  0  0  0  0
   33.2689   24.5157   25.8975 H   0  0  0  0  0  0
   34.0795   22.9820   25.7321 H   0  0  0  0  0  0
   31.6892   22.7578   25.0326 H   0  0  0  0  0  0
   32.0816   21.7751   26.4304 H   0  0  0  0  0  0
   29.9575   22.8062   26.7997 H   0  0  0  0  0  0
   30.2339   24.6495   29.8009 H   0  0  0  0  0  0
   29.1538   23.8725   28.6829 H   0  0  0  0  0  0
   30.7319   22.3683   30.8053 H   0  0  0  0  0  0
   29.0599   22.8074   30.9340 H   0  0  0  0  0  0
   28.3533   21.3298   29.1934 H   0  0  0  0  0  0
   29.9534   21.1462   28.5570 H   0  0  0  0  0  0
   29.9520   19.1717   29.5826 H   0  0  0  0  0  0
   30.4992   20.0844   30.9402 H   0  0  0  0  0  0
   28.8263   18.5871   31.7776 H   0  0  0  0  0  0
   28.2453   20.1984   31.8670 H   0  0  0  0  0  0
   29.3665   17.1027   30.1416 H   0  0  0  0  0  0
   29.4100   15.2462   28.5580 H   0  0  0  0  0  0
   27.4754   14.8261   27.0664 H   0  0  0  0  0  0
   25.5173   16.3373   27.1231 H   0  0  0  0  0  0
   24.6619   18.1795   30.5776 H   0  0  0  0  0  0
   23.6656   20.4639   31.9130 H   0  0  0  0  0  0
   21.5982   21.7765   31.7403 H   0  0  0  0  0  0
   20.3786   21.9103   29.6413 H   0  0  0  0  0  0
   23.3531   19.4333   27.7708 H   0  0  0  0  0  0
   20.9123   20.2006   25.4024 H   0  0  0  0  0  0
   19.2543   21.3135   26.3841 H   0  0  0  0  0  0
   19.4418   21.6915   28.0723 H   0  0  0  0  0  0
   30.1099   24.7815   25.3353 H   0  0  0  0  0  0
   29.6111   25.2860   26.9382 H   0  0  0  0  0  0
   31.2663   25.5546   26.4162 H   0  0  0  0  0  0
  1  2  1  0  0  0
  1 34  1  0  0  0
  1 35  1  0  0  0
  1 36  1  0  0  0
  2  7  1  0  0  0
  2  3  1  0  0  0
  2 37  1  0  0  0
  3  4  1  0  0  0
  3 38  1  0  0  0
  3 39  1  0  0  0
  4  5  1  0  0  0
  4 40  1  0  0  0
  4 41  1  0  0  0
  5  6  1  0  0  0
  5 42  1  0  0  0
  5 43  1  0  0  0
  6  7  1  0  0  0
  6 33  1  0  0  0
  6 44  1  0  0  0
  7  8  1  0  0  0
  8  9  1  0  0  0
  8 45  1  0  0  0
  8 46  1  0  0  0
  9 10  1  0  0  0
  9 47  1  0  0  0
  9 48  1  0  0  0
 10 11  1  0  0  0
 10 49  1  0  0  0
 10 50  1  0  0  0
 11 12  1  0  0  0
 11 51  1  0  0  0
 11 52  1  0  0  0
 12 13  1  0  0  0
 12 53  1  0  0  0
 12 54  1  0  0  0
 13 22  1  0  0  0
 13 14  1  0  0  0
 14 19  2  0  0  0
 14 15  1  0  0  0
 15 16  2  0  0  0
 15 55  1  0  0  0
 16 17  1  0  0  0
 16 56  1  0  0  0
 17 18  2  0  0  0
 17 57  1  0  0  0
 18 19  1  0  0  0
 18 58  1  0  0  0
 19 20  1  0  0  0
 20 21  1  0  0  0
 21 22  1  0  0  0
 21 24  1  0  0  0
 21 59  1  0  0  0
 22 23  2  0  0  0
 24 29  1  0  0  0
 24 25  2  0  0  0
 25 26  1  0  0  0
 25 60  1  0  0  0
 26 27  2  0  0  0
 26 61  1  0  0  0
 27 28  1  0  0  0
 27 62  1  0  0  0
 28 29  2  0  0  0
 28 30  1  0  0  0
 29 63  1  0  0  0
 30 31  2  3  0  0
 30 32  1  0  0  0
 31 64  1  0  0  0
 32 65  1  0  0  0
 32 66  1  0  0  0
 33 67  1  0  0  0
 33 68  1  0  0  0
 33 69  1  0  0  0
M  END
> <s_m_entry_id>
40047

> <s_m_entry_name>
ligand_docking-pose.88

> <s_m_Source_Path>
/home/csk/Desktop/cluster/DUD-E-result/try1

> <s_m_Source_File>
ligand_docking-pose.sdf

> <i_m_Source_File_Index>
88

> <i_lp_mmshare_version>
53161

> <i_f3d_flags>
0

> <r_lp_tautomer_probability>
1

> <s_lp_Force_Field>
OPLS_2005

> <r_lp_Energy>
45.328794

> <b_lp_Chiralities_Consistent>
1

> <s_lp_Variant>
217345-3

> <s_i_glide_gridfile>
glide-grid_2ayw

> <i_i_glide_lignum>
1148

> <i_i_glide_rotatable_bonds>
8

> <r_i_docking_score>
-6.91206282798989

> <r_i_glide_ligand_efficiency>
-0.209456449333027

> <r_i_glide_ligand_efficiency_sa>
-0.671838751091686

> <r_i_glide_ligand_efficiency_ln>
-1.537206984199

> <r_i_glide_gscore>
-6.91206282798989

> <r_i_glide_lipo>
-3.0442215740576

> <r_i_glide_hbond>
-0.43306053252011

> <r_i_glide_metal>
0

> <r_i_glide_rewards>
-0.766023830270718

> <r_i_glide_evdw>
-45.1302528381348

> <r_i_glide_ecoul>
-7.37962961196899

> <r_i_glide_erotb>
0.6968646805143

> <r_i_glide_esite>
-0.00216448795367298

> <r_i_glide_emodel>
-70.6030856265561

> <r_i_glide_energy>
-52.5098824501038

> <r_i_glide_einternal>
6.07338953018188

> <i_i_glide_confnum>
46

> <i_i_glide_posenum>
397

> <r_i_glide_eff_state_penalty>
0

> <s_user_duplicate_titles>
217345

> <s_m_subgroup_title>
dock_pv

> <s_m_subgroupid>
dock_pv1

> <b_m_subgroup_collapsed>
0

$$$$
22804
                    3D
 Schrodinger Suite 2021-1.
 57 59  0  0  1  0            999 V2000
   28.1682   19.9365   34.8472 C   0  0  0  0  0  0
   28.9252   20.8596   33.8979 C   0  0  0  0  0  0
   30.2811   20.8057   33.8013 C   0  0  0  0  0  0
   31.0048   21.6328   32.9908 N   0  0  0  0  0  0
   30.3541   22.5008   32.2932 C   0  0  0  0  0  0
   28.8648   22.6753   32.2956 C   0  0  0  0  0  0
   28.2943   23.5355   31.6074 O   0  0  0  0  0  0
   28.2005   21.7968   33.1452 N   0  0  0  0  0  0
   26.7212   21.9455   33.1934 C   0  0  0  0  0  0
   26.0566   21.0126   32.1737 C   0  0  0  0  0  0
   25.9612   21.3381   30.9913 O   0  0  0  0  0  0
   25.6058   19.8401   32.6386 N   0  0  0  0  0  0
   25.0405   18.7900   31.7949 C   0  0  0  0  0  0
   25.9887   18.1329   30.7880 C   0  0  0  0  0  0
   25.4231   17.3332   29.8017 C   0  0  0  0  0  0
   26.2299   16.6238   28.9185 C   0  0  0  0  0  0
   27.6348   16.6930   28.9908 C   0  0  0  0  0  0
   28.1869   17.5729   29.9418 C   0  0  0  0  0  0
   27.3802   18.2706   30.8373 C   0  0  0  0  0  0
   28.4790   15.8204   28.1214 C   0  0  0  0  0  0
   27.9530   14.9337   27.3923 N   0  0  0  0  0  0
   29.8310   16.0566   28.1905 N   0  0  0  0  0  0
   31.0499   23.3748   31.4710 N   0  0  0  0  0  0
   32.5006   23.4995   31.3731 C   0  0  0  0  0  0
   32.9447   24.3798   30.1886 C   0  0  0  0  0  0
   32.6867   23.7862   28.8041 C   0  0  0  0  0  0
   31.3885   23.7504   28.2833 C   0  0  0  0  0  0
   31.1597   23.2448   27.0063 C   0  0  0  0  0  0
   32.2323   22.7855   26.2444 C   0  0  0  0  0  0
   33.5284   22.8207   26.7527 C   0  0  0  0  0  0
   33.7567   23.3174   28.0340 C   0  0  0  0  0  0
   28.8564   19.3441   35.4520 H   0  0  0  0  0  0
   27.5427   20.4995   35.5400 H   0  0  0  0  0  0
   27.5515   19.2302   34.2957 H   0  0  0  0  0  0
   30.8428   20.0932   34.3901 H   0  0  0  0  0  0
   26.3903   22.9709   33.0206 H   0  0  0  0  0  0
   26.3516   21.7458   34.1981 H   0  0  0  0  0  0
   25.7000   19.6304   33.6196 H   0  0  0  0  0  0
   24.1728   19.1901   31.2634 H   0  0  0  0  0  0
   24.6499   18.0020   32.4410 H   0  0  0  0  0  0
   24.3519   17.1939   29.7845 H   0  0  0  0  0  0
   25.7302   15.9816   28.2072 H   0  0  0  0  0  0
   29.2562   17.6887   30.0509 H   0  0  0  0  0  0
   27.8523   18.8897   31.5876 H   0  0  0  0  0  0
   26.9498   14.9154   27.4905 H   0  0  0  0  0  0
   30.4429   15.5115   27.5938 H   0  0  0  0  0  0
   30.2108   16.8713   28.6493 H   0  0  0  0  0  0
   30.5114   24.1114   31.0378 H   0  0  0  0  0  0
   32.8287   23.9805   32.2965 H   0  0  0  0  0  0
   33.0073   22.5335   31.3757 H   0  0  0  0  0  0
   32.4488   25.3503   30.2442 H   0  0  0  0  0  0
   34.0068   24.6065   30.2930 H   0  0  0  0  0  0
   30.5522   24.1186   28.8600 H   0  0  0  0  0  0
   30.1566   23.2169   26.6068 H   0  0  0  0  0  0
   32.0551   22.3982   25.2512 H   0  0  0  0  0  0
   34.3532   22.4698   26.1508 H   0  0  0  0  0  0
   34.7651   23.3491   28.4191 H   0  0  0  0  0  0
  1  2  1  0  0  0
  1 32  1  0  0  0
  1 33  1  0  0  0
  1 34  1  0  0  0
  2  8  1  0  0  0
  2  3  2  0  0  0
  3  4  1  0  0  0
  3 35  1  0  0  0
  4  5  2  0  0  0
  5  6  1  0  0  0
  5 23  1  0  0  0
  6  7  2  0  0  0
  6  8  1  0  0  0
  8  9  1  0  0  0
  9 10  1  0  0  0
  9 36  1  0  0  0
  9 37  1  0  0  0
 10 11  2  0  0  0
 10 12  1  0  0  0
 12 13  1  0  0  0
 12 38  1  0  0  0
 13 14  1  0  0  0
 13 39  1  0  0  0
 13 40  1  0  0  0
 14 19  1  0  0  0
 14 15  2  0  0  0
 15 16  1  0  0  0
 15 41  1  0  0  0
 16 17  2  0  0  0
 16 42  1  0  0  0
 17 18  1  0  0  0
 17 20  1  0  0  0
 18 19  2  0  0  0
 18 43  1  0  0  0
 19 44  1  0  0  0
 20 21  2  3  0  0
 20 22  1  0  0  0
 21 45  1  0  0  0
 22 46  1  0  0  0
 22 47  1  0  0  0
 23 24  1  0  0  0
 23 48  1  0  0  0
 24 25  1  0  0  0
 24 49  1  0  0  0
 24 50  1  0  0  0
 25 26  1  0  0  0
 25 51  1  0  0  0
 25 52  1  0  0  0
 26 31  1  0  0  0
 26 27  2  0  0  0
 27 28  1  0  0  0
 27 53  1  0  0  0
 28 29  2  0  0  0
 28 54  1  0  0  0
 29 30  1  0  0  0
 29 55  1  0  0  0
 30 31  2  0  0  0
 30 56  1  0  0  0
 31 57  1  0  0  0
M  END
> <s_m_entry_id>
40048

> <s_m_entry_name>
ligand_docking-pose.89

> <s_m_Source_Path>
/home/csk/Desktop/cluster/DUD-E-result/try1

> <s_m_Source_File>
ligand_docking-pose.sdf

> <i_m_Source_File_Index>
89

> <i_lp_mmshare_version>
53161

> <i_f3d_flags>
0

> <r_lp_tautomer_probability>
1

> <s_lp_Force_Field>
OPLS_2005

> <r_lp_Energy>
23.164296

> <b_lp_Chiralities_Consistent>
1

> <s_lp_Variant>
22804-2

> <s_i_glide_gridfile>
glide-grid_2ayw

> <i_i_glide_lignum>
1299

> <i_i_glide_rotatable_bonds>
10

> <r_i_docking_score>
-6.90926994317901

> <r_i_glide_ligand_efficiency>
-0.22287967558642

> <r_i_glide_ligand_efficiency_sa>
-0.700149899897014

> <r_i_glide_ligand_efficiency_ln>
-1.55825211588117

> <r_i_glide_gscore>
-6.90926994317901

> <r_i_glide_lipo>
-1.85256668720006

> <r_i_glide_hbond>
-0.867271651649314

> <r_i_glide_metal>
0

> <r_i_glide_rewards>
-1.00558293620069

> <r_i_glide_evdw>
-36.8316421508789

> <r_i_glide_ecoul>
-14.9494361877441

> <r_i_glide_erotb>
0.90329106381301

> <r_i_glide_esite>
-0.00314219623639334

> <r_i_glide_emodel>
-70.3797330006927

> <r_i_glide_energy>
-51.781078338623

> <r_i_glide_einternal>
5.16494369506836

> <i_i_glide_confnum>
63

> <i_i_glide_posenum>
390

> <r_i_glide_eff_state_penalty>
0

> <s_user_duplicate_titles>
22804

> <s_m_subgroup_title>
dock_pv

> <s_m_subgroupid>
dock_pv1

> <b_m_subgroup_collapsed>
0

$$$$
273295
                    3D
 Schrodinger Suite 2021-1.
 71 72  0  0  1  0            999 V2000
   18.4132   22.7226   27.3948 C   0  0  0  0  0  0
   19.7207   23.2102   27.4051 C   0  0  0  0  0  0
   20.7370   22.4551   27.9867 C   0  0  0  0  0  0
   20.4458   21.2039   28.5428 C   0  0  0  0  0  0
   19.1289   20.7306   28.5464 C   0  0  0  0  0  0
   18.1141   21.4886   27.9689 C   0  0  0  0  0  0
   21.5259   20.3449   29.1816 C   0  0  0  0  0  0
   23.2583   20.5021   28.4493 S   0  0  0  0  0  0
   23.1527   20.4059   26.9911 O   0  0  0  0  0  0
   23.9384   21.6394   29.0774 O   0  0  0  0  0  0
   24.0318   19.0162   28.9908 N   0  0  2  0  0  0
   25.2832   19.0289   29.8023 C   0  0  2  0  0  0
   26.3570   18.1450   29.1291 C   0  0  0  0  0  0
   25.9649   16.6709   28.8702 C   0  0  0  0  0  0
   26.7987   15.9259   27.8151 C   0  0  0  0  0  0
   28.1285   15.5848   28.2745 N   0  0  0  0  0  0
   29.2159   16.4303   28.3469 C   0  0  0  0  0  0
   29.1540   17.6763   28.1909 N   0  0  0  0  0  0
   30.3824   15.7336   28.5901 N   0  0  0  0  0  0
   25.0191   18.6342   31.2808 C   0  0  0  0  0  0
   25.9153   18.8180   32.1044 O   0  0  0  0  0  0
   23.8151   18.1373   31.6071 N   0  0  0  0  0  0
   23.3004   18.0038   32.9707 C   0  0  0  0  0  0
   22.6040   19.3075   33.4178 C   0  0  0  0  0  0
   22.6362   20.3347   32.7362 O   0  0  0  0  0  0
   21.9579   19.2559   34.5922 N   0  0  0  0  0  0
   21.2792   20.3866   35.2420 C   0  0  1  0  0  0
   20.0445   20.9361   34.4814 C   0  0  0  0  0  0
   19.3397   22.0565   35.2614 C   0  0  0  0  0  0
   19.0722   21.6556   36.7220 C   0  0  0  0  0  0
   20.3460   21.3238   37.3837 N   0  0  0  0  0  0
   21.0141   20.1624   36.7627 C   0  0  1  0  0  0
   20.3543   18.9324   36.9907 O   0  0  0  0  0  0
   20.6836   21.8558   38.6738 C   0  0  0  0  0  0
   20.0267   22.7463   39.2703 N   0  0  0  0  0  0
   21.8377   21.3332   39.2852 N   0  0  0  0  0  0
   25.6738   20.0469   29.8188 H   0  0  0  0  0  0
   22.0077   21.2019   35.2314 H   0  0  0  0  0  0
   17.6271   23.3086   26.9435 H   0  0  0  0  0  0
   19.9438   24.1714   26.9657 H   0  0  0  0  0  0
   21.7469   22.8410   27.9935 H   0  0  0  0  0  0
   18.8861   19.7738   28.9903 H   0  0  0  0  0  0
   17.0992   21.1193   27.9692 H   0  0  0  0  0  0
   21.5962   20.5337   30.2523 H   0  0  0  0  0  0
   21.2559   19.3027   29.0257 H   0  0  0  0  0  0
   24.0831   18.3187   28.2428 H   0  0  0  0  0  0
   26.6220   18.6055   28.1765 H   0  0  0  0  0  0
   27.2605   18.1723   29.7392 H   0  0  0  0  0  0
   25.9883   16.1175   29.7909 H   0  0  0  0  0  0
   24.9278   16.6233   28.5898 H   0  0  0  0  0  0
   26.3323   14.9775   27.5621 H   0  0  0  0  0  0
   26.8651   16.5048   26.8986 H   0  0  0  0  0  0
   28.2967   14.6080   28.4659 H   0  0  0  0  0  0
   30.0676   18.1131   28.2986 H   0  0  0  0  0  0
   31.2084   16.3174   28.6052 H   0  0  0  0  0  0
   30.5567   14.9913   27.9230 H   0  0  0  0  0  0
   23.1441   17.9809   30.8676 H   0  0  0  0  0  0
   22.5811   17.1845   32.9736 H   0  0  0  0  0  0
   24.1066   17.7573   33.6642 H   0  0  0  0  0  0
   22.0040   18.4057   35.1368 H   0  0  0  0  0  0
   20.3200   21.3033   33.4920 H   0  0  0  0  0  0
   19.3223   20.1326   34.3375 H   0  0  0  0  0  0
   19.9281   22.9758   35.2326 H   0  0  0  0  0  0
   18.3975   22.3029   34.7699 H   0  0  0  0  0  0
   18.5244   22.4536   37.2255 H   0  0  0  0  0  0
   18.4278   20.7746   36.7547 H   0  0  0  0  0  0
   22.0006   20.0179   37.2053 H   0  0  0  0  0  0
   20.5493   18.6576   37.8963 H   0  0  0  0  0  0
   19.2271   23.0543   38.7394 H   0  0  0  0  0  0
   22.1150   21.6314   40.2066 H   0  0  0  0  0  0
   22.3533   20.5550   38.9037 H   0  0  0  0  0  0
  1  6  1  0  0  0
  1  2  2  0  0  0
  1 39  1  0  0  0
  2  3  1  0  0  0
  2 40  1  0  0  0
  3  4  2  0  0  0
  3 41  1  0  0  0
  4  5  1  0  0  0
  4  7  1  0  0  0
  5  6  2  0  0  0
  5 42  1  0  0  0
  6 43  1  0  0  0
  7  8  1  0  0  0
  7 44  1  0  0  0
  7 45  1  0  0  0
  8  9  2  0  0  0
  8 10  2  0  0  0
  8 11  1  0  0  0
 11 12  1  0  0  0
 11 46  1  0  0  0
 12 37  1  0  0  0
 12 13  1  0  0  0
 12 20  1  0  0  0
 13 14  1  0  0  0
 13 47  1  0  0  0
 13 48  1  0  0  0
 14 15  1  0  0  0
 14 49  1  0  0  0
 14 50  1  0  0  0
 15 16  1  0  0  0
 15 51  1  0  0  0
 15 52  1  0  0  0
 16 17  1  0  0  0
 16 53  1  0  0  0
 17 18  2  3  0  0
 17 19  1  0  0  0
 18 54  1  0  0  0
 19 55  1  0  0  0
 19 56  1  0  0  0
 20 21  2  0  0  0
 20 22  1  0  0  0
 22 23  1  0  0  0
 22 57  1  0  0  0
 23 24  1  0  0  0
 23 58  1  0  0  0
 23 59  1  0  0  0
 24 25  2  0  0  0
 24 26  1  0  0  0
 26 27  1  0  0  0
 26 60  1  0  0  0
 27 38  1  0  0  0
 27 32  1  0  0  0
 27 28  1  0  0  0
 28 29  1  0  0  0
 28 61  1  0  0  0
 28 62  1  0  0  0
 29 30  1  0  0  0
 29 63  1  0  0  0
 29 64  1  0  0  0
 30 31  1  0  0  0
 30 65  1  0  0  0
 30 66  1  0  0  0
 31 32  1  0  0  0
 31 34  1  0  0  0
 32 33  1  0  0  0
 32 67  1  0  0  0
 33 68  1  0  0  0
 34 35  2  3  0  0
 34 36  1  0  0  0
 35 69  1  0  0  0
 36 70  1  0  0  0
 36 71  1  0  0  0
M  END
> <s_m_entry_id>
40049

> <s_m_entry_name>
ligand_docking-pose.90

> <s_m_Source_Path>
/home/csk/Desktop/cluster/DUD-E-result/try1

> <s_m_Source_File>
ligand_docking-pose.sdf

> <i_m_Source_File_Index>
90

> <i_lp_mmshare_version>
53161

> <i_f3d_flags>
0

> <r_lp_tautomer_probability>
1

> <s_lp_Force_Field>
OPLS_2005

> <r_lp_Energy>
12.328403

> <b_lp_Chiralities_Consistent>
1

> <s_lp_Variant>
273295-3

> <s_i_glide_gridfile>
glide-grid_2ayw

> <i_i_glide_lignum>
881

> <i_i_glide_rotatable_bonds>
17

> <r_i_docking_score>
-6.88856640400231

> <r_i_glide_ligand_efficiency>
-0.191349066777842

> <r_i_glide_ligand_efficiency_sa>
-0.6318206968896

> <r_i_glide_ligand_efficiency_ln>
-1.50289908179645

> <r_i_glide_gscore>
-6.88856640400231

> <r_i_glide_lipo>
-1.88636730050738

> <r_i_glide_hbond>
-1.32178284594639

> <r_i_glide_metal>
0

> <r_i_glide_rewards>
-0.287080849266751

> <r_i_glide_evdw>
-41.6184883117676

> <r_i_glide_ecoul>
-15.1891851425171

> <r_i_glide_erotb>
1.04304403485266

> <r_i_glide_esite>
-0.0770772561685088

> <r_i_glide_emodel>
-73.3762360139243

> <r_i_glide_energy>
-56.8076734542847

> <r_i_glide_einternal>
13.9695472717285

> <i_i_glide_confnum>
50

> <i_i_glide_posenum>
237

> <r_i_glide_eff_state_penalty>
0

> <s_user_duplicate_titles>
273295

> <s_m_subgroup_title>
dock_pv

> <s_m_subgroupid>
dock_pv1

> <b_m_subgroup_collapsed>
0

$$$$
33643
                    3D
 Schrodinger Suite 2021-1.
 67 69  0  0  1  0            999 V2000
   25.9918   26.2832   26.4979 C   0  0  0  0  0  0
   24.4680   26.4649   26.4617 C   0  0  0  0  0  0
   23.8076   25.2043   26.4315 O   0  0  0  0  0  0
   23.5541   24.4844   27.5555 C   0  0  0  0  0  0
   23.8571   24.8923   28.6831 O   0  0  0  0  0  0
   22.9146   23.1344   27.3110 C   0  0  0  0  0  0
   22.7987   22.2760   28.4178 C   0  0  0  0  0  0
   22.2249   21.0061   28.3068 C   0  0  0  0  0  0
   21.7656   20.5762   27.0677 C   0  0  0  0  0  0
   21.8821   21.4020   25.9552 C   0  0  0  0  0  0
   22.4296   22.6916   26.0556 C   0  0  0  0  0  0
   22.5483   23.5286   24.9633 O   0  0  0  0  0  0
   21.7742   23.3572   23.7848 C   0  0  0  0  0  0
   21.0948   24.6880   23.4377 C   0  0  0  0  0  0
   20.3307   24.5592   22.1068 C   0  0  0  0  0  0
   21.2598   24.1474   21.0337 N   0  0  0  0  0  0
   21.9224   22.8551   21.3037 C   0  0  0  0  0  0
   22.7000   22.9406   22.6339 C   0  0  0  0  0  0
   21.3709   24.7788   19.7910 C   0  0  0  0  0  0
   21.9527   24.3478   18.7564 N   0  0  0  0  0  0
   20.7101   26.1450   19.6508 C   0  0  0  0  0  0
   22.0852   20.1327   29.3962 N   0  0  0  0  0  0
   22.8524   20.2859   30.6294 C   0  0  0  0  0  0
   24.2927   19.8046   30.6306 C   0  0  0  0  0  0
   24.8874   19.0356   29.6963 C   0  0  0  0  0  0
   26.2947   18.5853   29.7209 C   0  0  0  0  0  0
   27.2546   19.2522   30.4855 C   0  0  0  0  0  0
   28.5633   18.7946   30.5235 C   0  0  0  0  0  0
   28.9263   17.6702   29.7906 C   0  0  0  0  0  0
   28.0037   16.9690   28.9905 C   0  0  0  0  0  0
   26.6774   17.4549   28.9834 C   0  0  0  0  0  0
   28.4024   15.7682   28.1907 C   0  0  0  0  0  0
   27.5518   15.0839   27.5585 N   0  0  0  0  0  0
   29.7530   15.5028   28.1913 N   0  0  0  0  0  0
   26.4961   27.2509   26.5034 H   0  0  0  0  0  0
   26.3108   25.7389   27.3855 H   0  0  0  0  0  0
   26.3445   25.7311   25.6257 H   0  0  0  0  0  0
   24.1908   27.0040   25.5533 H   0  0  0  0  0  0
   24.1245   27.0679   27.3058 H   0  0  0  0  0  0
   23.1586   22.6025   29.3821 H   0  0  0  0  0  0
   21.3165   19.6014   26.9572 H   0  0  0  0  0  0
   21.5377   21.0028   25.0142 H   0  0  0  0  0  0
   20.9698   22.6299   23.8917 H   0  0  0  0  0  0
   20.4050   24.9876   24.2284 H   0  0  0  0  0  0
   21.8388   25.4786   23.3275 H   0  0  0  0  0  0
   19.6045   23.7467   22.1976 H   0  0  0  0  0  0
   19.7456   25.4532   21.8935 H   0  0  0  0  0  0
   21.1225   22.1156   21.3826 H   0  0  0  0  0  0
   22.5826   22.5338   20.4943 H   0  0  0  0  0  0
   23.4898   23.6857   22.5081 H   0  0  0  0  0  0
   23.1821   21.9894   22.8547 H   0  0  0  0  0  0
   21.8935   24.9962   17.9833 H   0  0  0  0  0  0
   20.9859   26.7992   20.4809 H   0  0  0  0  0  0
   21.0040   26.6615   18.7337 H   0  0  0  0  0  0
   19.6215   26.0480   19.6366 H   0  0  0  0  0  0
   21.6790   19.2206   29.2314 H   0  0  0  0  0  0
   22.3507   19.6579   31.3650 H   0  0  0  0  0  0
   22.7965   21.2992   31.0194 H   0  0  0  0  0  0
   24.8554   20.1328   31.4889 H   0  0  0  0  0  0
   24.3063   18.7171   28.8422 H   0  0  0  0  0  0
   27.0053   20.1308   31.0604 H   0  0  0  0  0  0
   29.3030   19.3052   31.1235 H   0  0  0  0  0  0
   29.9528   17.3473   29.8699 H   0  0  0  0  0  0
   25.9192   16.9543   28.3976 H   0  0  0  0  0  0
   26.6106   15.4301   27.6824 H   0  0  0  0  0  0
   30.1158   14.7855   27.5779 H   0  0  0  0  0  0
   30.4070   16.1650   28.5781 H   0  0  0  0  0  0
  1  2  1  0  0  0
  1 35  1  0  0  0
  1 36  1  0  0  0
  1 37  1  0  0  0
  2  3  1  0  0  0
  2 38  1  0  0  0
  2 39  1  0  0  0
  3  4  1  0  0  0
  4  5  2  0  0  0
  4  6  1  0  0  0
  6 11  1  0  0  0
  6  7  2  0  0  0
  7  8  1  0  0  0
  7 40  1  0  0  0
  8  9  2  0  0  0
  8 22  1  0  0  0
  9 10  1  0  0  0
  9 41  1  0  0  0
 10 11  2  0  0  0
 10 42  1  0  0  0
 11 12  1  0  0  0
 12 13  1  0  0  0
 13 18  1  0  0  0
 13 14  1  0  0  0
 13 43  1  0  0  0
 14 15  1  0  0  0
 14 44  1  0  0  0
 14 45  1  0  0  0
 15 16  1  0  0  0
 15 46  1  0  0  0
 15 47  1  0  0  0
 16 17  1  0  0  0
 16 19  1  0  0  0
 17 18  1  0  0  0
 17 48  1  0  0  0
 17 49  1  0  0  0
 18 50  1  0  0  0
 18 51  1  0  0  0
 19 20  2  3  0  0
 19 21  1  0  0  0
 20 52  1  0  0  0
 21 53  1  0  0  0
 21 54  1  0  0  0
 21 55  1  0  0  0
 22 23  1  0  0  0
 22 56  1  0  0  0
 23 24  1  0  0  0
 23 57  1  0  0  0
 23 58  1  0  0  0
 24 25  2  0  0  0
 24 59  1  0  0  0
 25 26  1  0  0  0
 25 60  1  0  0  0
 26 31  1  0  0  0
 26 27  2  0  0  0
 27 28  1  0  0  0
 27 61  1  0  0  0
 28 29  2  0  0  0
 28 62  1  0  0  0
 29 30  1  0  0  0
 29 63  1  0  0  0
 30 31  2  0  0  0
 30 32  1  0  0  0
 31 64  1  0  0  0
 32 33  2  3  0  0
 32 34  1  0  0  0
 33 65  1  0  0  0
 34 66  1  0  0  0
 34 67  1  0  0  0
M  END
> <s_m_entry_id>
40050

> <s_m_entry_name>
ligand_docking-pose.91

> <s_m_Source_Path>
/home/csk/Desktop/cluster/DUD-E-result/try1

> <s_m_Source_File>
ligand_docking-pose.sdf

> <i_m_Source_File_Index>
91

> <i_lp_mmshare_version>
53161

> <i_f3d_flags>
0

> <r_lp_tautomer_probability>
0.499900269896156

> <s_lp_Force_Field>
OPLS_2005

> <r_lp_Energy>
36.736141

> <b_lp_Chiralities_Consistent>
1

> <s_lp_Variant>
33643-3

> <s_i_glide_gridfile>
glide-grid_2ayw

> <i_i_glide_lignum>
1974

> <i_i_glide_rotatable_bonds>
11

> <r_i_docking_score>
-6.87908581760702

> <r_i_glide_ligand_efficiency>
-0.20232605345903

> <r_i_glide_ligand_efficiency_sa>
-0.655457869721312

> <r_i_glide_ligand_efficiency_ln>
-1.51978300893086

> <r_i_glide_gscore>
-6.87908581760702

> <r_i_glide_lipo>
-2.9831115990081

> <r_i_glide_hbond>
-0.332203076253372

> <r_i_glide_metal>
0

> <r_i_glide_rewards>
-0.928398204404144

> <r_i_glide_evdw>
-47.5681190490723

> <r_i_glide_ecoul>
-6.71459102630615

> <r_i_glide_erotb>
0.750221668458129

> <r_i_glide_esite>
0

> <r_i_glide_emodel>
-73.9714367565392

> <r_i_glide_energy>
-54.2827100753784

> <r_i_glide_einternal>
6.27053880691528

> <i_i_glide_confnum>
6

> <i_i_glide_posenum>
108

> <r_i_glide_eff_state_penalty>
0

> <s_user_duplicate_titles>
33643

> <s_m_subgroup_title>
dock_pv

> <s_m_subgroupid>
dock_pv1

> <b_m_subgroup_collapsed>
0

$$$$
292526
                    3D
 Schrodinger Suite 2021-1.
 62 67  0  0  1  0            999 V2000
   27.2804   15.7322   27.7583 C   0  0  0  0  0  0
   28.5883   15.9247   28.1911 C   0  0  0  0  0  0
   28.9322   16.9936   29.0185 C   0  0  0  0  0  0
   27.9096   17.8695   29.4140 C   0  0  0  0  0  0
   26.5735   17.6913   28.9680 C   0  0  0  0  0  0
   26.2662   16.6120   28.1258 C   0  0  0  0  0  0
   25.7965   18.7255   29.5177 C   0  0  0  0  0  0
   24.4429   19.0738   29.3945 C   0  0  0  0  0  0
   23.9496   20.1408   30.1381 C   0  0  0  0  0  0
   24.7792   20.8749   30.9889 C   0  0  0  0  0  0
   26.1420   20.5870   31.0885 C   0  0  0  0  0  0
   26.6414   19.5050   30.3478 C   0  0  0  0  0  0
   27.9278   18.9879   30.2400 N   0  0  0  0  0  0
   29.1075   19.5520   30.8919 C   0  0  0  0  0  0
   29.4822   20.9477   30.3985 C   0  0  0  0  0  0
   29.4218   22.0381   31.2678 C   0  0  0  0  0  0
   29.8007   23.3090   30.8441 C   0  0  0  0  0  0
   30.2859   23.5113   29.5299 C   0  0  0  0  0  0
   30.7136   24.7786   29.0757 C   0  0  0  0  0  0
   31.2228   24.9303   27.7866 C   0  0  0  0  0  0
   31.3334   23.8497   26.8977 C   0  0  0  0  0  0
   30.8723   22.5964   27.3373 C   0  0  0  0  0  0
   30.3530   22.4033   28.6377 C   0  0  0  0  0  0
   29.9152   21.1314   29.0830 C   0  0  0  0  0  0
   31.9206   24.0430   25.5421 C   0  0  0  0  0  0
   31.9294   25.1780   24.9918 N   0  0  0  0  0  0
   32.4343   22.8980   24.9871 N   0  0  0  0  0  0
   24.2847   21.9333   31.7172 O   0  0  0  0  0  0
   23.1635   21.7674   32.5030 C   0  0  0  0  0  0
   22.2519   22.8165   32.5767 C   0  0  0  0  0  0
   21.1181   22.7047   33.3753 C   0  0  0  0  0  0
   20.8967   21.5446   34.1156 C   0  0  0  0  0  0
   21.8006   20.4650   34.0841 C   0  0  0  0  0  0
   22.9387   20.6096   33.2613 C   0  0  0  0  0  0
   21.5529   19.2358   34.8952 C   0  0  0  0  0  0
   20.6645   19.2074   35.7905 N   0  0  0  0  0  0
   22.3550   18.1677   34.5789 N   0  0  0  0  0  0
   27.0486   14.8985   27.1113 H   0  0  0  0  0  0
   29.3591   15.2381   27.8742 H   0  0  0  0  0  0
   29.9523   17.1172   29.3395 H   0  0  0  0  0  0
   25.2613   16.4520   27.7670 H   0  0  0  0  0  0
   23.7844   18.5330   28.7382 H   0  0  0  0  0  0
   22.9035   20.3996   30.0546 H   0  0  0  0  0  0
   26.7746   21.1761   31.7341 H   0  0  0  0  0  0
   29.9567   18.8851   30.7370 H   0  0  0  0  0  0
   28.9222   19.5517   31.9673 H   0  0  0  0  0  0
   29.0798   21.9034   32.2841 H   0  0  0  0  0  0
   29.7454   24.1443   31.5274 H   0  0  0  0  0  0
   30.6571   25.6303   29.7382 H   0  0  0  0  0  0
   31.5519   25.9145   27.4828 H   0  0  0  0  0  0
   30.9100   21.7340   26.6922 H   0  0  0  0  0  0
   29.9616   20.2873   28.4090 H   0  0  0  0  0  0
   32.3522   25.1581   24.0716 H   0  0  0  0  0  0
   32.8522   22.9100   24.0671 H   0  0  0  0  0  0
   32.4133   22.0285   25.4955 H   0  0  0  0  0  0
   22.4276   23.7208   32.0110 H   0  0  0  0  0  0
   20.4073   23.5167   33.4214 H   0  0  0  0  0  0
   19.9984   21.5038   34.7115 H   0  0  0  0  0  0
   23.6825   19.8287   33.2060 H   0  0  0  0  0  0
   20.1908   20.0917   35.8876 H   0  0  0  0  0  0
   22.2169   17.3031   35.0798 H   0  0  0  0  0  0
   22.8895   18.1601   33.7255 H   0  0  0  0  0  0
  1  6  1  0  0  0
  1  2  2  0  0  0
  1 38  1  0  0  0
  2  3  1  0  0  0
  2 39  1  0  0  0
  3  4  2  0  0  0
  3 40  1  0  0  0
  4 13  1  0  0  0
  4  5  1  0  0  0
  5  6  2  0  0  0
  5  7  1  0  0  0
  6 41  1  0  0  0
  7 12  2  0  0  0
  7  8  1  0  0  0
  8  9  2  0  0  0
  8 42  1  0  0  0
  9 10  1  0  0  0
  9 43  1  0  0  0
 10 11  2  0  0  0
 10 28  1  0  0  0
 11 12  1  0  0  0
 11 44  1  0  0  0
 12 13  1  0  0  0
 13 14  1  0  0  0
 14 15  1  0  0  0
 14 45  1  0  0  0
 14 46  1  0  0  0
 15 24  1  0  0  0
 15 16  2  0  0  0
 16 17  1  0  0  0
 16 47  1  0  0  0
 17 18  2  0  0  0
 17 48  1  0  0  0
 18 23  1  0  0  0
 18 19  1  0  0  0
 19 20  2  0  0  0
 19 49  1  0  0  0
 20 21  1  0  0  0
 20 50  1  0  0  0
 21 22  2  0  0  0
 21 25  1  0  0  0
 22 23  1  0  0  0
 22 51  1  0  0  0
 23 24  2  0  0  0
 24 52  1  0  0  0
 25 26  2  3  0  0
 25 27  1  0  0  0
 26 53  1  0  0  0
 27 54  1  0  0  0
 27 55  1  0  0  0
 28 29  1  0  0  0
 29 34  1  0  0  0
 29 30  2  0  0  0
 30 31  1  0  0  0
 30 56  1  0  0  0
 31 32  2  0  0  0
 31 57  1  0  0  0
 32 33  1  0  0  0
 32 58  1  0  0  0
 33 34  2  0  0  0
 33 35  1  0  0  0
 34 59  1  0  0  0
 35 36  2  3  0  0
 35 37  1  0  0  0
 36 60  1  0  0  0
 37 61  1  0  0  0
 37 62  1  0  0  0
M  END
> <s_m_entry_id>
40051

> <s_m_entry_name>
ligand_docking-pose.92

> <s_m_Source_Path>
/home/csk/Desktop/cluster/DUD-E-result/try1

> <s_m_Source_File>
ligand_docking-pose.sdf

> <i_m_Source_File_Index>
92

> <i_lp_mmshare_version>
53161

> <i_f3d_flags>
0

> <r_lp_tautomer_probability>
1

> <s_lp_Force_Field>
OPLS_2005

> <r_lp_Energy>
24.118474

> <b_lp_Chiralities_Consistent>
1

> <s_lp_Variant>
292526-3

> <s_i_glide_gridfile>
glide-grid_2ayw

> <i_i_glide_lignum>
83

> <i_i_glide_rotatable_bonds>
6

> <r_i_docking_score>
-6.87307147097616

> <r_i_glide_ligand_efficiency>
-0.185758688404761

> <r_i_glide_ligand_efficiency_sa>
-0.618989159890397

> <r_i_glide_ligand_efficiency_ln>
-1.4906080743985

> <r_i_glide_gscore>
-6.87307147097616

> <r_i_glide_lipo>
-3.05429074072648

> <r_i_glide_hbond>
-0.312890930270194

> <r_i_glide_metal>
0

> <r_i_glide_rewards>
-0.771811383167614

> <r_i_glide_evdw>
-46.2446632385254

> <r_i_glide_ecoul>
-5.12753009796143

> <r_i_glide_erotb>
0.347284259808612

> <r_i_glide_esite>
0

> <r_i_glide_emodel>
-71.1063009075412

> <r_i_glide_energy>
-51.3721933364868

> <r_i_glide_einternal>
2.00450491905212

> <i_i_glide_confnum>
1

> <i_i_glide_posenum>
6

> <r_i_glide_eff_state_penalty>
0

> <s_user_duplicate_titles>
292526

> <s_m_subgroup_title>
dock_pv

> <s_m_subgroupid>
dock_pv1

> <b_m_subgroup_collapsed>
0

$$$$
78590
                    3D
 Schrodinger Suite 2021-1.
 45 48  0  0  1  0            999 V2000
   23.0811   23.5076   32.7766 C   0  0  0  0  0  0
   22.8740   22.4999   31.6608 C   0  0  0  0  0  0
   21.6491   22.4100   31.0046 C   0  0  0  0  0  0
   21.4483   21.4953   29.9652 C   0  0  0  0  0  0
   22.5126   20.6465   29.5969 C   0  0  0  0  0  0
   23.7583   20.7087   30.2619 C   0  0  0  0  0  0
   23.9158   21.6536   31.2872 C   0  0  0  0  0  0
   24.9220   19.7965   29.9458 C   0  0  0  0  0  0
   25.0799   18.8126   28.9778 C   0  0  0  0  0  0
   26.3677   18.2145   29.1117 C   0  0  0  0  0  0
   27.0378   17.1757   28.4542 C   0  0  0  0  0  0
   28.3366   16.8130   28.8519 C   0  0  0  0  0  0
   28.9520   17.5566   29.8734 C   0  0  0  0  0  0
   28.3221   18.5981   30.5518 C   0  0  0  0  0  0
   27.0182   18.9011   30.1634 C   0  0  0  0  0  0
   26.1177   19.8315   30.6360 N   0  0  0  0  0  0
   29.0090   15.6454   28.2279 C   0  0  0  0  0  0
   28.3246   14.6825   27.7920 N   0  0  0  0  0  0
   30.3767   15.7331   28.1914 N   0  0  0  0  0  0
   22.2962   19.7329   28.5945 O   0  0  0  0  0  0
   20.1123   21.4505   29.2960 C   0  0  0  0  0  0
   18.9428   21.3659   30.0627 C   0  0  0  0  0  0
   17.6937   21.3332   29.4489 C   0  0  0  0  0  0
   17.6065   21.3799   28.0636 C   0  0  0  0  0  0
   18.7579   21.4611   27.2852 C   0  0  0  0  0  0
   20.0062   21.5019   27.9003 C   0  0  0  0  0  0
   26.2705   20.4653   31.4055 H   0  0  0  0  0  0
   22.2014   24.1315   32.9430 H   0  0  0  0  0  0
   23.3207   22.9935   33.7080 H   0  0  0  0  0  0
   23.9205   24.1620   32.5377 H   0  0  0  0  0  0
   20.8424   23.0659   31.2992 H   0  0  0  0  0  0
   24.8503   21.7426   31.8195 H   0  0  0  0  0  0
   24.3496   18.5325   28.2372 H   0  0  0  0  0  0
   26.5328   16.6479   27.6581 H   0  0  0  0  0  0
   29.9546   17.3037   30.1915 H   0  0  0  0  0  0
   28.8233   19.1226   31.3521 H   0  0  0  0  0  0
   27.3429   14.8307   27.9657 H   0  0  0  0  0  0
   30.9090   15.0208   27.6990 H   0  0  0  0  0  0
   30.8361   16.6077   28.4141 H   0  0  0  0  0  0
   21.3655   19.7016   28.3591 H   0  0  0  0  0  0
   18.9975   21.3120   31.1399 H   0  0  0  0  0  0
   16.8000   21.2526   30.0507 H   0  0  0  0  0  0
   16.6366   21.3455   27.5912 H   0  0  0  0  0  0
   18.6910   21.4870   26.2075 H   0  0  0  0  0  0
   20.8904   21.5802   27.2847 H   0  0  0  0  0  0
  1  2  1  0  0  0
  1 28  1  0  0  0
  1 29  1  0  0  0
  1 30  1  0  0  0
  2  7  1  0  0  0
  2  3  2  0  0  0
  3  4  1  0  0  0
  3 31  1  0  0  0
  4  5  2  0  0  0
  4 21  1  0  0  0
  5  6  1  0  0  0
  5 20  1  0  0  0
  6  7  2  0  0  0
  6  8  1  0  0  0
  7 32  1  0  0  0
  8 16  1  0  0  0
  8  9  2  0  0  0
  9 10  1  0  0  0
  9 33  1  0  0  0
 10 15  2  0  0  0
 10 11  1  0  0  0
 11 12  2  0  0  0
 11 34  1  0  0  0
 12 13  1  0  0  0
 12 17  1  0  0  0
 13 14  2  0  0  0
 13 35  1  0  0  0
 14 15  1  0  0  0
 14 36  1  0  0  0
 15 16  1  0  0  0
 16 27  1  0  0  0
 17 18  2  3  0  0
 17 19  1  0  0  0
 18 37  1  0  0  0
 19 38  1  0  0  0
 19 39  1  0  0  0
 20 40  1  0  0  0
 21 26  1  0  0  0
 21 22  2  0  0  0
 22 23  1  0  0  0
 22 41  1  0  0  0
 23 24  2  0  0  0
 23 42  1  0  0  0
 24 25  1  0  0  0
 24 43  1  0  0  0
 25 26  2  0  0  0
 25 44  1  0  0  0
 26 45  1  0  0  0
M  END
> <s_m_entry_id>
40052

> <s_m_entry_name>
ligand_docking-pose.93

> <s_m_Source_Path>
/home/csk/Desktop/cluster/DUD-E-result/try1

> <s_m_Source_File>
ligand_docking-pose.sdf

> <i_m_Source_File_Index>
93

> <i_lp_mmshare_version>
53161

> <i_f3d_flags>
0

> <r_lp_tautomer_probability>
0.999999999997365

> <s_lp_Force_Field>
OPLS_2005

> <r_lp_Energy>
21.270561

> <b_lp_Chiralities_Consistent>
1

> <s_lp_Variant>
78590-2

> <s_i_glide_gridfile>
glide-grid_2ayw

> <i_i_glide_lignum>
1098

> <i_i_glide_rotatable_bonds>
4

> <r_i_docking_score>
-6.86707549677107

> <r_i_glide_ligand_efficiency>
-0.264118288337349

> <r_i_glide_ligand_efficiency_sa>
-0.782449389944115

> <r_i_glide_ligand_efficiency_ln>
-1.61271014770413

> <r_i_glide_gscore>
-6.86707549677107

> <r_i_glide_lipo>
-1.98893901837018

> <r_i_glide_hbond>
-0.66143649412212

> <r_i_glide_metal>
0

> <r_i_glide_rewards>
-1.5158952732147

> <r_i_glide_evdw>
-35.8351974487305

> <r_i_glide_ecoul>
-7.90571594238281

> <r_i_glide_erotb>
0.325152606644087

> <r_i_glide_esite>
-0.0483400539142043

> <r_i_glide_emodel>
-61.3765880348204

> <r_i_glide_energy>
-43.7409133911133

> <r_i_glide_einternal>
0.271682471036911

> <i_i_glide_confnum>
2

> <i_i_glide_posenum>
81

> <r_i_glide_eff_state_penalty>
0

> <s_user_duplicate_titles>
78590

> <s_m_subgroup_title>
dock_pv

> <s_m_subgroupid>
dock_pv1

> <b_m_subgroup_collapsed>
0

$$$$
33586
                    3D
 Schrodinger Suite 2021-1.
 65 68  0  0  1  0            999 V2000
   29.2847   20.0619   36.4943 C   0  0  0  0  0  0
   29.6934   20.1822   35.0170 C   0  0  0  0  0  0
   28.7036   20.9985   34.2036 C   0  0  0  0  0  0
   28.9097   22.2572   33.8965 N   0  0  0  0  0  0
   27.7961   22.6341   33.1946 C   0  0  0  0  0  0
   27.4762   23.8786   32.6354 C   0  0  0  0  0  0
   26.2676   23.9968   31.9458 C   0  0  0  0  0  0
   25.3893   22.9208   31.7911 C   0  0  0  0  0  0
   25.6850   21.6738   32.3652 C   0  0  0  0  0  0
   26.8906   21.5558   33.0617 C   0  0  0  0  0  0
   27.4938   20.5125   33.7355 N   0  0  0  0  0  0
   26.9246   19.1743   33.9094 C   0  0  0  0  0  0
   26.6207   18.4401   32.6026 C   0  0  0  0  0  0
   27.5299   18.4144   31.5954 C   0  0  0  0  0  0
   27.4825   17.7972   30.2514 C   0  0  0  0  0  0
   26.2930   17.5193   29.5652 C   0  0  0  0  0  0
   26.3222   16.8321   28.3517 C   0  0  0  0  0  0
   27.5398   16.4622   27.7873 C   0  0  0  0  0  0
   28.7341   16.8116   28.4085 C   0  0  0  0  0  0
   28.7012   17.4624   29.6437 C   0  0  0  0  0  0
   29.9512   16.5314   27.7911 N   0  0  0  0  0  0
   25.2579   17.7489   32.5994 C   0  0  0  0  0  0
   24.2493   23.1730   31.0498 O   0  0  0  0  0  0
   23.3379   22.1188   30.7334 C   0  0  0  0  0  0
   21.9832   22.7104   30.3241 C   0  0  0  0  0  0
   20.9796   21.5876   29.9766 C   0  0  0  0  0  0
   21.5326   20.7389   28.9007 N   0  0  0  0  0  0
   22.8264   20.1175   29.2447 C   0  0  0  0  0  0
   23.8600   21.2082   29.6015 C   0  0  0  0  0  0
   20.9501   20.5726   27.6434 C   0  0  0  0  0  0
   21.4944   20.1330   26.5905 N   0  0  0  0  0  0
   19.4779   20.9472   27.5167 C   0  0  0  0  0  0
   30.0209   19.4858   37.0573 H   0  0  0  0  0  0
   29.2056   21.0448   36.9614 H   0  0  0  0  0  0
   28.3200   19.5665   36.6068 H   0  0  0  0  0  0
   29.8239   19.1879   34.5898 H   0  0  0  0  0  0
   30.6846   20.6373   34.9698 H   0  0  0  0  0  0
   28.1487   24.7175   32.7331 H   0  0  0  0  0  0
   26.0046   24.9488   31.5055 H   0  0  0  0  0  0
   25.0292   20.8225   32.2784 H   0  0  0  0  0  0
   26.0160   19.3013   34.5000 H   0  0  0  0  0  0
   27.5935   18.5571   34.5074 H   0  0  0  0  0  0
   28.4526   18.9453   31.7846 H   0  0  0  0  0  0
   25.3342   17.8130   29.9663 H   0  0  0  0  0  0
   25.4015   16.5912   27.8423 H   0  0  0  0  0  0
   27.5478   15.9413   26.8407 H   0  0  0  0  0  0
   29.6338   17.7017   30.1363 H   0  0  0  0  0  0
   30.7977   16.9238   28.1938 H   0  0  0  0  0  0
   29.9887   16.0287   26.9069 H   0  0  0  0  0  0
   24.4753   18.4704   32.3714 H   0  0  0  0  0  0
   25.1685   16.9333   31.8880 H   0  0  0  0  0  0
   25.0401   17.3331   33.5832 H   0  0  0  0  0  0
   23.1402   21.5271   31.6289 H   0  0  0  0  0  0
   21.5695   23.3214   31.1278 H   0  0  0  0  0  0
   22.1001   23.3463   29.4442 H   0  0  0  0  0  0
   20.8766   20.9324   30.8432 H   0  0  0  0  0  0
   19.9886   21.9921   29.7753 H   0  0  0  0  0  0
   22.6309   19.5080   30.1289 H   0  0  0  0  0  0
   23.2037   19.4432   28.4740 H   0  0  0  0  0  0
   24.0341   21.8021   28.7030 H   0  0  0  0  0  0
   24.7997   20.7261   29.8732 H   0  0  0  0  0  0
   20.8362   20.1109   25.8207 H   0  0  0  0  0  0
   19.3484   22.0288   27.5422 H   0  0  0  0  0  0
   19.0301   20.5878   26.5910 H   0  0  0  0  0  0
   18.8956   20.5108   28.3283 H   0  0  0  0  0  0
  1  2  1  0  0  0
  1 33  1  0  0  0
  1 34  1  0  0  0
  1 35  1  0  0  0
  2  3  1  0  0  0
  2 36  1  0  0  0
  2 37  1  0  0  0
  3 11  1  0  0  0
  3  4  2  0  0  0
  4  5  1  0  0  0
  5 10  2  0  0  0
  5  6  1  0  0  0
  6  7  2  0  0  0
  6 38  1  0  0  0
  7  8  1  0  0  0
  7 39  1  0  0  0
  8  9  2  0  0  0
  8 23  1  0  0  0
  9 10  1  0  0  0
  9 40  1  0  0  0
 10 11  1  0  0  0
 11 12  1  0  0  0
 12 13  1  0  0  0
 12 41  1  0  0  0
 12 42  1  0  0  0
 13 14  2  0  0  0
 13 22  1  0  0  0
 14 15  1  0  0  0
 14 43  1  0  0  0
 15 20  1  0  0  0
 15 16  2  0  0  0
 16 17  1  0  0  0
 16 44  1  0  0  0
 17 18  2  0  0  0
 17 45  1  0  0  0
 18 19  1  0  0  0
 18 46  1  0  0  0
 19 20  2  0  0  0
 19 21  1  0  0  0
 20 47  1  0  0  0
 21 48  1  0  0  0
 21 49  1  0  0  0
 22 50  1  0  0  0
 22 51  1  0  0  0
 22 52  1  0  0  0
 23 24  1  0  0  0
 24 29  1  0  0  0
 24 25  1  0  0  0
 24 53  1  0  0  0
 25 26  1  0  0  0
 25 54  1  0  0  0
 25 55  1  0  0  0
 26 27  1  0  0  0
 26 56  1  0  0  0
 26 57  1  0  0  0
 27 28  1  0  0  0
 27 30  1  0  0  0
 28 29  1  0  0  0
 28 58  1  0  0  0
 28 59  1  0  0  0
 29 60  1  0  0  0
 29 61  1  0  0  0
 30 31  2  3  0  0
 30 32  1  0  0  0
 31 62  1  0  0  0
 32 63  1  0  0  0
 32 64  1  0  0  0
 32 65  1  0  0  0
M  END
> <s_m_entry_id>
40053

> <s_m_entry_name>
ligand_docking-pose.94

> <s_m_Source_Path>
/home/csk/Desktop/cluster/DUD-E-result/try1

> <s_m_Source_File>
ligand_docking-pose.sdf

> <i_m_Source_File_Index>
94

> <i_lp_mmshare_version>
53161

> <i_f3d_flags>
0

> <r_lp_tautomer_probability>
0.499900269896156

> <s_lp_Force_Field>
OPLS_2005

> <r_lp_Energy>
34.135581

> <b_lp_Chiralities_Consistent>
1

> <s_lp_Variant>
33586-1

> <s_i_glide_gridfile>
glide-grid_2ayw

> <i_i_glide_lignum>
1464

> <i_i_glide_rotatable_bonds>
7

> <r_i_docking_score>
-6.86634130350226

> <r_i_glide_ligand_efficiency>
-0.214573165734446

> <r_i_glide_ligand_efficiency_sa>
-0.681227337235027

> <r_i_glide_ligand_efficiency_ln>
-1.53756098724905

> <r_i_glide_gscore>
-6.86634130350226

> <r_i_glide_lipo>
-2.28645931370399

> <r_i_glide_hbond>
-0.784230326276872

> <r_i_glide_metal>
0

> <r_i_glide_rewards>
-0.822113854045474

> <r_i_glide_evdw>
-33.5920219421387

> <r_i_glide_ecoul>
-11.7447996139526

> <r_i_glide_erotb>
0.53397225205525

> <r_i_glide_esite>
-0.06618902233134

> <r_i_glide_emodel>
-60.9244163101511

> <r_i_glide_energy>
-45.3368215560913

> <r_i_glide_einternal>
4.76831150054932

> <i_i_glide_confnum>
6

> <i_i_glide_posenum>
167

> <r_i_glide_eff_state_penalty>
0

> <s_user_duplicate_titles>
33586

> <s_m_subgroup_title>
dock_pv

> <s_m_subgroupid>
dock_pv1

> <b_m_subgroup_collapsed>
0

$$$$
74503
                    3D
 Schrodinger Suite 2021-1.
 44 46  0  0  1  0            999 V2000
   26.4507   17.9274   28.6999 C   0  0  0  0  0  0
   27.2533   16.8853   28.2367 C   0  0  0  0  0  0
   28.5515   16.6851   28.7396 C   0  0  0  0  0  0
   28.9983   17.5683   29.7333 C   0  0  0  0  0  0
   28.2061   18.6014   30.2240 C   0  0  0  0  0  0
   26.9234   18.7861   29.6898 C   0  0  0  0  0  0
   28.7671   19.3413   31.2442 O   0  0  0  0  0  0
   28.1007   20.4617   31.8199 C   0  0  2  0  0  0
   29.2702   21.2958   32.4419 C   0  0  0  0  0  0
   30.3439   21.5240   31.8881 O   0  0  0  0  0  0
   29.0168   21.7547   33.6873 N   0  0  0  0  0  0
   27.7566   21.5678   34.4467 C   0  0  0  0  0  0
   26.8266   20.5441   33.7913 C   0  0  0  0  0  0
   26.9493   20.0376   32.6296 N   0  0  0  0  0  0
   25.7795   20.2466   34.6411 O   0  0  0  0  0  0
   24.7314   19.3809   34.3687 C   0  0  0  0  0  0
   24.7806   18.2218   33.5779 C   0  0  0  0  0  0
   23.6375   17.4281   33.4786 C   0  0  0  0  0  0
   22.4902   17.7767   34.1884 C   0  0  0  0  0  0
   22.4965   18.9294   34.9917 C   0  0  0  0  0  0
   23.6170   19.7086   35.0697 N   0  0  0  0  0  0
   21.3224   19.3346   35.8236 C   0  0  0  0  0  0
   20.3521   18.5541   36.0076 N   0  0  0  0  0  0
   21.3916   20.6039   36.3492 N   0  0  0  0  0  0
   29.3925   15.5579   28.2678 C   0  0  0  0  0  0
   28.8530   14.5331   27.7910 N   0  0  0  0  0  0
   30.7500   15.7332   28.4011 N   0  0  0  0  0  0
   25.4555   18.0558   28.2983 H   0  0  0  0  0  0
   26.8536   16.2289   27.4761 H   0  0  0  0  0  0
   29.9701   17.4365   30.1838 H   0  0  0  0  0  0
   26.2737   19.5670   30.0541 H   0  0  0  0  0  0
   27.7426   21.0769   30.9920 H   0  0  0  0  0  0
   29.7519   22.3057   34.1063 H   0  0  0  0  0  0
   27.9904   21.2467   35.4633 H   0  0  0  0  0  0
   27.2375   22.5251   34.5188 H   0  0  0  0  0  0
   25.6750   17.9194   33.0567 H   0  0  0  0  0  0
   23.6425   16.5391   32.8651 H   0  0  0  0  0  0
   21.6182   17.1447   34.1044 H   0  0  0  0  0  0
   20.4742   17.6511   35.5708 H   0  0  0  0  0  0
   20.6563   20.9363   36.9527 H   0  0  0  0  0  0
   22.2291   21.1510   36.2227 H   0  0  0  0  0  0
   29.5771   13.8706   27.5448 H   0  0  0  0  0  0
   31.3856   15.0614   27.9754 H   0  0  0  0  0  0
   31.1179   16.6592   28.5978 H   0  0  0  0  0  0
  1  6  1  0  0  0
  1  2  2  0  0  0
  1 28  1  0  0  0
  2  3  1  0  0  0
  2 29  1  0  0  0
  3  4  2  0  0  0
  3 25  1  0  0  0
  4  5  1  0  0  0
  4 30  1  0  0  0
  5  6  2  0  0  0
  5  7  1  0  0  0
  6 31  1  0  0  0
  7  8  1  0  0  0
  8 14  1  0  0  0
  8  9  1  0  0  0
  8 32  1  0  0  0
  9 10  2  0  0  0
  9 11  1  0  0  0
 11 12  1  0  0  0
 11 33  1  0  0  0
 12 13  1  0  0  0
 12 34  1  0  0  0
 12 35  1  0  0  0
 13 14  2  0  0  0
 13 15  1  0  0  0
 15 16  1  0  0  0
 16 21  1  0  0  0
 16 17  2  0  0  0
 17 18  1  0  0  0
 17 36  1  0  0  0
 18 19  2  0  0  0
 18 37  1  0  0  0
 19 20  1  0  0  0
 19 38  1  0  0  0
 20 21  2  0  0  0
 20 22  1  0  0  0
 22 23  2  3  0  0
 22 24  1  0  0  0
 23 39  1  0  0  0
 24 40  1  0  0  0
 24 41  1  0  0  0
 25 26  2  3  0  0
 25 27  1  0  0  0
 26 42  1  0  0  0
 27 43  1  0  0  0
 27 44  1  0  0  0
M  END
> <s_m_entry_id>
40055

> <s_m_entry_name>
ligand_docking-pose.96

> <s_m_Source_Path>
/home/csk/Desktop/cluster/DUD-E-result/try1

> <s_m_Source_File>
ligand_docking-pose.sdf

> <i_m_Source_File_Index>
96

> <i_lp_mmshare_version>
53161

> <i_f3d_flags>
0

> <r_lp_tautomer_probability>
1

> <s_lp_Force_Field>
OPLS_2005

> <r_lp_Energy>
18.64512

> <b_lp_Chiralities_Consistent>
1

> <s_lp_Variant>
74503-2

> <s_i_glide_gridfile>
glide-grid_2ayw

> <i_i_glide_lignum>
1001

> <i_i_glide_rotatable_bonds>
6

> <r_i_docking_score>
-6.85459619636323

> <r_i_glide_ligand_efficiency>
-0.253873933198638

> <r_i_glide_ligand_efficiency_sa>
-0.761621798759187

> <r_i_glide_ligand_efficiency_ln>
-1.5956369876631

> <r_i_glide_gscore>
-6.85459619636323

> <r_i_glide_lipo>
-2.01403171144402

> <r_i_glide_hbond>
-0.741192732691109

> <r_i_glide_metal>
0

> <r_i_glide_rewards>
-1.26301359403384

> <r_i_glide_evdw>
-35.8859252929688

> <r_i_glide_ecoul>
-10.3447666168213

> <r_i_glide_erotb>
0.570792803600972

> <r_i_glide_esite>
-0.0611397046236022

> <r_i_glide_emodel>
-62.4902564175137

> <r_i_glide_energy>
-46.23069190979

> <r_i_glide_einternal>
4.88266706466675

> <i_i_glide_confnum>
17

> <i_i_glide_posenum>
312

> <r_i_glide_eff_state_penalty>
0

> <s_user_duplicate_titles>
74503

> <s_m_subgroup_title>
dock_pv

> <s_m_subgroupid>
dock_pv1

> <b_m_subgroup_collapsed>
0

$$$$
291173
                    3D
 Schrodinger Suite 2021-1.
 54 57  0  0  1  0            999 V2000
   31.0949   19.3534   36.2097 C   0  0  0  0  0  0
   32.3537   18.8901   36.5890 C   0  0  0  0  0  0
   32.5143   17.9774   37.6470 C   0  0  0  0  0  0
   31.3510   17.5885   38.3373 C   0  0  0  0  0  0
   30.0927   18.0421   37.9619 C   0  0  0  0  0  0
   29.9571   18.9177   36.8870 C   0  0  0  0  0  0
   28.5734   19.4074   36.4970 C   0  0  0  0  0  0
   28.2377   18.9977   35.1342 N   0  0  0  0  0  0
   26.9241   19.0996   34.6508 C   0  0  0  0  0  0
   25.8095   18.9333   35.4776 C   0  0  0  0  0  0
   24.5113   18.9468   34.9710 C   0  0  0  0  0  0
   24.3204   19.1737   33.6040 C   0  0  0  0  0  0
   23.1683   19.2429   32.7614 C   0  0  0  0  0  0
   23.6184   19.5225   31.4907 C   0  0  0  0  0  0
   24.9910   19.6572   31.4958 N   0  0  0  0  0  0
   25.4624   19.3928   32.7749 C   0  0  0  0  0  0
   26.7704   19.3396   33.2854 C   0  0  0  0  0  0
   25.7980   19.9933   30.3298 C   0  0  0  0  0  0
   26.6203   18.8340   29.7898 C   0  0  0  0  0  0
   28.0041   18.8154   29.9600 C   0  0  0  0  0  0
   28.7531   17.7572   29.4586 C   0  0  0  0  0  0
   28.1496   16.7015   28.7534 C   0  0  0  0  0  0
   26.7503   16.7485   28.5925 C   0  0  0  0  0  0
   25.9937   17.7950   29.1086 C   0  0  0  0  0  0
   28.9408   15.5627   28.2043 C   0  0  0  0  0  0
   28.3493   14.5330   27.7914 N   0  0  0  0  0  0
   30.3066   15.7384   28.1912 N   0  0  0  0  0  0
   33.8483   17.4322   38.0454 C   0  0  0  0  0  0
   33.9531   16.5331   38.9237 N   0  0  0  0  0  0
   34.9204   17.9879   37.3911 N   0  0  0  0  0  0
   31.0055   20.0459   35.3848 H   0  0  0  0  0  0
   33.1972   19.2506   36.0207 H   0  0  0  0  0  0
   31.3968   16.9259   39.1862 H   0  0  0  0  0  0
   29.2236   17.7044   38.5095 H   0  0  0  0  0  0
   27.8490   19.0308   37.2180 H   0  0  0  0  0  0
   28.5406   20.4957   36.5693 H   0  0  0  0  0  0
   28.9815   19.0567   34.4521 H   0  0  0  0  0  0
   25.9286   18.7398   36.5289 H   0  0  0  0  0  0
   23.6659   18.7799   35.6251 H   0  0  0  0  0  0
   22.1345   19.0987   33.0429 H   0  0  0  0  0  0
   23.0639   19.6502   30.5710 H   0  0  0  0  0  0
   27.6291   19.4814   32.6496 H   0  0  0  0  0  0
   25.1419   20.3767   29.5471 H   0  0  0  0  0  0
   26.4487   20.8228   30.6089 H   0  0  0  0  0  0
   28.5063   19.6128   30.4858 H   0  0  0  0  0  0
   29.8150   17.7653   29.6492 H   0  0  0  0  0  0
   26.2171   15.9752   28.0585 H   0  0  0  0  0  0
   24.9223   17.7958   28.9717 H   0  0  0  0  0  0
   27.3519   14.5944   27.9243 H   0  0  0  0  0  0
   30.8905   15.0354   27.7486 H   0  0  0  0  0  0
   30.7273   16.6246   28.4332 H   0  0  0  0  0  0
   33.0461   16.2430   39.2675 H   0  0  0  0  0  0
   35.8446   17.6606   37.6309 H   0  0  0  0  0  0
   34.7922   18.5311   36.5491 H   0  0  0  0  0  0
  1  6  1  0  0  0
  1  2  2  0  0  0
  1 31  1  0  0  0
  2  3  1  0  0  0
  2 32  1  0  0  0
  3  4  2  0  0  0
  3 28  1  0  0  0
  4  5  1  0  0  0
  4 33  1  0  0  0
  5  6  2  0  0  0
  5 34  1  0  0  0
  6  7  1  0  0  0
  7  8  1  0  0  0
  7 35  1  0  0  0
  7 36  1  0  0  0
  8  9  1  0  0  0
  8 37  1  0  0  0
  9 17  1  0  0  0
  9 10  2  0  0  0
 10 11  1  0  0  0
 10 38  1  0  0  0
 11 12  2  0  0  0
 11 39  1  0  0  0
 12 16  1  0  0  0
 12 13  1  0  0  0
 13 14  2  0  0  0
 13 40  1  0  0  0
 14 15  1  0  0  0
 14 41  1  0  0  0
 15 16  1  0  0  0
 15 18  1  0  0  0
 16 17  2  0  0  0
 17 42  1  0  0  0
 18 19  1  0  0  0
 18 43  1  0  0  0
 18 44  1  0  0  0
 19 24  1  0  0  0
 19 20  2  0  0  0
 20 21  1  0  0  0
 20 45  1  0  0  0
 21 22  2  0  0  0
 21 46  1  0  0  0
 22 23  1  0  0  0
 22 25  1  0  0  0
 23 24  2  0  0  0
 23 47  1  0  0  0
 24 48  1  0  0  0
 25 26  2  3  0  0
 25 27  1  0  0  0
 26 49  1  0  0  0
 27 50  1  0  0  0
 27 51  1  0  0  0
 28 29  2  3  0  0
 28 30  1  0  0  0
 29 52  1  0  0  0
 30 53  1  0  0  0
 30 54  1  0  0  0
M  END
> <s_m_entry_id>
40056

> <s_m_entry_name>
ligand_docking-pose.97

> <s_m_Source_Path>
/home/csk/Desktop/cluster/DUD-E-result/try1

> <s_m_Source_File>
ligand_docking-pose.sdf

> <i_m_Source_File_Index>
97

> <i_lp_mmshare_version>
53161

> <i_f3d_flags>
0

> <r_lp_tautomer_probability>
1

> <s_lp_Force_Field>
OPLS_2005

> <r_lp_Energy>
13.31588

> <b_lp_Chiralities_Consistent>
1

> <s_lp_Variant>
291173-4

> <s_i_glide_gridfile>
glide-grid_2ayw

> <i_i_glide_lignum>
603

> <i_i_glide_rotatable_bonds>
7

> <r_i_docking_score>
-6.85410962715124

> <r_i_glide_ligand_efficiency>
-0.228470320905041

> <r_i_glide_ligand_efficiency_sa>
-0.709910406957005

> <r_i_glide_ligand_efficiency_ln>
-1.55732838879467

> <r_i_glide_gscore>
-6.85410962715124

> <r_i_glide_lipo>
-1.91703301215583

> <r_i_glide_hbond>
-0.780792238622197

> <r_i_glide_metal>
0

> <r_i_glide_rewards>
-1.11103814636078

> <r_i_glide_evdw>
-38.6601600646973

> <r_i_glide_ecoul>
-11.2907648086548

> <r_i_glide_erotb>
0.622297636841807

> <r_i_glide_esite>
-0.0409211423211586

> <r_i_glide_emodel>
-68.2190088748951

> <r_i_glide_energy>
-49.9509248733521

> <r_i_glide_einternal>
3.52045798301697

> <i_i_glide_confnum>
30

> <i_i_glide_posenum>
335

> <r_i_glide_eff_state_penalty>
0

> <s_user_duplicate_titles>
291173

> <s_m_subgroup_title>
dock_pv

> <s_m_subgroupid>
dock_pv1

> <b_m_subgroup_collapsed>
0

$$$$
350071
                    3D
 Schrodinger Suite 2021-1.
 65 68  0  0  1  0            999 V2000
   29.7824   17.3350   37.1800 C   0  0  0  0  0  0
   29.6641   18.1899   36.0856 C   0  0  0  0  0  0
   28.4839   18.9034   35.8885 C   0  0  0  0  0  0
   27.4202   18.7609   36.7890 C   0  0  0  0  0  0
   27.5533   17.9044   37.8872 C   0  0  0  0  0  0
   28.7310   17.1871   38.0813 C   0  0  0  0  0  0
   26.1109   19.5405   36.6291 C   0  0  0  0  0  0
   25.8725   20.0318   35.3070 O   0  0  0  0  0  0
   25.4540   19.2226   34.3108 C   0  0  0  0  0  0
   25.3336   18.0008   34.3933 O   0  0  0  0  0  0
   25.1741   19.9956   33.1969 N   0  0  0  0  0  0
   24.7696   19.4277   31.8985 C   0  0  2  0  0  0
   25.9265   18.8866   31.0596 C   0  0  0  0  0  0
   27.2385   19.3252   31.2637 C   0  0  0  0  0  0
   28.2807   18.7475   30.5543 C   0  0  0  0  0  0
   28.0306   17.7325   29.6325 C   0  0  0  0  0  0
   26.7134   17.3320   29.3862 C   0  0  0  0  0  0
   25.6690   17.8950   30.1103 C   0  0  0  0  0  0
   29.1530   17.1476   29.0412 N   0  0  0  0  0  0
   29.3758   15.9125   28.3912 C   0  0  0  0  0  0
   28.5074   15.0656   28.0579 N   0  0  0  0  0  0
   30.7504   15.7234   28.1911 N   0  0  0  0  0  0
   23.7953   20.7197   30.9942 P   0  0  0  0  0  0
   24.3985   22.0781   30.8853 O   0  0  0  0  0  0
   23.5075   19.9933   29.5621 O   0  0  0  0  0  0
   22.7627   20.5337   28.5493 C   0  0  0  0  0  0
   23.1537   21.7180   27.9206 C   0  0  0  0  0  0
   22.4155   22.2159   26.8510 C   0  0  0  0  0  0
   21.2897   21.5229   26.4115 C   0  0  0  0  0  0
   20.8925   20.3434   27.0365 C   0  0  0  0  0  0
   21.6325   19.8485   28.1058 C   0  0  0  0  0  0
   22.3270   20.6721   31.7087 O   0  0  0  0  0  0
   22.1268   20.5901   33.0600 C   0  0  0  0  0  0
   21.9219   19.3413   33.6491 C   0  0  0  0  0  0
   21.7187   19.2459   35.0225 C   0  0  0  0  0  0
   21.7207   20.4029   35.8002 C   0  0  0  0  0  0
   21.9189   21.6537   35.2138 C   0  0  0  0  0  0
   22.1193   21.7482   33.8376 C   0  0  0  0  0  0
   30.6948   16.7755   37.3286 H   0  0  0  0  0  0
   30.4834   18.2915   35.3878 H   0  0  0  0  0  0
   28.4030   19.5628   35.0367 H   0  0  0  0  0  0
   26.7402   17.7850   38.5893 H   0  0  0  0  0  0
   28.8306   16.5163   38.9233 H   0  0  0  0  0  0
   26.1454   20.3970   37.3024 H   0  0  0  0  0  0
   25.2669   18.9263   36.9478 H   0  0  0  0  0  0
   25.3076   20.9935   33.2702 H   0  0  0  0  0  0
   24.0892   18.5923   32.0708 H   0  0  0  0  0  0
   27.4623   20.0917   31.9911 H   0  0  0  0  0  0
   29.2932   19.0687   30.7539 H   0  0  0  0  0  0
   26.4782   16.5678   28.6625 H   0  0  0  0  0  0
   24.6602   17.5454   29.9419 H   0  0  0  0  0  0
   29.9925   17.7062   29.1388 H   0  0  0  0  0  0
   27.5804   15.3614   28.3163 H   0  0  0  0  0  0
   31.0898   14.9619   27.6122 H   0  0  0  0  0  0
   31.4029   16.4872   28.2849 H   0  0  0  0  0  0
   24.0344   22.2447   28.2554 H   0  0  0  0  0  0
   22.7181   23.1292   26.3605 H   0  0  0  0  0  0
   20.7187   21.8990   25.5759 H   0  0  0  0  0  0
   20.0191   19.8122   26.6861 H   0  0  0  0  0  0
   21.3313   18.9332   28.5907 H   0  0  0  0  0  0
   21.9386   18.4501   33.0386 H   0  0  0  0  0  0
   21.5668   18.2786   35.4806 H   0  0  0  0  0  0
   21.5699   20.3269   36.8680 H   0  0  0  0  0  0
   21.9175   22.5453   35.8238 H   0  0  0  0  0  0
   22.2738   22.7104   33.3719 H   0  0  0  0  0  0
  1  6  1  0  0  0
  1  2  2  0  0  0
  1 39  1  0  0  0
  2  3  1  0  0  0
  2 40  1  0  0  0
  3  4  2  0  0  0
  3 41  1  0  0  0
  4  5  1  0  0  0
  4  7  1  0  0  0
  5  6  2  0  0  0
  5 42  1  0  0  0
  6 43  1  0  0  0
  7  8  1  0  0  0
  7 44  1  0  0  0
  7 45  1  0  0  0
  8  9  1  0  0  0
  9 10  2  0  0  0
  9 11  1  0  0  0
 11 12  1  0  0  0
 11 46  1  0  0  0
 12 13  1  0  0  0
 12 23  1  0  0  0
 12 47  1  0  0  0
 13 18  1  0  0  0
 13 14  2  0  0  0
 14 15  1  0  0  0
 14 48  1  0  0  0
 15 16  2  0  0  0
 15 49  1  0  0  0
 16 17  1  0  0  0
 16 19  1  0  0  0
 17 18  2  0  0  0
 17 50  1  0  0  0
 18 51  1  0  0  0
 19 20  1  0  0  0
 19 52  1  0  0  0
 20 21  2  3  0  0
 20 22  1  0  0  0
 21 53  1  0  0  0
 22 54  1  0  0  0
 22 55  1  0  0  0
 23 24  2  0  0  0
 23 25  1  0  0  0
 23 32  1  0  0  0
 25 26  1  0  0  0
 26 31  1  0  0  0
 26 27  2  0  0  0
 27 28  1  0  0  0
 27 56  1  0  0  0
 28 29  2  0  0  0
 28 57  1  0  0  0
 29 30  1  0  0  0
 29 58  1  0  0  0
 30 31  2  0  0  0
 30 59  1  0  0  0
 31 60  1  0  0  0
 32 33  1  0  0  0
 33 38  1  0  0  0
 33 34  2  0  0  0
 34 35  1  0  0  0
 34 61  1  0  0  0
 35 36  2  0  0  0
 35 62  1  0  0  0
 36 37  1  0  0  0
 36 63  1  0  0  0
 37 38  2  0  0  0
 37 64  1  0  0  0
 38 65  1  0  0  0
M  END
> <s_m_entry_id>
40057

> <s_m_entry_name>
ligand_docking-pose.98

> <s_m_Source_Path>
/home/csk/Desktop/cluster/DUD-E-result/try1

> <s_m_Source_File>
ligand_docking-pose.sdf

> <i_m_Source_File_Index>
98

> <i_lp_mmshare_version>
53161

> <i_f3d_flags>
0

> <r_lp_tautomer_probability>
1

> <s_lp_Force_Field>
OPLS_2005

> <r_lp_Energy>
7.347423

> <b_lp_Chiralities_Consistent>
1

> <s_lp_Variant>
350071-2

> <s_i_glide_gridfile>
glide-grid_2ayw

> <i_i_glide_lignum>
678

> <i_i_glide_rotatable_bonds>
13

> <r_i_docking_score>
-6.85252907510219

> <r_i_glide_ligand_efficiency>
-0.180329712502689

> <r_i_glide_ligand_efficiency_sa>
-0.606264057814056

> <r_i_glide_ligand_efficiency_ln>
-1.47760684957419

> <r_i_glide_gscore>
-6.85252907510219

> <r_i_glide_lipo>
-2.41376066303514

> <r_i_glide_hbond>
-0.769706995337516

> <r_i_glide_metal>
0

> <r_i_glide_rewards>
-0.0588004586661733

> <r_i_glide_evdw>
-48.2181129455566

> <r_i_glide_ecoul>
-12.3565282821655

> <r_i_glide_erotb>
0.732450381079899

> <r_i_glide_esite>
-0.0783264495406

> <r_i_glide_emodel>
-83.3748029144064

> <r_i_glide_energy>
-60.5746412277222

> <r_i_glide_einternal>
5.33300685882568

> <i_i_glide_confnum>
11

> <i_i_glide_posenum>
127

> <r_i_glide_eff_state_penalty>
0

> <s_user_duplicate_titles>
350071

> <s_m_subgroup_title>
dock_pv

> <s_m_subgroupid>
dock_pv1

> <b_m_subgroup_collapsed>
0

$$$$
58503
                    3D
 Schrodinger Suite 2021-1.
 69 72  0  0  1  0            999 V2000
   27.5969   16.4563   27.8010 C   0  0  0  0  0  0
   28.5976   16.7357   28.7264 C   0  0  0  0  0  0
   28.3403   17.6147   29.7756 C   0  0  0  0  0  0
   27.0847   18.2267   29.9008 C   0  0  0  0  0  0
   26.1064   17.9737   28.9299 C   0  0  0  0  0  0
   26.3542   17.0759   27.8955 C   0  0  0  0  0  0
   26.8105   19.1506   31.1040 C   0  0  0  0  0  0
   25.8626   18.5704   32.1750 C   0  0  0  0  0  0
   26.2883   18.5371   33.5089 C   0  0  0  0  0  0
   25.4187   18.1330   34.5151 C   0  0  0  0  0  0
   24.1253   17.7337   34.1911 C   0  0  0  0  0  0
   23.6961   17.7328   32.8685 C   0  0  0  0  0  0
   24.5603   18.1572   31.8645 C   0  0  0  0  0  0
   26.5078   20.6502   30.7368 C   0  0  2  0  0  0
   26.6759   21.5525   32.0055 C   0  0  0  0  0  0
   25.6913   21.6984   32.7387 O   0  0  0  0  0  0
   27.8944   22.0451   32.3588 N   0  0  0  0  0  0
   28.1571   22.3553   33.7729 C   0  0  0  0  0  0
   29.3131   23.3446   33.7869 C   0  0  0  0  0  0
   30.0656   22.9896   32.5239 C   0  0  0  0  0  0
   28.9561   22.6502   31.5160 C   0  0  1  0  0  0
   29.5528   21.8867   30.3282 C   0  0  0  0  0  0
   29.6941   20.6668   30.3695 O   0  0  0  0  0  0
   29.9036   22.6765   29.3037 N   0  0  0  0  0  0
   30.4344   22.2593   28.0120 C   0  0  0  0  0  0
   31.0034   23.4640   27.2103 C   0  0  2  0  0  0
   31.6873   23.0636   25.8852 C   0  0  0  0  0  0
   33.0019   22.2911   26.1298 C   0  0  0  0  0  0
   33.9744   23.0207   27.0877 C   0  0  1  0  0  0
   33.2863   23.6100   28.3409 C   0  0  0  0  0  0
   31.9921   24.3706   27.9868 C   0  0  0  0  0  0
   35.1529   22.2354   27.3909 N   0  0  0  0  0  0
   25.1551   20.9095   30.1910 N   0  0  0  0  0  0
   27.1958   20.9385   29.9516 H   0  0  0  0  0  0
   28.5254   23.5830   31.1458 H   0  0  0  0  0  0
   27.7913   15.7651   26.9938 H   0  0  0  0  0  0
   29.5666   16.2646   28.6410 H   0  0  0  0  0  0
   29.1238   17.8069   30.4945 H   0  0  0  0  0  0
   25.1408   18.4488   28.9682 H   0  0  0  0  0  0
   25.5860   16.8663   27.1646 H   0  0  0  0  0  0
   27.7819   19.1955   31.6031 H   0  0  0  0  0  0
   27.2830   18.8611   33.7784 H   0  0  0  0  0  0
   25.7518   18.1332   35.5416 H   0  0  0  0  0  0
   23.4544   17.4098   34.9720 H   0  0  0  0  0  0
   22.6964   17.4060   32.6193 H   0  0  0  0  0  0
   24.1887   18.1665   30.8544 H   0  0  0  0  0  0
   27.2999   22.7660   34.3088 H   0  0  0  0  0  0
   28.4448   21.4277   34.2709 H   0  0  0  0  0  0
   28.9253   24.3610   33.7071 H   0  0  0  0  0  0
   29.9208   23.2849   34.6912 H   0  0  0  0  0  0
   30.7114   23.8017   32.1872 H   0  0  0  0  0  0
   30.6965   22.1166   32.7072 H   0  0  0  0  0  0
   29.7261   23.6664   29.3937 H   0  0  0  0  0  0
   31.2196   21.5272   28.1910 H   0  0  0  0  0  0
   29.6863   21.7316   27.4207 H   0  0  0  0  0  0
   30.1525   24.0908   26.9353 H   0  0  0  0  0  0
   31.0154   22.4455   25.2879 H   0  0  0  0  0  0
   31.8968   23.9523   25.2875 H   0  0  0  0  0  0
   33.4896   22.0987   25.1729 H   0  0  0  0  0  0
   32.7340   21.3331   26.5679 H   0  0  0  0  0  0
   34.2978   23.8989   26.5243 H   0  0  0  0  0  0
   33.9674   24.2811   28.8663 H   0  0  0  0  0  0
   33.0295   22.8073   29.0294 H   0  0  0  0  0  0
   32.2386   25.2545   27.3955 H   0  0  0  0  0  0
   31.5362   24.7385   28.9063 H   0  0  0  0  0  0
   35.6607   22.1324   26.5127 H   0  0  0  0  0  0
   35.7631   22.7753   27.9908 H   0  0  0  0  0  0
   24.7053   20.0300   29.9842 H   0  0  0  0  0  0
   24.6047   21.2936   30.9546 H   0  0  0  0  0  0
  1  6  1  0  0  0
  1  2  2  0  0  0
  1 36  1  0  0  0
  2  3  1  0  0  0
  2 37  1  0  0  0
  3  4  2  0  0  0
  3 38  1  0  0  0
  4  5  1  0  0  0
  4  7  1  0  0  0
  5  6  2  0  0  0
  5 39  1  0  0  0
  6 40  1  0  0  0
  7  8  1  0  0  0
  7 14  1  0  0  0
  7 41  1  0  0  0
  8 13  1  0  0  0
  8  9  2  0  0  0
  9 10  1  0  0  0
  9 42  1  0  0  0
 10 11  2  0  0  0
 10 43  1  0  0  0
 11 12  1  0  0  0
 11 44  1  0  0  0
 12 13  2  0  0  0
 12 45  1  0  0  0
 13 46  1  0  0  0
 14 34  1  0  0  0
 14 15  1  0  0  0
 14 33  1  0  0  0
 15 16  2  0  0  0
 15 17  1  0  0  0
 17 21  1  0  0  0
 17 18  1  0  0  0
 18 19  1  0  0  0
 18 47  1  0  0  0
 18 48  1  0  0  0
 19 20  1  0  0  0
 19 49  1  0  0  0
 19 50  1  0  0  0
 20 21  1  0  0  0
 20 51  1  0  0  0
 20 52  1  0  0  0
 21 35  1  0  0  0
 21 22  1  0  0  0
 22 23  2  0  0  0
 22 24  1  0  0  0
 24 25  1  0  0  0
 24 53  1  0  0  0
 25 26  1  0  0  0
 25 54  1  0  0  0
 25 55  1  0  0  0
 26 31  1  0  0  0
 26 27  1  0  0  0
 26 56  1  0  0  0
 27 28  1  0  0  0
 27 57  1  0  0  0
 27 58  1  0  0  0
 28 29  1  0  0  0
 28 59  1  0  0  0
 28 60  1  0  0  0
 29 30  1  0  0  0
 29 32  1  0  0  0
 29 61  1  0  0  0
 30 31  1  0  0  0
 30 62  1  0  0  0
 30 63  1  0  0  0
 31 64  1  0  0  0
 31 65  1  0  0  0
 32 66  1  0  0  0
 32 67  1  0  0  0
 33 68  1  0  0  0
 33 69  1  0  0  0
M  END
> <s_m_entry_id>
40058

> <s_m_entry_name>
ligand_docking-pose.99

> <s_m_Source_Path>
/home/csk/Desktop/cluster/DUD-E-result/try1

> <s_m_Source_File>
ligand_docking-pose.sdf

> <i_m_Source_File_Index>
99

> <i_lp_mmshare_version>
53161

> <i_f3d_flags>
0

> <r_lp_tautomer_probability>
1

> <s_lp_Force_Field>
OPLS_2005

> <r_lp_Energy>
34.754177

> <b_lp_Chiralities_Consistent>
1

> <s_lp_Variant>
58503-1

> <s_i_glide_gridfile>
glide-grid_2ayw

> <i_i_glide_lignum>
367

> <i_i_glide_rotatable_bonds>
9

> <r_i_docking_score>
-6.82399425844233

> <r_i_glide_ligand_efficiency>
-0.206787704801283

> <r_i_glide_ligand_efficiency_sa>
-0.663278661398104

> <r_i_glide_ligand_efficiency_ln>
-1.51762099032627

> <r_i_glide_gscore>
-6.82399425844233

> <r_i_glide_lipo>
-3.29801959000941

> <r_i_glide_hbond>
-0.766871878154343

> <r_i_glide_metal>
0

> <r_i_glide_rewards>
-0.0596116273562544

> <r_i_glide_evdw>
-38.7380256652832

> <r_i_glide_ecoul>
-11.023024559021

> <r_i_glide_erotb>
0.895968874946957

> <r_i_glide_esite>
-0.00510507075196661

> <r_i_glide_emodel>
-57.0599294414184

> <r_i_glide_energy>
-49.7610502243042

> <r_i_glide_einternal>
24.2582340240479

> <i_i_glide_confnum>
156

> <i_i_glide_posenum>
90

> <r_i_glide_eff_state_penalty>
0

> <s_user_duplicate_titles>
58503

> <s_m_subgroup_title>
dock_pv

> <s_m_subgroupid>
dock_pv1

> <b_m_subgroup_collapsed>
0

$$$$
133474
                    3D
 Schrodinger Suite 2021-1.
 52 55  0  0  1  0            999 V2000
   20.2088   19.7361   35.7640 C   0  0  0  0  0  0
   18.7686   20.0357   35.3930 C   0  0  0  0  0  0
   17.7497   19.4007   35.9250 N   0  0  0  0  0  0
   16.6796   19.9487   35.3825 C   0  0  0  0  0  0
   17.0144   20.9486   34.4842 C   0  0  0  0  0  0
   18.3858   20.9981   34.4744 N   0  0  0  0  0  0
   19.1953   21.8728   33.7263 C   0  0  0  0  0  0
   19.1138   23.2500   33.9421 C   0  0  0  0  0  0
   19.9542   24.1130   33.2403 C   0  0  0  0  0  0
   20.8838   23.5993   32.3345 C   0  0  0  0  0  0
   20.9826   22.2241   32.1117 C   0  0  0  0  0  0
   20.0997   21.3639   32.7857 C   0  0  0  0  0  0
   21.9373   21.7970   31.2050 O   0  0  0  0  0  0
   22.6664   20.6306   31.3460 C   0  0  0  0  0  0
   22.7580   19.8859   32.5304 C   0  0  0  0  0  0
   23.4440   18.6680   32.5211 C   0  0  0  0  0  0
   24.1468   18.2995   31.3701 C   0  0  0  0  0  0
   24.1094   19.1533   30.2605 C   0  0  0  0  0  0
   23.3466   20.2757   30.2244 N   0  0  0  0  0  0
   24.8585   18.9268   29.1253 O   0  0  0  0  0  0
   26.1741   18.5327   29.2675 C   0  0  0  0  0  0
   26.5956   17.3576   28.6356 C   0  0  0  0  0  0
   27.9175   16.8806   28.7518 C   0  0  0  0  0  0
   28.7964   17.6402   29.5469 C   0  0  0  0  0  0
   28.4026   18.8231   30.1599 C   0  0  0  0  0  0
   27.1013   19.2823   30.0103 C   0  0  0  0  0  0
   26.7593   20.4745   30.5948 O   0  0  0  0  0  0
   28.3589   15.6326   28.0606 C   0  0  0  0  0  0
   27.5495   14.9339   27.3942 N   0  0  0  0  0  0
   29.6947   15.3360   28.1959 N   0  0  0  0  0  0
   23.4025   17.7804   33.7282 C   0  0  0  0  0  0
   23.5191   18.2266   34.8682 O   0  0  0  0  0  0
   23.1531   16.4708   33.4452 O   0  0  0  0  0  0
   20.2866   19.0443   36.6046 H   0  0  0  0  0  0
   20.7519   19.2809   34.9350 H   0  0  0  0  0  0
   20.7500   20.6403   36.0490 H   0  0  0  0  0  0
   15.6835   19.6231   35.6392 H   0  0  0  0  0  0
   16.4247   21.6011   33.8553 H   0  0  0  0  0  0
   18.4151   23.6511   34.6644 H   0  0  0  0  0  0
   19.8933   25.1783   33.4080 H   0  0  0  0  0  0
   21.5433   24.2745   31.8063 H   0  0  0  0  0  0
   20.1225   20.3018   32.5965 H   0  0  0  0  0  0
   22.2681   20.2142   33.4324 H   0  0  0  0  0  0
   24.7293   17.3895   31.3360 H   0  0  0  0  0  0
   25.8588   16.8234   28.0519 H   0  0  0  0  0  0
   29.8221   17.3348   29.7010 H   0  0  0  0  0  0
   29.1247   19.3780   30.7406 H   0  0  0  0  0  0
   27.4696   20.8393   31.1281 H   0  0  0  0  0  0
   26.6121   15.3040   27.4075 H   0  0  0  0  0  0
   30.0864   14.5803   27.6493 H   0  0  0  0  0  0
   30.3363   16.0271   28.5494 H   0  0  0  0  0  0
   23.0807   16.2676   32.5069 H   0  0  0  0  0  0
  1  2  1  0  0  0
  1 34  1  0  0  0
  1 35  1  0  0  0
  1 36  1  0  0  0
  2  6  1  0  0  0
  2  3  2  0  0  0
  3  4  1  0  0  0
  4  5  2  0  0  0
  4 37  1  0  0  0
  5  6  1  0  0  0
  5 38  1  0  0  0
  6  7  1  0  0  0
  7 12  1  0  0  0
  7  8  2  0  0  0
  8  9  1  0  0  0
  8 39  1  0  0  0
  9 10  2  0  0  0
  9 40  1  0  0  0
 10 11  1  0  0  0
 10 41  1  0  0  0
 11 12  2  0  0  0
 11 13  1  0  0  0
 12 42  1  0  0  0
 13 14  1  0  0  0
 14 19  1  0  0  0
 14 15  2  0  0  0
 15 16  1  0  0  0
 15 43  1  0  0  0
 16 17  2  0  0  0
 16 31  1  0  0  0
 17 18  1  0  0  0
 17 44  1  0  0  0
 18 19  2  0  0  0
 18 20  1  0  0  0
 20 21  1  0  0  0
 21 26  1  0  0  0
 21 22  2  0  0  0
 22 23  1  0  0  0
 22 45  1  0  0  0
 23 24  2  0  0  0
 23 28  1  0  0  0
 24 25  1  0  0  0
 24 46  1  0  0  0
 25 26  2  0  0  0
 25 47  1  0  0  0
 26 27  1  0  0  0
 27 48  1  0  0  0
 28 29  2  3  0  0
 28 30  1  0  0  0
 29 49  1  0  0  0
 30 50  1  0  0  0
 30 51  1  0  0  0
 31 32  2  0  0  0
 31 33  1  0  0  0
 33 52  1  0  0  0
M  END
> <s_m_entry_id>
40059

> <s_m_entry_name>
ligand_docking-pose.100

> <s_m_Source_Path>
/home/csk/Desktop/cluster/DUD-E-result/try1

> <s_m_Source_File>
ligand_docking-pose.sdf

> <i_m_Source_File_Index>
100

> <i_lp_mmshare_version>
53161

> <i_f3d_flags>
0

> <r_lp_tautomer_probability>
1

> <s_lp_Force_Field>
OPLS_2005

> <r_lp_Energy>
21.308161

> <b_lp_Chiralities_Consistent>
1

> <s_lp_Variant>
133474-2

> <s_i_glide_gridfile>
glide-grid_2ayw

> <i_i_glide_lignum>
1400

> <i_i_glide_rotatable_bonds>
9

> <r_i_docking_score>
-6.8222015613713

> <r_i_glide_ligand_efficiency>
-0.206733380647615

> <r_i_glide_ligand_efficiency_sa>
-0.66310441481047

> <r_i_glide_ligand_efficiency_ln>
-1.51722230377976

> <r_i_glide_gscore>
-6.8222015613713

> <r_i_glide_lipo>
-1.51613063881787

> <r_i_glide_hbond>
-0.488289059139716

> <r_i_glide_metal>
0

> <r_i_glide_rewards>
-1.12956852537408

> <r_i_glide_evdw>
-44.7702674865723

> <r_i_glide_ecoul>
-13.6984453201294

> <r_i_glide_erotb>
0.605066834308393

> <r_i_glide_esite>
0

> <r_i_glide_emodel>
-76.6107591887705

> <r_i_glide_energy>
-58.4687128067017

> <r_i_glide_einternal>
9.86776351928711

> <i_i_glide_confnum>
26

> <i_i_glide_posenum>
83

> <r_i_glide_eff_state_penalty>
0

> <s_user_duplicate_titles>
133474

> <s_m_subgroup_title>
dock_pv

> <s_m_subgroupid>
dock_pv1

> <b_m_subgroup_collapsed>
0

$$$$
291345
                    3D
 Schrodinger Suite 2021-1.
 70 74  0  0  1  0            999 V2000
   18.1428   20.9342   29.1297 C   0  0  0  0  0  0
   19.0341   22.1025   29.6019 C   0  0  0  0  0  0
   19.1490   23.2041   28.5320 C   0  0  0  0  0  0
   20.3958   21.6341   30.1267 C   0  0  0  0  0  0
   20.6945   21.7334   31.4020 N   0  0  0  0  0  0
   21.9369   21.1815   31.5305 C   0  0  0  0  0  0
   22.7086   20.9818   32.6821 C   0  0  0  0  0  0
   23.9472   20.3534   32.5410 C   0  0  0  0  0  0
   24.4437   19.9503   31.2984 C   0  0  0  0  0  0
   23.6992   20.1933   30.1284 C   0  0  0  0  0  0
   22.4346   20.7672   30.2780 C   0  0  0  0  0  0
   21.4138   21.0397   29.3868 N   0  0  0  0  0  0
   21.4526   20.7371   27.9541 C   0  0  0  0  0  0
   22.0385   21.8185   27.0460 C   0  0  0  0  0  0
   22.8319   22.8607   27.5325 C   0  0  0  0  0  0
   23.3180   23.8468   26.6764 C   0  0  0  0  0  0
   23.0149   23.8102   25.2939 C   0  0  0  0  0  0
   23.4852   24.7942   24.3954 C   0  0  0  0  0  0
   23.1514   24.7303   23.0447 C   0  0  0  0  0  0
   22.3500   23.7017   22.5280 C   0  0  0  0  0  0
   21.8915   22.7132   23.4126 C   0  0  0  0  0  0
   22.2106   22.7481   24.7915 C   0  0  0  0  0  0
   21.7457   21.7551   25.6844 C   0  0  0  0  0  0
   22.0016   23.6376   21.0931 C   0  0  0  0  0  0
   21.9529   22.5330   20.4949 N   0  0  0  0  0  0
   21.7539   24.8617   20.5250 N   0  0  0  0  0  0
   25.6725   19.3142   31.3119 O   0  0  0  0  0  0
   26.2504   18.8379   30.0960 C   0  0  0  0  0  0
   27.7358   18.4991   30.2988 C   0  0  0  0  0  0
   28.3725   18.0263   28.9708 C   0  0  0  0  0  0
   27.6214   16.8672   28.4468 N   0  0  0  0  0  0
   26.2011   17.1653   28.1877 C   0  0  0  0  0  0
   25.5250   17.6108   29.4983 C   0  0  0  0  0  0
   28.1670   15.6087   28.1804 C   0  0  0  0  0  0
   27.5533   14.5758   27.7915 N   0  0  0  0  0  0
   29.6692   15.4604   28.3590 C   0  0  0  0  0  0
   18.2478   20.0727   29.7902 H   0  0  0  0  0  0
   17.0927   21.2210   29.1367 H   0  0  0  0  0  0
   18.3679   20.6067   28.1142 H   0  0  0  0  0  0
   18.4986   22.5644   30.4349 H   0  0  0  0  0  0
   19.7617   24.0362   28.8902 H   0  0  0  0  0  0
   19.5898   22.8393   27.6070 H   0  0  0  0  0  0
   18.1665   23.6056   28.2807 H   0  0  0  0  0  0
   22.3428   21.2816   33.6536 H   0  0  0  0  0  0
   24.5440   20.1641   33.4225 H   0  0  0  0  0  0
   24.0527   19.9170   29.1510 H   0  0  0  0  0  0
   20.4529   20.4744   27.6222 H   0  0  0  0  0  0
   22.0414   19.8271   27.8210 H   0  0  0  0  0  0
   23.0748   22.9241   28.5828 H   0  0  0  0  0  0
   23.9272   24.6486   27.0692 H   0  0  0  0  0  0
   24.1105   25.5965   24.7604 H   0  0  0  0  0  0
   23.5449   25.4953   22.3903 H   0  0  0  0  0  0
   21.2617   21.9105   23.0544 H   0  0  0  0  0  0
   21.1530   20.9430   25.2927 H   0  0  0  0  0  0
   22.1901   21.7662   21.1053 H   0  0  0  0  0  0
   21.4809   24.8974   19.5541 H   0  0  0  0  0  0
   21.6955   25.6936   21.0907 H   0  0  0  0  0  0
   26.2329   19.6680   29.3908 H   0  0  0  0  0  0
   28.2856   19.3657   30.6712 H   0  0  0  0  0  0
   27.8435   17.6986   31.0331 H   0  0  0  0  0  0
   28.2541   18.8107   28.2213 H   0  0  0  0  0  0
   29.4477   17.8793   29.0704 H   0  0  0  0  0  0
   26.2006   18.0027   27.4868 H   0  0  0  0  0  0
   25.6503   16.3609   27.6963 H   0  0  0  0  0  0
   25.5548   16.7726   30.1911 H   0  0  0  0  0  0
   24.4747   17.8037   29.3063 H   0  0  0  0  0  0
   26.5622   14.7450   27.6980 H   0  0  0  0  0  0
   30.2105   16.1174   27.6790 H   0  0  0  0  0  0
   29.9558   15.7134   29.3778 H   0  0  0  0  0  0
   30.0186   14.4463   28.1646 H   0  0  0  0  0  0
  1  2  1  0  0  0
  1 37  1  0  0  0
  1 38  1  0  0  0
  1 39  1  0  0  0
  2  3  1  0  0  0
  2  4  1  0  0  0
  2 40  1  0  0  0
  3 41  1  0  0  0
  3 42  1  0  0  0
  3 43  1  0  0  0
  4 12  1  0  0  0
  4  5  2  0  0  0
  5  6  1  0  0  0
  6 11  2  0  0  0
  6  7  1  0  0  0
  7  8  2  0  0  0
  7 44  1  0  0  0
  8  9  1  0  0  0
  8 45  1  0  0  0
  9 10  2  0  0  0
  9 27  1  0  0  0
 10 11  1  0  0  0
 10 46  1  0  0  0
 11 12  1  0  0  0
 12 13  1  0  0  0
 13 14  1  0  0  0
 13 47  1  0  0  0
 13 48  1  0  0  0
 14 23  1  0  0  0
 14 15  2  0  0  0
 15 16  1  0  0  0
 15 49  1  0  0  0
 16 17  2  0  0  0
 16 50  1  0  0  0
 17 22  1  0  0  0
 17 18  1  0  0  0
 18 19  2  0  0  0
 18 51  1  0  0  0
 19 20  1  0  0  0
 19 52  1  0  0  0
 20 21  2  0  0  0
 20 24  1  0  0  0
 21 22  1  0  0  0
 21 53  1  0  0  0
 22 23  2  0  0  0
 23 54  1  0  0  0
 24 25  2  3  0  0
 24 26  1  0  0  0
 25 55  1  0  0  0
 26 56  1  0  0  0
 26 57  1  0  0  0
 27 28  1  0  0  0
 28 33  1  0  0  0
 28 29  1  0  0  0
 28 58  1  0  0  0
 29 30  1  0  0  0
 29 59  1  0  0  0
 29 60  1  0  0  0
 30 31  1  0  0  0
 30 61  1  0  0  0
 30 62  1  0  0  0
 31 32  1  0  0  0
 31 34  1  0  0  0
 32 33  1  0  0  0
 32 63  1  0  0  0
 32 64  1  0  0  0
 33 65  1  0  0  0
 33 66  1  0  0  0
 34 35  2  3  0  0
 34 36  1  0  0  0
 35 67  1  0  0  0
 36 68  1  0  0  0
 36 69  1  0  0  0
 36 70  1  0  0  0
M  END
> <s_m_entry_id>
40060

> <s_m_entry_name>
ligand_docking-pose.101

> <s_m_Source_Path>
/home/csk/Desktop/cluster/DUD-E-result/try1

> <s_m_Source_File>
ligand_docking-pose.sdf

> <i_m_Source_File_Index>
101

> <i_lp_mmshare_version>
53161

> <i_f3d_flags>
0

> <r_lp_tautomer_probability>
0.499900269896156

> <s_lp_Force_Field>
OPLS_2005

> <r_lp_Energy>
26.969245

> <b_lp_Chiralities_Consistent>
1

> <s_lp_Variant>
291345-4

> <s_i_glide_gridfile>
glide-grid_2ayw

> <i_i_glide_lignum>
1531

> <i_i_glide_rotatable_bonds>
7

> <r_i_docking_score>
-6.81634701827362

> <r_i_glide_ligand_efficiency>
-0.189342972729823

> <r_i_glide_ligand_efficiency_sa>
-0.625196720296512

> <r_i_glide_ligand_efficiency_ln>
-1.48714276297277

> <r_i_glide_gscore>
-6.81634701827362

> <r_i_glide_lipo>
-2.59163852888854

> <r_i_glide_hbond>
-0.230853136239645

> <r_i_glide_metal>
0

> <r_i_glide_rewards>
-1.44831845577665

> <r_i_glide_evdw>
-48.716495513916

> <r_i_glide_ecoul>
-3.05492305755615

> <r_i_glide_erotb>
0.34852633696044

> <r_i_glide_esite>
0

> <r_i_glide_emodel>
-70.1554506154909

> <r_i_glide_energy>
-51.7714185714722

> <r_i_glide_einternal>
5.42236471176147

> <i_i_glide_confnum>
4

> <i_i_glide_posenum>
59

> <r_i_glide_eff_state_penalty>
0

> <s_user_duplicate_titles>
291345

> <s_m_subgroup_title>
dock_pv

> <s_m_subgroupid>
dock_pv1

> <b_m_subgroup_collapsed>
0

$$$$
549337
                    3D
 Schrodinger Suite 2021-1.
 62 64  0  0  1  0            999 V2000
   20.7016   23.8664   22.7243 C   0  0  0  0  0  0
   21.3918   23.7776   24.0739 C   0  0  0  0  0  0
   22.0650   24.8826   24.5915 C   0  0  0  0  0  0
   22.7345   24.7829   25.8076 C   0  0  0  0  0  0
   22.7534   23.5809   26.5239 C   0  0  0  0  0  0
   22.0701   22.4577   26.0093 C   0  0  0  0  0  0
   21.3922   22.5785   24.7878 C   0  0  0  0  0  0
   22.0729   20.8331   26.8101 S   0  0  0  0  0  0
   23.4021   20.6230   27.3908 O   0  0  0  0  0  0
   21.5530   19.8617   25.8444 O   0  0  0  0  0  0
   20.8732   20.8803   28.1172 N   0  0  0  0  0  0
   21.1486   21.4446   29.3689 C   0  0  0  0  0  0
   20.4409   22.5820   29.7496 C   0  0  0  0  0  0
   20.7257   23.2140   30.9564 C   0  0  0  0  0  0
   21.7280   22.7258   31.7997 C   0  0  0  0  0  0
   22.4407   21.5640   31.4384 C   0  0  0  0  0  0
   22.1183   20.9099   30.2335 C   0  0  0  0  0  0
   22.7528   19.7333   29.9096 O   0  0  0  0  0  0
   23.5810   21.0120   32.3166 C   0  0  0  0  0  0
   24.9566   21.0417   31.6239 C   0  0  0  0  0  0
   25.1534   21.7334   30.6234 O   0  0  0  0  0  0
   25.9099   20.2686   32.1596 N   0  0  0  0  0  0
   27.2727   20.1606   31.6373 C   0  0  0  0  0  0
   27.5322   19.0152   30.6580 C   0  0  0  0  0  0
   26.5299   18.4356   29.8729 C   0  0  0  0  0  0
   26.8253   17.3502   29.0469 C   0  0  0  0  0  0
   28.1219   16.8032   28.9876 C   0  0  0  0  0  0
   29.1082   17.4169   29.7791 C   0  0  0  0  0  0
   28.8224   18.5047   30.5908 C   0  0  0  0  0  0
   28.4336   15.6214   28.1262 C   0  0  0  0  0  0
   27.5532   15.0832   27.3993 N   0  0  0  0  0  0
   29.7375   15.1916   28.1911 N   0  0  0  0  0  0
   22.0173   23.4868   33.0866 C   0  0  0  0  0  0
   23.5396   23.5527   27.8274 C   0  0  0  0  0  0
   20.7538   22.9122   22.1955 H   0  0  0  0  0  0
   19.6511   24.1430   22.8412 H   0  0  0  0  0  0
   21.1858   24.6018   22.0787 H   0  0  0  0  0  0
   22.0799   25.8184   24.0508 H   0  0  0  0  0  0
   23.2567   25.6490   26.1848 H   0  0  0  0  0  0
   20.8684   21.7329   24.3715 H   0  0  0  0  0  0
   19.9156   20.6955   27.8622 H   0  0  0  0  0  0
   19.6840   22.9939   29.0994 H   0  0  0  0  0  0
   20.1705   24.1012   31.2246 H   0  0  0  0  0  0
   23.3451   19.4169   30.5917 H   0  0  0  0  0  0
   23.3357   19.9866   32.5985 H   0  0  0  0  0  0
   23.6793   21.5528   33.2549 H   0  0  0  0  0  0
   25.6805   19.6759   32.9442 H   0  0  0  0  0  0
   27.9238   20.0333   32.5040 H   0  0  0  0  0  0
   27.5948   21.0851   31.1510 H   0  0  0  0  0  0
   25.5191   18.8134   29.8957 H   0  0  0  0  0  0
   26.0151   16.9341   28.4641 H   0  0  0  0  0  0
   30.1245   17.0532   29.7992 H   0  0  0  0  0  0
   29.6140   18.9328   31.1902 H   0  0  0  0  0  0
   26.6561   15.5376   27.4789 H   0  0  0  0  0  0
   30.0581   14.4860   27.5417 H   0  0  0  0  0  0
   30.4424   15.7855   28.5968 H   0  0  0  0  0  0
   21.3947   24.3756   33.1937 H   0  0  0  0  0  0
   21.8438   22.8477   33.9522 H   0  0  0  0  0  0
   23.0594   23.8069   33.1119 H   0  0  0  0  0  0
   23.9739   24.5234   28.0712 H   0  0  0  0  0  0
   22.9086   23.2669   28.6616 H   0  0  0  0  0  0
   24.3530   22.8332   27.7691 H   0  0  0  0  0  0
  1  2  1  0  0  0
  1 35  1  0  0  0
  1 36  1  0  0  0
  1 37  1  0  0  0
  2  7  1  0  0  0
  2  3  2  0  0  0
  3  4  1  0  0  0
  3 38  1  0  0  0
  4  5  2  0  0  0
  4 39  1  0  0  0
  5  6  1  0  0  0
  5 34  1  0  0  0
  6  7  2  0  0  0
  6  8  1  0  0  0
  7 40  1  0  0  0
  8  9  2  0  0  0
  8 10  2  0  0  0
  8 11  1  0  0  0
 11 12  1  0  0  0
 11 41  1  0  0  0
 12 17  1  0  0  0
 12 13  2  0  0  0
 13 14  1  0  0  0
 13 42  1  0  0  0
 14 15  2  0  0  0
 14 43  1  0  0  0
 15 16  1  0  0  0
 15 33  1  0  0  0
 16 17  2  0  0  0
 16 19  1  0  0  0
 17 18  1  0  0  0
 18 44  1  0  0  0
 19 20  1  0  0  0
 19 45  1  0  0  0
 19 46  1  0  0  0
 20 21  2  0  0  0
 20 22  1  0  0  0
 22 23  1  0  0  0
 22 47  1  0  0  0
 23 24  1  0  0  0
 23 48  1  0  0  0
 23 49  1  0  0  0
 24 29  1  0  0  0
 24 25  2  0  0  0
 25 26  1  0  0  0
 25 50  1  0  0  0
 26 27  2  0  0  0
 26 51  1  0  0  0
 27 28  1  0  0  0
 27 30  1  0  0  0
 28 29  2  0  0  0
 28 52  1  0  0  0
 29 53  1  0  0  0
 30 31  2  3  0  0
 30 32  1  0  0  0
 31 54  1  0  0  0
 32 55  1  0  0  0
 32 56  1  0  0  0
 33 57  1  0  0  0
 33 58  1  0  0  0
 33 59  1  0  0  0
 34 60  1  0  0  0
 34 61  1  0  0  0
 34 62  1  0  0  0
M  END
> <s_m_entry_id>
40061

> <s_m_entry_name>
ligand_docking-pose.102

> <s_m_Source_Path>
/home/csk/Desktop/cluster/DUD-E-result/try1

> <s_m_Source_File>
ligand_docking-pose.sdf

> <i_m_Source_File_Index>
102

> <i_lp_mmshare_version>
53161

> <i_f3d_flags>
0

> <r_lp_tautomer_probability>
1

> <s_lp_Force_Field>
OPLS_2005

> <r_lp_Energy>
11.532709

> <b_lp_Chiralities_Consistent>
1

> <s_lp_Variant>
549337-2

> <s_i_glide_gridfile>
glide-grid_2ayw

> <i_i_glide_lignum>
1139

> <i_i_glide_rotatable_bonds>
10

> <r_i_docking_score>
-6.81418555330676

> <r_i_glide_ligand_efficiency>
-0.200417222156081

> <r_i_glide_ligand_efficiency_sa>
-0.6492739973129

> <r_i_glide_ligand_efficiency_ln>
-1.50544472015618

> <r_i_glide_gscore>
-6.81418555330676

> <r_i_glide_lipo>
-2.10568302760435

> <r_i_glide_hbond>
-0.567570575034379

> <r_i_glide_metal>
0

> <r_i_glide_rewards>
-0.747813484606515

> <r_i_glide_evdw>
-40.1624794006348

> <r_i_glide_ecoul>
-13.4036636352539

> <r_i_glide_erotb>
0.702470262128153

> <r_i_glide_esite>
-0.0769152128698382

> <r_i_glide_emodel>
-71.717454664

> <r_i_glide_energy>
-53.5661430358887

> <r_i_glide_einternal>
6.09068632125854

> <i_i_glide_confnum>
9

> <i_i_glide_posenum>
100

> <r_i_glide_eff_state_penalty>
0

> <s_user_duplicate_titles>
549337

> <s_m_subgroup_title>
dock_pv

> <s_m_subgroupid>
dock_pv1

> <b_m_subgroup_collapsed>
0

$$$$
