CHEMBL1957_lig234
                    3D
 Schrodinger Suite 2021-1.
 59 63  0  0  1  0            999 V2000
    5.9756   -9.3196   22.0494 C   0  0  0  0  0  0
    6.3155   -8.5994   23.2090 C   0  0  0  0  0  0
    5.9841   -7.2494   23.3909 C   0  0  0  0  0  0
    5.2380   -8.6934   21.0360 C   0  0  0  0  0  0
    4.9057   -7.3581   21.2231 C   0  0  0  0  0  0
    5.2908   -6.6121   22.3512 C   0  0  0  0  0  0
    4.9246   -5.2946   22.2128 N   0  0  0  0  0  0
    4.3405   -5.2034   21.0378 C   0  0  0  0  0  0
    4.2299   -6.4534   20.4601 N   0  0  0  0  0  0
    6.4069  -10.6282   21.8406 N   0  0  0  0  0  0
    6.3975   -6.5409   24.6656 C   0  0  0  0  0  0
    5.4927  -11.6453   21.2798 C   0  0  0  0  0  0
    6.2631  -12.7742   20.5719 C   0  0  0  0  0  0
    7.1490  -13.3946   21.4940 O   0  0  0  0  0  0
    8.1009  -12.4739   22.0144 C   0  0  0  0  0  0
    7.3885  -11.2953   22.7164 C   0  0  0  0  0  0
    3.9609   -3.9359   20.3164 C   0  0  0  0  0  0
    4.3981   -2.6923   20.7212 C   0  0  0  0  0  0
    4.1809   -1.5478   19.8392 C   0  0  0  0  0  0
    3.5615   -1.7481   18.6686 C   0  0  0  0  0  0
    3.0905   -2.9577   18.2740 N   0  0  0  0  0  0
    3.2388   -4.0841   19.0125 C   0  0  0  0  0  0
    2.8409   -5.1375   18.5101 O   0  0  0  0  0  0
    5.0942   -2.4864   21.8943 N   0  0  0  0  0  0
    6.4079   -1.8473   21.9865 C   0  0  0  0  0  0
    6.9951   -1.7446   23.4156 C   0  0  0  0  0  0
    6.3832   -0.7179   24.2638 N   0  0  0  0  0  0
    5.3687   -0.8542   25.1604 C   0  0  0  0  0  0
    5.2368    0.3642   25.7904 C   0  0  0  0  0  0
    6.1303    1.2119   25.1214 C   0  0  0  0  0  0
    6.8377    0.5429   24.2374 N   0  0  0  0  0  0
    4.1249    0.7458   27.0373 Cl  0  0  0  0  0  0
    6.3506    2.6977   25.2849 C   0  0  0  0  0  0
    6.8641   -9.0938   23.9948 H   0  0  0  0  0  0
    4.9669   -9.1982   20.1237 H   0  0  0  0  0  0
    3.8097   -6.5800   19.5482 H   0  0  0  0  0  0
    6.5875   -7.2540   25.4643 H   0  0  0  0  0  0
    7.2934   -5.9421   24.5032 H   0  0  0  0  0  0
    5.6016   -5.8831   25.0151 H   0  0  0  0  0  0
    4.8617  -12.0420   22.0782 H   0  0  0  0  0  0
    4.8121  -11.2200   20.5462 H   0  0  0  0  0  0
    6.8051  -12.3907   19.7027 H   0  0  0  0  0  0
    5.5593  -13.5147   20.1925 H   0  0  0  0  0  0
    8.7617  -12.1142   21.2207 H   0  0  0  0  0  0
    8.7359  -13.0004   22.7288 H   0  0  0  0  0  0
    8.1641  -10.5806   22.9979 H   0  0  0  0  0  0
    6.9028  -11.6202   23.6393 H   0  0  0  0  0  0
    4.5432   -0.5670   20.1017 H   0  0  0  0  0  0
    3.3821   -0.9768   17.9325 H   0  0  0  0  0  0
    2.6259   -3.0942   17.3824 H   0  0  0  0  0  0
    5.0744   -3.3191   22.4749 H   0  0  0  0  0  0
    6.4029   -0.8640   21.5128 H   0  0  0  0  0  0
    7.0887   -2.4521   21.3828 H   0  0  0  0  0  0
    8.0819   -1.6542   23.4116 H   0  0  0  0  0  0
    6.8205   -2.6939   23.9228 H   0  0  0  0  0  0
    4.8385   -1.7787   25.2693 H   0  0  0  0  0  0
    5.5294    3.1745   25.8247 H   0  0  0  0  0  0
    6.4377    3.2088   24.3260 H   0  0  0  0  0  0
    7.2679    2.9079   25.8360 H   0  0  0  0  0  0
  1  4  1  0  0  0
  1 10  1  0  0  0
  1  2  2  0  0  0
  2  3  1  0  0  0
  2 34  1  0  0  0
  3 11  1  0  0  0
  3  6  2  0  0  0
  4  5  2  0  0  0
  4 35  1  0  0  0
  5  9  1  0  0  0
  5  6  1  0  0  0
  6  7  1  0  0  0
  7  8  2  0  0  0
  8  9  1  0  0  0
  8 17  1  0  0  0
  9 36  1  0  0  0
 10 12  1  0  0  0
 10 16  1  0  0  0
 11 37  1  0  0  0
 11 38  1  0  0  0
 11 39  1  0  0  0
 12 13  1  0  0  0
 12 40  1  0  0  0
 12 41  1  0  0  0
 13 14  1  0  0  0
 13 42  1  0  0  0
 13 43  1  0  0  0
 14 15  1  0  0  0
 15 16  1  0  0  0
 15 44  1  0  0  0
 15 45  1  0  0  0
 16 46  1  0  0  0
 16 47  1  0  0  0
 17 18  2  0  0  0
 17 22  1  0  0  0
 18 19  1  0  0  0
 18 24  1  0  0  0
 19 20  2  0  0  0
 19 48  1  0  0  0
 20 21  1  0  0  0
 20 49  1  0  0  0
 21 22  1  0  0  0
 21 50  1  0  0  0
 22 23  2  0  0  0
 24 25  1  0  0  0
 24 51  1  0  0  0
 25 26  1  0  0  0
 25 52  1  0  0  0
 25 53  1  0  0  0
 26 27  1  0  0  0
 26 54  1  0  0  0
 26 55  1  0  0  0
 27 28  1  0  0  0
 27 31  1  0  0  0
 28 29  2  0  0  0
 28 56  1  0  0  0
 29 30  1  0  0  0
 29 32  1  0  0  0
 30 31  2  0  0  0
 30 33  1  0  0  0
 33 57  1  0  0  0
 33 58  1  0  0  0
 33 59  1  0  0  0
M  END
> <s_m_entry_id>
5607

> <s_m_entry_name>
dock_pv.2

> <s_m_Source_Path>
/home/csk/Desktop/cluster/DUD-E-result/igf1r

> <s_m_Source_File>
dock_pv.maegz

> <i_m_Source_File_Index>
2

> <chembl_id>
CHEMBL257326

> <chembl_pref_name>
None

> <i_lp_mmshare_version>
53161

> <r_lp_tautomer_probability>
0.999206294981429

> <s_lp_Force_Field>
OPLS_2005

> <r_lp_Energy>
45.313825

> <b_lp_Chiralities_Consistent>
1

> <s_lp_Variant>
CHEMBL1957_lig234-1

> <s_i_glide_gridfile>
glide-grid_2oj9

> <i_i_glide_lignum>
405

> <i_i_glide_rotatable_bonds>
6

> <r_i_docking_score>
-9.75363511303265

> <r_i_glide_ligand_efficiency>
-0.295564700394929

> <r_i_glide_ligand_efficiency_sa>
-0.948033922146729

> <r_i_glide_ligand_efficiency_ln>
-2.16915794751863

> <r_i_glide_gscore>
-9.75363511303265

> <r_i_glide_lipo>
-4.18550680818869

> <r_i_glide_hbond>
-0.408775000137911

> <r_i_glide_metal>
0

> <r_i_glide_rewards>
-1.69181326430168

> <r_i_glide_evdw>
-49.2159233093262

> <r_i_glide_ecoul>
-9.29277420043945

> <r_i_glide_erotb>
0.387172255127859

> <r_i_glide_esite>
0

> <r_i_glide_emodel>
-72.6309649896218

> <r_i_glide_energy>
-58.5086975097656

> <r_i_glide_einternal>
6.43942260742188

> <i_i_glide_confnum>
34

> <i_i_glide_posenum>
139

> <r_i_glide_eff_state_penalty>
0

> <s_user_duplicate_titles>
CHEMBL1957_lig234,424461

> <i_f3d_flags>
0

> <s_m_subgroup_title>
dock_pv

> <s_m_subgroupid>
dock_pv

> <b_m_subgroup_collapsed>
1

$$$$
CHEMBL1957_lig244
                    3D
 Schrodinger Suite 2021-1.
 56 60  0  0  1  0            999 V2000
    6.0011   -9.2974   22.0973 C   0  0  0  0  0  0
    6.3662   -8.5590   23.2378 C   0  0  0  0  0  0
    6.0348   -7.2072   23.4084 C   0  0  0  0  0  0
    5.2377   -8.6895   21.0916 C   0  0  0  0  0  0
    4.9214   -7.3471   21.2564 C   0  0  0  0  0  0
    5.3265   -6.5840   22.3685 C   0  0  0  0  0  0
    4.9582   -5.2692   22.2125 N   0  0  0  0  0  0
    4.3647   -5.1958   21.0380 C   0  0  0  0  0  0
    4.2433   -6.4537   20.4815 N   0  0  0  0  0  0
    6.4740   -6.4764   24.6632 C   0  0  0  0  0  0
    6.4285  -10.6082   21.8977 N   0  0  0  0  0  0
    5.4917  -11.6359   21.4036 C   0  0  0  0  0  0
    6.2267  -12.7942   20.7041 C   0  0  0  0  0  0
    7.1470  -13.3884   21.6086 O   0  0  0  0  0  0
    8.1184  -12.4574   22.0679 C   0  0  0  0  0  0
    7.4349  -11.2559   22.7587 C   0  0  0  0  0  0
    3.9636   -3.9364   20.3193 C   0  0  0  0  0  0
    4.3120   -2.6777   20.7568 C   0  0  0  0  0  0
    4.1222   -1.5422   19.8550 C   0  0  0  0  0  0
    3.6186   -1.7698   18.6374 C   0  0  0  0  0  0
    3.2006   -2.9921   18.2270 N   0  0  0  0  0  0
    3.2958   -4.1023   18.9956 C   0  0  0  0  0  0
    2.8399   -5.1473   18.5273 O   0  0  0  0  0  0
    4.9681   -2.4540   21.9470 N   0  0  0  0  0  0
    6.1162   -1.5671   22.1005 C   0  0  0  0  0  0
    6.7750   -1.5571   23.4973 C   0  0  0  0  0  0
    6.0511   -0.7790   24.5003 N   0  0  0  0  0  0
    4.9255   -1.2548   25.0380 N   0  0  0  0  0  0
    4.5831   -0.4056   25.9738 C   0  0  0  0  0  0
    5.4284    0.6969   25.9901 C   0  0  0  0  0  0
    6.3781    0.4468   25.0179 C   0  0  0  0  0  0
    6.9336   -9.0386   24.0204 H   0  0  0  0  0  0
    4.9513   -9.2118   20.1915 H   0  0  0  0  0  0
    3.8091   -6.5936   19.5760 H   0  0  0  0  0  0
    6.8981   -7.1499   25.4096 H   0  0  0  0  0  0
    7.2119   -5.7127   24.4166 H   0  0  0  0  0  0
    5.6210   -5.9740   25.1218 H   0  0  0  0  0  0
    4.8933  -12.0093   22.2359 H   0  0  0  0  0  0
    4.7809  -11.2275   20.6864 H   0  0  0  0  0  0
    6.7366  -12.4498   19.8006 H   0  0  0  0  0  0
    5.5030  -13.5419   20.3836 H   0  0  0  0  0  0
    8.7465  -12.1237   21.2397 H   0  0  0  0  0  0
    8.7761  -12.9621   22.7738 H   0  0  0  0  0  0
    8.2189  -10.5372   22.9958 H   0  0  0  0  0  0
    6.9796  -11.5549   23.7038 H   0  0  0  0  0  0
    4.4376   -0.5494   20.1277 H   0  0  0  0  0  0
    3.4761   -1.0048   17.8871 H   0  0  0  0  0  0
    2.7406   -3.1367   17.3365 H   0  0  0  0  0  0
    5.0707   -3.2971   22.5008 H   0  0  0  0  0  0
    5.8632   -0.5455   21.8136 H   0  0  0  0  0  0
    6.8397   -1.8935   21.3578 H   0  0  0  0  0  0
    7.8210   -1.2568   23.4574 H   0  0  0  0  0  0
    6.8232   -2.5825   23.8691 H   0  0  0  0  0  0
    3.7214   -0.5697   26.6068 H   0  0  0  0  0  0
    5.3561    1.5460   26.6380 H   0  0  0  0  0  0
    7.2382    0.9980   24.6774 H   0  0  0  0  0  0
  1  4  1  0  0  0
  1 11  1  0  0  0
  1  2  2  0  0  0
  2  3  1  0  0  0
  2 32  1  0  0  0
  3 10  1  0  0  0
  3  6  2  0  0  0
  4  5  2  0  0  0
  4 33  1  0  0  0
  5  9  1  0  0  0
  5  6  1  0  0  0
  6  7  1  0  0  0
  7  8  2  0  0  0
  8  9  1  0  0  0
  8 17  1  0  0  0
  9 34  1  0  0  0
 10 35  1  0  0  0
 10 36  1  0  0  0
 10 37  1  0  0  0
 11 12  1  0  0  0
 11 16  1  0  0  0
 12 13  1  0  0  0
 12 38  1  0  0  0
 12 39  1  0  0  0
 13 14  1  0  0  0
 13 40  1  0  0  0
 13 41  1  0  0  0
 14 15  1  0  0  0
 15 16  1  0  0  0
 15 42  1  0  0  0
 15 43  1  0  0  0
 16 44  1  0  0  0
 16 45  1  0  0  0
 17 18  2  0  0  0
 17 22  1  0  0  0
 18 19  1  0  0  0
 18 24  1  0  0  0
 19 20  2  0  0  0
 19 46  1  0  0  0
 20 21  1  0  0  0
 20 47  1  0  0  0
 21 22  1  0  0  0
 21 48  1  0  0  0
 22 23  2  0  0  0
 24 25  1  0  0  0
 24 49  1  0  0  0
 25 26  1  0  0  0
 25 50  1  0  0  0
 25 51  1  0  0  0
 26 27  1  0  0  0
 26 52  1  0  0  0
 26 53  1  0  0  0
 27 28  1  0  0  0
 27 31  1  0  0  0
 28 29  2  0  0  0
 29 30  1  0  0  0
 29 54  1  0  0  0
 30 31  2  0  0  0
 30 55  1  0  0  0
 31 56  1  0  0  0
M  END
> <s_m_entry_id>
5608

> <s_m_entry_name>
dock_pv.3

> <s_m_Source_Path>
/home/csk/Desktop/cluster/DUD-E-result/igf1r

> <s_m_Source_File>
dock_pv.maegz

> <i_m_Source_File_Index>
3

> <chembl_id>
CHEMBL256910

> <chembl_pref_name>
None

> <i_lp_mmshare_version>
53161

> <r_lp_tautomer_probability>
0.999206294981429

> <s_lp_Force_Field>
OPLS_2005

> <r_lp_Energy>
41.217814

> <b_lp_Chiralities_Consistent>
1

> <s_lp_Variant>
CHEMBL1957_lig244-1

> <s_i_glide_gridfile>
glide-grid_2oj9

> <i_i_glide_lignum>
415

> <i_i_glide_rotatable_bonds>
6

> <r_i_docking_score>
-9.73775590186787

> <r_i_glide_ligand_efficiency>
-0.31412115812477

> <r_i_glide_ligand_efficiency_sa>
-0.986774127510406

> <r_i_glide_ligand_efficiency_ln>
-2.19616238224994

> <r_i_glide_gscore>
-9.73775590186787

> <r_i_glide_lipo>
-4.10152498455594

> <r_i_glide_hbond>
-0.375804512826162

> <r_i_glide_metal>
0

> <r_i_glide_rewards>
-1.92571337825832

> <r_i_glide_evdw>
-45.5634002685547

> <r_i_glide_ecoul>
-9.66701412200928

> <r_i_glide_erotb>
0.393509105501685

> <r_i_glide_esite>
0

> <r_i_glide_emodel>
-78.0892282453819

> <r_i_glide_energy>
-55.230414390564

> <r_i_glide_einternal>
5.92864894866943

> <i_i_glide_confnum>
52

> <i_i_glide_posenum>
383

> <r_i_glide_eff_state_penalty>
0

> <s_user_duplicate_titles>
CHEMBL1957_lig244,424452

> <i_f3d_flags>
0

> <s_m_subgroup_title>
dock_pv

> <s_m_subgroupid>
dock_pv

> <b_m_subgroup_collapsed>
1

$$$$
CHEMBL1957_lig628
                    3D
 Schrodinger Suite 2021-1.
 59 63  0  0  1  0            999 V2000
    5.8850   -9.6219   21.8386 C   0  0  0  0  0  0
    6.0967   -8.9191   23.0414 C   0  0  0  0  0  0
    5.6974   -7.5956   23.2330 C   0  0  0  0  0  0
    5.2086   -8.9932   20.7797 C   0  0  0  0  0  0
    4.8428   -7.6602   20.9601 C   0  0  0  0  0  0
    5.1125   -6.9478   22.1410 C   0  0  0  0  0  0
    4.7656   -5.6312   22.0065 N   0  0  0  0  0  0
    4.2185   -5.5105   20.8188 C   0  0  0  0  0  0
    4.2091   -6.7372   20.1761 N   0  0  0  0  0  0
    5.9223   -6.9075   24.5740 C   0  0  0  0  0  0
    6.3649  -10.9218   21.6770 N   0  0  0  0  0  0
    6.5548  -11.6368   20.4002 C   0  0  0  0  0  0
    5.6349  -12.8769   20.3194 C   0  0  0  0  0  0
    5.8917  -13.7327   21.4297 O   0  0  0  0  0  0
    5.6642  -13.0906   22.6775 C   0  0  0  0  0  0
    6.5925  -11.8693   22.7914 C   0  0  0  0  0  0
    3.8494   -4.2049   20.1743 C   0  0  0  0  0  0
    4.2311   -2.9765   20.6774 C   0  0  0  0  0  0
    4.0050   -1.7849   19.8640 C   0  0  0  0  0  0
    3.4720   -1.9343   18.6440 C   0  0  0  0  0  0
    3.0865   -3.1277   18.1446 N   0  0  0  0  0  0
    3.2375   -4.2957   18.8211 C   0  0  0  0  0  0
    2.8408   -5.3154   18.2464 O   0  0  0  0  0  0
    4.9568   -2.8354   21.8366 N   0  0  0  0  0  0
    5.9653   -1.8142   22.1171 C   0  0  0  0  0  0
    6.7481   -2.0114   23.4350 C   0  0  0  0  0  0
    7.6010   -3.1968   23.4572 N   0  0  0  0  0  0
    8.3779   -3.3976   24.5301 N   0  0  0  0  0  0
    8.9422   -4.5620   24.3201 C   0  0  0  0  0  0
    8.5446   -5.1521   23.1111 C   0  0  0  0  0  0
    7.7092   -4.2160   22.5403 C   0  0  0  0  0  0
    8.8959   -6.4245   22.5706 C   0  0  0  0  0  0
    8.5841   -6.7870   21.4390 O   0  0  0  0  0  0
    9.6358   -7.1623   23.4383 O   0  0  0  0  0  0
    6.6168   -9.3990   23.8461 H   0  0  0  0  0  0
    4.9873   -9.4965   19.8536 H   0  0  0  0  0  0
    3.8533   -6.8367   19.2347 H   0  0  0  0  0  0
    6.4560   -7.5287   25.2892 H   0  0  0  0  0  0
    6.4871   -5.9958   24.4442 H   0  0  0  0  0  0
    4.9575   -6.6017   24.9836 H   0  0  0  0  0  0
    6.4137  -11.0137   19.5138 H   0  0  0  0  0  0
    7.5961  -11.9665   20.3403 H   0  0  0  0  0  0
    5.8464  -13.4443   19.4174 H   0  0  0  0  0  0
    4.5796  -12.5974   20.2842 H   0  0  0  0  0  0
    5.8934  -13.7745   23.4913 H   0  0  0  0  0  0
    4.6038  -12.8526   22.7598 H   0  0  0  0  0  0
    7.6334  -12.2009   22.7803 H   0  0  0  0  0  0
    6.4338  -11.4242   23.7648 H   0  0  0  0  0  0
    4.2944   -0.8046   20.2048 H   0  0  0  0  0  0
    3.2922   -1.1146   17.9643 H   0  0  0  0  0  0
    2.6370   -3.2180   17.2449 H   0  0  0  0  0  0
    5.1208   -3.7126   22.3222 H   0  0  0  0  0  0
    5.4660   -0.8473   22.1585 H   0  0  0  0  0  0
    6.6636   -1.7341   21.2802 H   0  0  0  0  0  0
    6.0141   -2.1930   24.2218 H   0  0  0  0  0  0
    7.3038   -1.1212   23.7264 H   0  0  0  0  0  0
    9.6126   -5.0029   25.0470 H   0  0  0  0  0  0
    7.1536   -4.2199   21.6136 H   0  0  0  0  0  0
   10.1208   -7.8344   22.9515 H   0  0  0  0  0  0
  1  4  1  0  0  0
  1 11  1  0  0  0
  1  2  2  0  0  0
  2  3  1  0  0  0
  2 35  1  0  0  0
  3 10  1  0  0  0
  3  6  2  0  0  0
  4  5  2  0  0  0
  4 36  1  0  0  0
  5  9  1  0  0  0
  5  6  1  0  0  0
  6  7  1  0  0  0
  7  8  2  0  0  0
  8  9  1  0  0  0
  8 17  1  0  0  0
  9 37  1  0  0  0
 10 38  1  0  0  0
 10 39  1  0  0  0
 10 40  1  0  0  0
 11 12  1  0  0  0
 11 16  1  0  0  0
 12 13  1  0  0  0
 12 41  1  0  0  0
 12 42  1  0  0  0
 13 14  1  0  0  0
 13 43  1  0  0  0
 13 44  1  0  0  0
 14 15  1  0  0  0
 15 16  1  0  0  0
 15 45  1  0  0  0
 15 46  1  0  0  0
 16 47  1  0  0  0
 16 48  1  0  0  0
 17 18  2  0  0  0
 17 22  1  0  0  0
 18 19  1  0  0  0
 18 24  1  0  0  0
 19 20  2  0  0  0
 19 49  1  0  0  0
 20 21  1  0  0  0
 20 50  1  0  0  0
 21 22  1  0  0  0
 21 51  1  0  0  0
 22 23  2  0  0  0
 24 25  1  0  0  0
 24 52  1  0  0  0
 25 26  1  0  0  0
 25 53  1  0  0  0
 25 54  1  0  0  0
 26 27  1  0  0  0
 26 55  1  0  0  0
 26 56  1  0  0  0
 27 28  1  0  0  0
 27 31  1  0  0  0
 28 29  2  0  0  0
 29 30  1  0  0  0
 29 57  1  0  0  0
 30 31  2  0  0  0
 30 32  1  0  0  0
 31 58  1  0  0  0
 32 33  2  0  0  0
 32 34  1  0  0  0
 34 59  1  0  0  0
M  END
> <s_m_entry_id>
5609

> <s_m_entry_name>
dock_pv.4

> <s_m_Source_Path>
/home/csk/Desktop/cluster/DUD-E-result/igf1r

> <s_m_Source_File>
dock_pv.maegz

> <i_m_Source_File_Index>
4

> <chembl_id>
CHEMBL1088741

> <chembl_pref_name>
None

> <i_lp_mmshare_version>
53161

> <r_lp_tautomer_probability>
0.999206294981429

> <s_lp_Force_Field>
OPLS_2005

> <r_lp_Energy>
45.000177

> <b_lp_Chiralities_Consistent>
1

> <s_lp_Variant>
CHEMBL1957_lig628-1

> <s_i_glide_gridfile>
glide-grid_2oj9

> <i_i_glide_lignum>
841

> <i_i_glide_rotatable_bonds>
8

> <r_i_docking_score>
-9.61558096944748

> <r_i_glide_ligand_efficiency>
-0.282811204983749

> <r_i_glide_ligand_efficiency_sa>
-0.916198516121911

> <r_i_glide_ligand_efficiency_ln>
-2.12435154406153

> <r_i_glide_gscore>
-9.61558096944748

> <r_i_glide_lipo>
-3.74443524026023

> <r_i_glide_hbond>
-0.626698059683276

> <r_i_glide_metal>
0

> <r_i_glide_rewards>
-1.53806001286698

> <r_i_glide_evdw>
-48.2780647277832

> <r_i_glide_ecoul>
-11.4370384216309

> <r_i_glide_erotb>
0.4596604306845

> <r_i_glide_esite>
-0.0365890876877027

> <r_i_glide_emodel>
-76.8648696433259

> <r_i_glide_energy>
-59.7151031494141

> <r_i_glide_einternal>
6.27134037017822

> <i_i_glide_confnum>
3

> <i_i_glide_posenum>
112

> <r_i_glide_eff_state_penalty>
0

> <s_user_duplicate_titles>
CHEMBL1957_lig628

> <i_f3d_flags>
0

> <s_m_subgroup_title>
dock_pv

> <s_m_subgroupid>
dock_pv

> <b_m_subgroup_collapsed>
1

$$$$
CHEMBL1957_lig78
                    3D
 Schrodinger Suite 2021-1.
 55 58  0  0  1  0            999 V2000
    5.8965   -9.9301   21.7735 C   0  0  0  0  0  0
    6.1336   -9.2541   22.9854 C   0  0  0  0  0  0
    5.7918   -7.9133   23.1905 C   0  0  0  0  0  0
    5.2380   -9.2651   20.7226 C   0  0  0  0  0  0
    6.1364   -7.2355   24.5069 C   0  0  0  0  0  0
    4.8913   -7.9304   20.9263 C   0  0  0  0  0  0
    5.1585   -7.2494   22.1298 C   0  0  0  0  0  0
    4.7415   -5.9490   22.0486 N   0  0  0  0  0  0
    4.2483   -5.7840   20.8382 C   0  0  0  0  0  0
    3.8495   -4.4625   20.2381 C   0  0  0  0  0  0
    4.2016   -3.2522   20.7982 C   0  0  0  0  0  0
    3.9692   -2.0294   20.0339 C   0  0  0  0  0  0
    3.4574   -2.1338   18.7988 C   0  0  0  0  0  0
    3.2380   -4.5068   18.8802 C   0  0  0  0  0  0
    2.8380   -5.5117   18.2899 O   0  0  0  0  0  0
    4.8380   -3.1808   22.0194 N   0  0  0  0  0  0
    5.3067   -2.0605   22.8381 C   0  0  0  0  0  0
    6.8394   -1.8889   23.0216 C   0  0  2  0  0  0
    7.6583   -3.1789   23.2095 C   0  0  0  0  0  0
    6.9620   -0.9708   24.1010 O   0  0  0  0  0  0
    8.4147   -3.4256   24.3674 C   0  0  0  0  0  0
    9.1748   -4.5890   24.4929 C   0  0  0  0  0  0
    9.2059   -5.5177   23.4547 C   0  0  0  0  0  0
    8.4649   -5.2842   22.2984 C   0  0  0  0  0  0
    7.7173   -4.1156   22.1694 C   0  0  0  0  0  0
    8.4385   -6.4547   21.0380 Cl  0  0  0  0  0  0
    6.3133  -11.3441   21.5866 C   0  0  0  0  0  0
    5.5074  -12.1459   21.0385 N   0  0  0  0  0  0
    7.5894  -11.6832   22.0186 N   0  0  0  0  0  0
    8.7168  -10.7697   22.1848 C   0  0  0  0  0  0
    4.2984   -6.9759   20.1411 N   0  0  0  0  0  0
    3.1045   -3.3190   18.2378 N   0  0  0  0  0  0
    6.6036   -9.7897   23.7984 H   0  0  0  0  0  0
    5.0264   -9.7644   19.7866 H   0  0  0  0  0  0
    6.7611   -6.3637   24.3273 H   0  0  0  0  0  0
    6.6689   -7.8930   25.1941 H   0  0  0  0  0  0
    5.2378   -6.8652   24.9946 H   0  0  0  0  0  0
    4.2484   -1.0620   20.4126 H   0  0  0  0  0  0
    3.2679   -1.2947   18.1422 H   0  0  0  0  0  0
    5.0381   -4.0849   22.4364 H   0  0  0  0  0  0
    4.9238   -1.1396   22.4298 H   0  0  0  0  0  0
    4.8390   -2.1297   23.8197 H   0  0  0  0  0  0
    7.2363   -1.4029   22.1291 H   0  0  0  0  0  0
    7.8953   -0.7682   24.2379 H   0  0  0  0  0  0
    8.4367   -2.7152   25.1796 H   0  0  0  0  0  0
    9.7387   -4.7704   25.3950 H   0  0  0  0  0  0
    9.7955   -6.4188   23.5483 H   0  0  0  0  0  0
    7.1740   -3.9467   21.2514 H   0  0  0  0  0  0
    5.8830  -13.0762   20.9435 H   0  0  0  0  0  0
    7.8529  -12.6548   21.9585 H   0  0  0  0  0  0
    9.6559  -11.3157   22.0878 H   0  0  0  0  0  0
    8.7130   -9.9761   21.4382 H   0  0  0  0  0  0
    8.7069  -10.3096   23.1727 H   0  0  0  0  0  0
    3.9781   -7.0531   19.1828 H   0  0  0  0  0  0
    2.6708   -3.3718   17.3234 H   0  0  0  0  0  0
  1 27  1  0  0  0
  1  2  2  0  0  0
  1  4  1  0  0  0
  2  3  1  0  0  0
  2 33  1  0  0  0
  3  7  2  0  0  0
  3  5  1  0  0  0
  4  6  2  0  0  0
  4 34  1  0  0  0
  5 35  1  0  0  0
  5 36  1  0  0  0
  5 37  1  0  0  0
  6  7  1  0  0  0
  6 31  1  0  0  0
  7  8  1  0  0  0
  8  9  2  0  0  0
  9 10  1  0  0  0
  9 31  1  0  0  0
 10 11  2  0  0  0
 10 14  1  0  0  0
 11 12  1  0  0  0
 11 16  1  0  0  0
 12 13  2  0  0  0
 12 38  1  0  0  0
 13 32  1  0  0  0
 13 39  1  0  0  0
 14 15  2  0  0  0
 14 32  1  0  0  0
 16 17  1  0  0  0
 16 40  1  0  0  0
 17 18  1  0  0  0
 17 41  1  0  0  0
 17 42  1  0  0  0
 18 19  1  0  0  0
 18 20  1  0  0  0
 18 43  1  0  0  0
 19 21  2  0  0  0
 19 25  1  0  0  0
 20 44  1  0  0  0
 21 22  1  0  0  0
 21 45  1  0  0  0
 22 23  2  0  0  0
 22 46  1  0  0  0
 23 24  1  0  0  0
 23 47  1  0  0  0
 24 25  2  0  0  0
 24 26  1  0  0  0
 25 48  1  0  0  0
 27 28  2  0  0  0
 27 29  1  0  0  0
 28 49  1  0  0  0
 29 30  1  0  0  0
 29 50  1  0  0  0
 30 51  1  0  0  0
 30 52  1  0  0  0
 30 53  1  0  0  0
 31 54  1  0  0  0
 32 55  1  0  0  0
M  END
> <s_m_entry_id>
5610

> <s_m_entry_name>
dock_pv.5

> <s_m_Source_Path>
/home/csk/Desktop/cluster/DUD-E-result/igf1r

> <s_m_Source_File>
dock_pv.maegz

> <i_m_Source_File_Index>
5

> <chembl_id>
CHEMBL425819

> <chembl_pref_name>
None

> <i_lp_mmshare_version>
53161

> <r_lp_tautomer_probability>
0.999206294981429

> <s_lp_Force_Field>
OPLS_2005

> <r_lp_Energy>
31.659923

> <b_lp_Chiralities_Consistent>
1

> <s_lp_Variant>
CHEMBL1957_lig78-1

> <s_i_glide_gridfile>
glide-grid_2oj9

> <i_i_glide_lignum>
223

> <i_i_glide_rotatable_bonds>
8

> <r_i_docking_score>
-9.41878466348986

> <r_i_glide_ligand_efficiency>
-0.294337020734058

> <r_i_glide_ligand_efficiency_sa>
-0.934461791613327

> <r_i_glide_ligand_efficiency_ln>
-2.10912263252847

> <r_i_glide_gscore>
-9.41878466348986

> <r_i_glide_lipo>
-4.00758356557441

> <r_i_glide_hbond>
-0.890073725543605

> <r_i_glide_metal>
0

> <r_i_glide_rewards>
-1.52688378673664

> <r_i_glide_evdw>
-46.8057708740234

> <r_i_glide_ecoul>
-7.12113857269287

> <r_i_glide_erotb>
0.414215743969901

> <r_i_glide_esite>
0

> <r_i_glide_emodel>
-70.4357475586533

> <r_i_glide_energy>
-53.9269094467163

> <r_i_glide_einternal>
11.1982145309448

> <i_i_glide_confnum>
2

> <i_i_glide_posenum>
59

> <r_i_glide_eff_state_penalty>
0

> <s_user_duplicate_titles>
CHEMBL1957_lig78,383748

> <i_f3d_flags>
0

> <s_m_subgroup_title>
dock_pv

> <s_m_subgroupid>
dock_pv

> <b_m_subgroup_collapsed>
1

$$$$
CHEMBL1957_lig243
                    3D
 Schrodinger Suite 2021-1.
 56 60  0  0  1  0            999 V2000
    6.0345   -9.6224   21.8787 C   0  0  0  0  0  0
    6.2809   -8.9379   23.0825 C   0  0  0  0  0  0
    5.8719   -7.6161   23.3021 C   0  0  0  0  0  0
    5.2986   -9.0019   20.8616 C   0  0  0  0  0  0
    4.9382   -7.6756   21.0587 C   0  0  0  0  0  0
    5.2323   -6.9619   22.2374 C   0  0  0  0  0  0
    4.8377   -5.6537   22.1151 N   0  0  0  0  0  0
    4.3044   -5.5385   20.9133 C   0  0  0  0  0  0
    4.3050   -6.7598   20.2709 N   0  0  0  0  0  0
    6.1579   -6.9461   24.6355 C   0  0  0  0  0  0
    6.5749  -10.8790   21.6240 N   0  0  0  0  0  0
    7.6154  -11.4997   22.4626 C   0  0  0  0  0  0
    8.4777  -12.5024   21.6620 C   0  0  0  0  0  0
    7.6599  -13.4718   21.0201 O   0  0  0  0  0  0
    6.7019  -12.8771   20.1547 C   0  0  0  0  0  0
    5.7901  -11.9378   20.9644 C   0  0  0  0  0  0
    3.8833   -4.2550   20.2466 C   0  0  0  0  0  0
    4.2157   -3.0115   20.7382 C   0  0  0  0  0  0
    3.9683   -1.8343   19.9123 C   0  0  0  0  0  0
    3.4308   -2.0102   18.6995 C   0  0  0  0  0  0
    3.0618   -3.2229   18.2250 N   0  0  0  0  0  0
    3.2380   -4.3768   18.9113 C   0  0  0  0  0  0
    2.8383   -5.4128   18.3763 O   0  0  0  0  0  0
    4.9184   -2.8500   21.9079 N   0  0  0  0  0  0
    5.8880   -1.8044   22.2252 C   0  0  0  0  0  0
    6.8192   -2.1525   23.4069 C   0  0  0  0  0  0
    7.6414   -3.3425   23.1763 N   0  0  0  0  0  0
    8.4380   -3.7758   24.1644 N   0  0  0  0  0  0
    9.0086   -4.8599   23.6827 C   0  0  0  0  0  0
    8.5625   -5.1832   22.3950 C   0  0  0  0  0  0
    7.7276   -4.1413   22.0622 C   0  0  0  0  0  0
    8.9250   -6.5616   21.4432 Cl  0  0  0  0  0  0
    6.8173   -9.4390   23.8740 H   0  0  0  0  0  0
    5.0992   -9.4863   19.9178 H   0  0  0  0  0  0
    3.9440   -6.8695   19.3298 H   0  0  0  0  0  0
    6.5761   -7.6319   25.3732 H   0  0  0  0  0  0
    6.8467   -6.1171   24.5072 H   0  0  0  0  0  0
    5.2386   -6.5227   25.0363 H   0  0  0  0  0  0
    8.2899  -10.7274   22.8335 H   0  0  0  0  0  0
    7.1599  -11.9741   23.3333 H   0  0  0  0  0  0
    9.1661  -13.0183   22.3311 H   0  0  0  0  0  0
    9.0927  -11.9805   20.9266 H   0  0  0  0  0  0
    6.1039  -13.6539   19.6828 H   0  0  0  0  0  0
    7.1985  -12.3377   19.3463 H   0  0  0  0  0  0
    5.2278  -12.4912   21.7176 H   0  0  0  0  0  0
    5.0507  -11.5333   20.2762 H   0  0  0  0  0  0
    4.2601   -0.8501   20.2383 H   0  0  0  0  0  0
    3.2379   -1.2154   17.9943 H   0  0  0  0  0  0
    2.6106   -3.3255   17.3225 H   0  0  0  0  0  0
    5.0947   -3.7180   22.4049 H   0  0  0  0  0  0
    5.3535   -0.8834   22.4557 H   0  0  0  0  0  0
    6.4940   -1.5712   21.3478 H   0  0  0  0  0  0
    6.1895   -2.4333   24.2525 H   0  0  0  0  0  0
    7.4407   -1.3122   23.7190 H   0  0  0  0  0  0
    9.7043   -5.4420   24.2707 H   0  0  0  0  0  0
    7.1539   -3.9449   21.1705 H   0  0  0  0  0  0
  1  4  1  0  0  0
  1 11  1  0  0  0
  1  2  2  0  0  0
  2  3  1  0  0  0
  2 33  1  0  0  0
  3 10  1  0  0  0
  3  6  2  0  0  0
  4  5  2  0  0  0
  4 34  1  0  0  0
  5  9  1  0  0  0
  5  6  1  0  0  0
  6  7  1  0  0  0
  7  8  2  0  0  0
  8  9  1  0  0  0
  8 17  1  0  0  0
  9 35  1  0  0  0
 10 36  1  0  0  0
 10 37  1  0  0  0
 10 38  1  0  0  0
 11 12  1  0  0  0
 11 16  1  0  0  0
 12 13  1  0  0  0
 12 39  1  0  0  0
 12 40  1  0  0  0
 13 14  1  0  0  0
 13 41  1  0  0  0
 13 42  1  0  0  0
 14 15  1  0  0  0
 15 16  1  0  0  0
 15 43  1  0  0  0
 15 44  1  0  0  0
 16 45  1  0  0  0
 16 46  1  0  0  0
 17 18  2  0  0  0
 17 22  1  0  0  0
 18 19  1  0  0  0
 18 24  1  0  0  0
 19 20  2  0  0  0
 19 47  1  0  0  0
 20 21  1  0  0  0
 20 48  1  0  0  0
 21 22  1  0  0  0
 21 49  1  0  0  0
 22 23  2  0  0  0
 24 25  1  0  0  0
 24 50  1  0  0  0
 25 26  1  0  0  0
 25 51  1  0  0  0
 25 52  1  0  0  0
 26 27  1  0  0  0
 26 53  1  0  0  0
 26 54  1  0  0  0
 27 28  1  0  0  0
 27 31  1  0  0  0
 28 29  2  0  0  0
 29 30  1  0  0  0
 29 55  1  0  0  0
 30 31  2  0  0  0
 30 32  1  0  0  0
 31 56  1  0  0  0
M  END
> <s_m_entry_id>
5611

> <s_m_entry_name>
dock_pv.6

> <s_m_Source_Path>
/home/csk/Desktop/cluster/DUD-E-result/igf1r

> <s_m_Source_File>
dock_pv.maegz

> <i_m_Source_File_Index>
6

> <chembl_id>
CHEMBL401766

> <chembl_pref_name>
None

> <i_lp_mmshare_version>
53161

> <r_lp_tautomer_probability>
0.999206294981429

> <s_lp_Force_Field>
OPLS_2005

> <r_lp_Energy>
43.959842

> <b_lp_Chiralities_Consistent>
1

> <s_lp_Variant>
CHEMBL1957_lig243-1

> <s_i_glide_gridfile>
glide-grid_2oj9

> <i_i_glide_lignum>
414

> <i_i_glide_rotatable_bonds>
6

> <r_i_docking_score>
-9.32793697235577

> <r_i_glide_ligand_efficiency>
-0.291498030386118

> <r_i_glide_ligand_efficiency_sa>
-0.925448559094043

> <r_i_glide_ligand_efficiency_ln>
-2.08877935806901

> <r_i_glide_gscore>
-9.32793697235577

> <r_i_glide_lipo>
-3.89636400796848

> <r_i_glide_hbond>
-0.578106208508945

> <r_i_glide_metal>
0

> <r_i_glide_rewards>
-1.6003062526948

> <r_i_glide_evdw>
-48.2711372375488

> <r_i_glide_ecoul>
-7.87093067169189

> <r_i_glide_erotb>
0.341035959447693

> <r_i_glide_esite>
0

> <r_i_glide_emodel>
-71.5613898313043

> <r_i_glide_energy>
-56.1420679092407

> <r_i_glide_einternal>
3.47262287139893

> <i_i_glide_confnum>
45

> <i_i_glide_posenum>
307

> <r_i_glide_eff_state_penalty>
0

> <s_user_duplicate_titles>
CHEMBL1957_lig243,424453

> <i_f3d_flags>
0

> <s_m_subgroup_title>
dock_pv

> <s_m_subgroupid>
dock_pv

> <b_m_subgroup_collapsed>
1

$$$$
CHEMBL1957_lig2691
                    3D
 Schrodinger Suite 2021-1.
 60 64  0  0  1  0            999 V2000
    9.6379   -2.8560   26.4634 Cl  0  0  0  0  0  0
    2.8452   -5.6458   18.3157 O   0  0  0  0  0  0
    8.1534  -13.4578   21.1176 O   0  0  0  0  0  0
    6.8380   -2.8812   20.7321 O   0  0  0  0  0  0
    4.7761   -5.8501   22.1002 N   0  0  0  0  0  0
    4.4306   -6.9593   20.2179 N   0  0  0  0  0  0
    6.8492  -10.9636   21.7102 N   0  0  0  0  0  0
    3.1366   -3.4417   18.1824 N   0  0  0  0  0  0
    4.4382   -3.0918   22.0911 N   0  0  0  0  0  0
    5.2636   -7.1231   22.2280 C   0  0  0  0  0  0
    4.2863   -5.7574   20.8793 C   0  0  0  0  0  0
    5.0745   -7.8463   21.0387 C   0  0  0  0  0  0
    3.7500   -4.5023   20.2503 C   0  0  0  0  0  0
    5.8957   -7.7308   23.3205 C   0  0  0  0  0  0
    6.2284   -9.7350   21.9259 C   0  0  0  0  0  0
    5.5147   -9.1516   20.8693 C   0  0  0  0  0  0
    3.8489   -3.2698   20.8583 C   0  0  0  0  0  0
    3.2378   -4.6135   18.8654 C   0  0  0  0  0  0
    6.3855   -9.0278   23.1331 C   0  0  0  0  0  0
    3.4787   -2.0908   20.1027 C   0  0  0  0  0  0
    6.0849   -7.0291   24.6535 C   0  0  0  0  0  0
    3.2054   -2.2319   18.7971 C   0  0  0  0  0  0
    6.2050  -12.0429   20.9370 C   0  0  0  0  0  0
    7.8336  -11.5587   22.6323 C   0  0  0  0  0  0
    5.4356   -2.0942   22.4897 C   0  0  0  0  0  0
    6.8741   -2.4282   22.0637 C   0  0  1  0  0  0
    7.6656   -3.3405   23.0014 C   0  0  0  0  0  0
    7.2581  -12.8694   20.1799 C   0  0  0  0  0  0
    8.8371  -12.4755   21.8897 C   0  0  0  0  0  0
    8.1128   -2.8305   24.2261 C   0  0  0  0  0  0
    8.0774   -4.6253   22.6159 C   0  0  0  0  0  0
    8.9842   -3.5693   25.0289 C   0  0  0  0  0  0
    8.9312   -5.3757   23.4265 C   0  0  0  0  0  0
    9.3696   -4.8514   24.6387 C   0  0  0  0  0  0
    6.1045   -2.4489   20.2783 H   0  0  0  0  0  0
    4.1270   -7.0862   19.2584 H   0  0  0  0  0  0
    2.7346   -3.5362   17.2592 H   0  0  0  0  0  0
    4.6496   -3.9824   22.5287 H   0  0  0  0  0  0
    5.3909   -9.6418   19.9183 H   0  0  0  0  0  0
    6.9117   -9.4920   23.9519 H   0  0  0  0  0  0
    3.4021   -1.1490   20.6152 H   0  0  0  0  0  0
    6.5425   -7.6644   25.4119 H   0  0  0  0  0  0
    6.6951   -6.1377   24.5348 H   0  0  0  0  0  0
    5.1268   -6.6810   25.0366 H   0  0  0  0  0  0
    2.8506   -1.4315   18.1639 H   0  0  0  0  0  0
    5.6315  -12.6778   21.6133 H   0  0  0  0  0  0
    5.4902  -11.6685   20.2092 H   0  0  0  0  0  0
    8.4213  -10.7689   23.1014 H   0  0  0  0  0  0
    7.3226  -12.0955   23.4325 H   0  0  0  0  0  0
    5.3829   -1.9364   23.5680 H   0  0  0  0  0  0
    5.2180   -1.1267   22.0504 H   0  0  0  0  0  0
    7.4315   -1.4916   22.0384 H   0  0  0  0  0  0
    7.8035  -12.2540   19.4610 H   0  0  0  0  0  0
    6.7708  -13.6527   19.6045 H   0  0  0  0  0  0
    9.5002  -11.8852   21.2523 H   0  0  0  0  0  0
    9.4769  -12.9834   22.6130 H   0  0  0  0  0  0
    7.8520   -1.8260   24.5231 H   0  0  0  0  0  0
    7.7634   -5.0376   21.6652 H   0  0  0  0  0  0
    9.2517   -6.3572   23.1097 H   0  0  0  0  0  0
   10.0344   -5.4292   25.2639 H   0  0  0  0  0  0
  1 32  1  0  0  0
  2 18  2  0  0  0
  3 28  1  0  0  0
  3 29  1  0  0  0
  4 26  1  0  0  0
  4 35  1  0  0  0
  5 10  1  0  0  0
  5 11  2  0  0  0
  6 11  1  0  0  0
  6 12  1  0  0  0
  6 36  1  0  0  0
  7 15  1  0  0  0
  7 23  1  0  0  0
  7 24  1  0  0  0
  8 18  1  0  0  0
  8 22  1  0  0  0
  8 37  1  0  0  0
  9 17  1  0  0  0
  9 25  1  0  0  0
  9 38  1  0  0  0
 10 12  2  0  0  0
 10 14  1  0  0  0
 11 13  1  0  0  0
 12 16  1  0  0  0
 13 17  2  0  0  0
 13 18  1  0  0  0
 14 19  2  0  0  0
 14 21  1  0  0  0
 15 16  2  0  0  0
 15 19  1  0  0  0
 16 39  1  0  0  0
 17 20  1  0  0  0
 19 40  1  0  0  0
 20 22  2  0  0  0
 20 41  1  0  0  0
 21 42  1  0  0  0
 21 43  1  0  0  0
 21 44  1  0  0  0
 22 45  1  0  0  0
 23 28  1  0  0  0
 23 46  1  0  0  0
 23 47  1  0  0  0
 24 29  1  0  0  0
 24 48  1  0  0  0
 24 49  1  0  0  0
 25 26  1  0  0  0
 25 50  1  0  0  0
 25 51  1  0  0  0
 26 27  1  0  0  0
 26 52  1  0  0  0
 27 30  1  0  0  0
 27 31  2  0  0  0
 28 53  1  0  0  0
 28 54  1  0  0  0
 29 55  1  0  0  0
 29 56  1  0  0  0
 30 32  2  0  0  0
 30 57  1  0  0  0
 31 33  1  0  0  0
 31 58  1  0  0  0
 32 34  1  0  0  0
 33 34  2  0  0  0
 33 59  1  0  0  0
 34 60  1  0  0  0
M  END
> <s_m_entry_id>
5612

> <s_m_entry_name>
dock_pv.7

> <s_m_Source_Path>
/home/csk/Desktop/cluster/DUD-E-result/igf1r

> <s_m_Source_File>
dock_pv.maegz

> <i_m_Source_File_Index>
7

> <chembl_id>
CHEMBL2005886

> <chembl_pref_name>
None

> <i_lp_mmshare_version>
53161

> <r_lp_tautomer_probability>
0.999206294981429

> <s_lp_Force_Field>
OPLS_2005

> <r_lp_Energy>
51.171792

> <b_lp_Chiralities_Consistent>
1

> <s_lp_Variant>
CHEMBL1957_lig2691-2

> <s_i_glide_gridfile>
glide-grid_2oj9

> <i_i_glide_lignum>
3719

> <i_i_glide_rotatable_bonds>
7

> <r_i_docking_score>
-9.30618186870439

> <r_i_glide_ligand_efficiency>
-0.273711231432482

> <r_i_glide_ligand_efficiency_sa>
-0.886718134448565

> <r_i_glide_ligand_efficiency_ln>
-2.05599660435656

> <r_i_glide_gscore>
-9.30618186870439

> <r_i_glide_lipo>
-4.36958157978747

> <r_i_glide_hbond>
-0.622722579967514

> <r_i_glide_metal>
0

> <r_i_glide_rewards>
-1.35058867668685

> <r_i_glide_evdw>
-39.3448753356934

> <r_i_glide_ecoul>
-8.6940279006958

> <r_i_glide_erotb>
0.308058919626486

> <r_i_glide_esite>
0

> <r_i_glide_emodel>
-71.5517481673169

> <r_i_glide_energy>
-48.0389032363892

> <r_i_glide_einternal>
6.03473806381226

> <i_i_glide_confnum>
13

> <i_i_glide_posenum>
286

> <r_i_glide_eff_state_penalty>
0

> <s_user_duplicate_titles>
CHEMBL1957_lig2691

> <i_f3d_flags>
0

> <s_m_subgroup_title>
dock_pv

> <s_m_subgroupid>
dock_pv

> <b_m_subgroup_collapsed>
1

$$$$
CHEMBL1957_lig2210
                    3D
 Schrodinger Suite 2021-1.
 59 63  0  0  1  0            999 V2000
    8.0882  -11.8163   22.5720 C   0  0  0  0  0  0
    7.9645  -11.2541   21.2726 O   0  0  0  0  0  0
    6.9371  -11.8148   20.4587 C   0  0  0  0  0  0
    5.5136  -11.4267   20.9018 C   0  0  0  0  0  0
    5.3229   -9.9821   20.9226 N   0  0  0  0  0  0
    5.6345   -9.1286   21.9408 C   0  0  0  0  0  0
    5.1357   -7.9085   21.5349 C   0  0  0  0  0  0
    4.5898   -8.0996   20.2640 C   0  0  0  0  0  0
    3.9248   -7.2270   19.4380 N   0  0  0  0  0  0
    3.6380   -5.8596   19.5602 C   0  0  0  0  0  0
    3.2004   -5.2708   18.4197 N   0  0  0  0  0  0
    3.1861   -3.9130   18.3931 C   0  0  0  0  0  0
    3.6304   -3.1258   19.4589 C   0  0  0  0  0  0
    3.6379   -1.5981   19.4455 C   0  0  0  0  0  0
    4.9843   -1.0132   19.9397 C   0  0  0  0  0  0
    5.4154   -1.7401   21.2067 C   0  0  0  0  0  0
    6.1989   -1.2336   22.1250 N   0  0  0  0  0  0
    6.4449   -2.2500   22.9559 N   0  0  0  0  0  0
    7.3287   -2.0245   24.0883 C   0  0  0  0  0  0
    5.7662   -3.4014   22.6281 C   0  0  0  0  0  0
    5.9185   -4.6819   23.4380 C   0  0  0  0  0  0
    7.0692   -5.6167   23.0666 C   0  0  0  0  0  0
    7.8596   -5.3556   21.9420 C   0  0  0  0  0  0
    8.8379   -6.2574   21.5465 C   0  0  0  0  0  0
    9.0701   -7.4160   22.2814 C   0  0  0  0  0  0
    8.3158   -7.6757   23.4174 C   0  0  0  0  0  0
    7.3006   -6.7976   23.8027 C   0  0  0  0  0  0
    6.4380   -7.2014   24.9826 C   0  0  0  0  0  0
    5.0261   -3.0621   21.4906 C   0  0  0  0  0  0
    4.1259   -3.8285   20.5706 C   0  0  0  0  0  0
    4.0386   -5.1833   20.6673 N   0  0  0  0  0  0
    4.7667   -9.3472   19.8769 N   0  0  0  0  0  0
    8.9264  -11.3473   23.0873 H   0  0  0  0  0  0
    7.1974  -11.6510   23.1782 H   0  0  0  0  0  0
    8.2854  -12.8882   22.5239 H   0  0  0  0  0  0
    7.0400  -12.9007   20.4210 H   0  0  0  0  0  0
    7.0939  -11.4754   19.4380 H   0  0  0  0  0  0
    5.2859  -11.8158   21.8943 H   0  0  0  0  0  0
    4.7711  -11.8683   20.2372 H   0  0  0  0  0  0
    6.1035   -9.4764   22.8486 H   0  0  0  0  0  0
    5.1254   -6.9976   22.0997 H   0  0  0  0  0  0
    3.7667   -7.5585   18.4919 H   0  0  0  0  0  0
    2.8372   -3.4575   17.4770 H   0  0  0  0  0  0
    2.8403   -1.2550   20.1054 H   0  0  0  0  0  0
    3.4021   -1.2136   18.4519 H   0  0  0  0  0  0
    4.8960    0.0608   20.1068 H   0  0  0  0  0  0
    5.7437   -1.1298   19.1656 H   0  0  0  0  0  0
    7.8792   -2.9359   24.3239 H   0  0  0  0  0  0
    8.0517   -1.2529   23.8409 H   0  0  0  0  0  0
    6.7408   -1.7127   24.9516 H   0  0  0  0  0  0
    4.9929   -5.2536   23.3896 H   0  0  0  0  0  0
    6.0381   -4.4243   24.4900 H   0  0  0  0  0  0
    7.7089   -4.4706   21.3423 H   0  0  0  0  0  0
    9.4126   -6.0537   20.6602 H   0  0  0  0  0  0
    9.8431   -8.1075   21.9782 H   0  0  0  0  0  0
    8.5003   -8.5821   23.9755 H   0  0  0  0  0  0
    7.0313   -7.7135   25.7415 H   0  0  0  0  0  0
    5.9793   -6.3491   25.4738 H   0  0  0  0  0  0
    5.6471   -7.8689   24.6382 H   0  0  0  0  0  0
  1  2  1  0  0  0
  1 33  1  0  0  0
  1 34  1  0  0  0
  1 35  1  0  0  0
  2  3  1  0  0  0
  3  4  1  0  0  0
  3 36  1  0  0  0
  3 37  1  0  0  0
  4  5  1  0  0  0
  4 38  1  0  0  0
  4 39  1  0  0  0
  5  6  1  0  0  0
  5 32  1  0  0  0
  6  7  2  0  0  0
  6 40  1  0  0  0
  7  8  1  0  0  0
  7 41  1  0  0  0
  8  9  1  0  0  0
  8 32  2  0  0  0
  9 10  1  0  0  0
  9 42  1  0  0  0
 10 11  2  0  0  0
 10 31  1  0  0  0
 11 12  1  0  0  0
 12 13  2  0  0  0
 12 43  1  0  0  0
 13 14  1  0  0  0
 13 30  1  0  0  0
 14 15  1  0  0  0
 14 44  1  0  0  0
 14 45  1  0  0  0
 15 16  1  0  0  0
 15 46  1  0  0  0
 15 47  1  0  0  0
 16 17  2  0  0  0
 16 29  1  0  0  0
 17 18  1  0  0  0
 18 19  1  0  0  0
 18 20  1  0  0  0
 19 48  1  0  0  0
 19 49  1  0  0  0
 19 50  1  0  0  0
 20 21  1  0  0  0
 20 29  2  0  0  0
 21 22  1  0  0  0
 21 51  1  0  0  0
 21 52  1  0  0  0
 22 23  2  0  0  0
 22 27  1  0  0  0
 23 24  1  0  0  0
 23 53  1  0  0  0
 24 25  2  0  0  0
 24 54  1  0  0  0
 25 26  1  0  0  0
 25 55  1  0  0  0
 26 27  2  0  0  0
 26 56  1  0  0  0
 27 28  1  0  0  0
 28 57  1  0  0  0
 28 58  1  0  0  0
 28 59  1  0  0  0
 29 30  1  0  0  0
 30 31  2  0  0  0
M  END
> <s_m_entry_id>
5613

> <s_m_entry_name>
dock_pv.8

> <s_m_Source_Path>
/home/csk/Desktop/cluster/DUD-E-result/igf1r

> <s_m_Source_File>
dock_pv.maegz

> <i_m_Source_File_Index>
8

> <chembl_id>
CHEMBL3656652

> <chembl_pref_name>
None

> <i_lp_mmshare_version>
53161

> <r_lp_tautomer_probability>
0.999999987636

> <s_lp_Force_Field>
OPLS_2005

> <r_lp_Energy>
8.865828

> <b_lp_Chiralities_Consistent>
1

> <s_lp_Variant>
CHEMBL1957_lig2210-1

> <s_i_glide_gridfile>
glide-grid_2oj9

> <i_i_glide_lignum>
3186

> <i_i_glide_rotatable_bonds>
7

> <r_i_docking_score>
-9.29157869737195

> <r_i_glide_ligand_efficiency>
-0.290361834292873

> <r_i_glide_ligand_efficiency_sa>
-0.921841361350894

> <r_i_glide_ligand_efficiency_ln>
-2.08063774921099

> <r_i_glide_gscore>
-9.29157869737195

> <r_i_glide_lipo>
-3.61646090579235

> <r_i_glide_hbond>
-0.380733618384222

> <r_i_glide_metal>
0

> <r_i_glide_rewards>
-2.79208063251353

> <r_i_glide_evdw>
-39.6504554748535

> <r_i_glide_ecoul>
-6.4814248085022

> <r_i_glide_erotb>
0.452432954336154

> <r_i_glide_esite>
0

> <r_i_glide_emodel>
-55.7355892873529

> <r_i_glide_energy>
-46.1318802833557

> <r_i_glide_einternal>
6.03195905685425

> <i_i_glide_confnum>
18

> <i_i_glide_posenum>
58

> <r_i_glide_eff_state_penalty>
0

> <s_user_duplicate_titles>
CHEMBL1957_lig2210

> <i_f3d_flags>
0

> <s_m_subgroup_title>
dock_pv

> <s_m_subgroupid>
dock_pv

> <b_m_subgroup_collapsed>
1

$$$$
CHEMBL1957_lig2308
                    3D
 Schrodinger Suite 2021-1.
 52 56  0  0  1  0            999 V2000
    6.6802   -8.7228   23.8534 C   0  0  0  0  0  0
    5.9698   -8.4979   22.5411 C   0  0  0  0  0  0
    5.2013   -7.4536   22.0582 C   0  0  0  0  0  0
    4.8067   -7.8029   20.7627 C   0  0  0  0  0  0
    4.0380   -7.1493   19.8380 N   0  0  0  0  0  0
    3.6380   -5.8083   19.7168 C   0  0  0  0  0  0
    3.1711   -5.5039   18.4835 N   0  0  0  0  0  0
    3.1358   -4.1908   18.1436 C   0  0  0  0  0  0
    3.5350   -3.1648   18.9989 C   0  0  0  0  0  0
    3.4690   -1.6783   18.6353 C   0  0  0  0  0  0
    4.7304   -0.8795   19.0587 C   0  0  0  0  0  0
    5.1525   -1.3002   20.4561 C   0  0  0  0  0  0
    5.8445   -0.5553   21.2867 N   0  0  0  0  0  0
    6.0384   -1.3391   22.3519 N   0  0  0  0  0  0
    6.7821   -0.8308   23.4952 C   0  0  0  0  0  0
    5.5546   -2.6123   22.1718 C   0  0  0  0  0  0
    5.8715   -3.7377   23.1257 C   0  0  0  0  0  0
    7.2508   -4.3419   23.0202 C   0  0  0  0  0  0
    8.0869   -4.0160   21.9529 C   0  0  0  0  0  0
    9.3960   -4.4540   21.9497 C   0  0  0  0  0  0
    9.8719   -5.2539   22.9897 C   0  0  0  0  0  0
    9.0236   -5.6579   24.0101 C   0  0  0  0  0  0
    9.6354   -6.7054   25.2359 Cl  0  0  0  0  0  0
    7.7091   -5.1937   24.0351 C   0  0  0  0  0  0
    4.8377   -2.5648   20.9877 C   0  0  0  0  0  0
    4.0425   -3.5826   20.2384 C   0  0  0  0  0  0
    4.0380   -4.8885   20.6380 N   0  0  0  0  0  0
    5.2380   -9.0043   20.4619 N   0  0  0  0  0  0
    5.9669   -9.4054   21.5091 N   0  0  0  0  0  0
    6.5584  -10.7336   21.4736 C   0  0  0  0  0  0
    6.3599   -8.0146   24.6179 H   0  0  0  0  0  0
    6.4895   -9.7241   24.2380 H   0  0  0  0  0  0
    7.7600   -8.6183   23.7468 H   0  0  0  0  0  0
    4.9452   -6.5548   22.5862 H   0  0  0  0  0  0
    3.8550   -7.6446   18.9746 H   0  0  0  0  0  0
    2.8379   -3.9719   17.1306 H   0  0  0  0  0  0
    2.6135   -1.2547   19.1544 H   0  0  0  0  0  0
    3.2636   -1.5449   17.5720 H   0  0  0  0  0  0
    4.5282    0.1913   19.0377 H   0  0  0  0  0  0
    5.5387   -1.0460   18.3472 H   0  0  0  0  0  0
    6.2750   -1.1164   24.4165 H   0  0  0  0  0  0
    7.7852   -1.2576   23.4943 H   0  0  0  0  0  0
    6.8362    0.2584   23.4660 H   0  0  0  0  0  0
    5.1509   -4.5408   23.0380 H   0  0  0  0  0  0
    5.8247   -3.3602   24.1445 H   0  0  0  0  0  0
    7.7618   -3.3706   21.1506 H   0  0  0  0  0  0
   10.0397   -4.0731   21.1746 H   0  0  0  0  0  0
   10.9041   -5.5549   23.0380 H   0  0  0  0  0  0
    7.0639   -5.4700   24.8574 H   0  0  0  0  0  0
    5.8481  -11.4497   21.8881 H   0  0  0  0  0  0
    6.7986  -11.0131   20.4464 H   0  0  0  0  0  0
    7.4740  -10.7477   22.0643 H   0  0  0  0  0  0
  1  2  1  0  0  0
  1 31  1  0  0  0
  1 32  1  0  0  0
  1 33  1  0  0  0
  2  3  2  0  0  0
  2 29  1  0  0  0
  3  4  1  0  0  0
  3 34  1  0  0  0
  4  5  1  0  0  0
  4 28  2  0  0  0
  5  6  1  0  0  0
  5 35  1  0  0  0
  6  7  2  0  0  0
  6 27  1  0  0  0
  7  8  1  0  0  0
  8  9  2  0  0  0
  8 36  1  0  0  0
  9 10  1  0  0  0
  9 26  1  0  0  0
 10 11  1  0  0  0
 10 37  1  0  0  0
 10 38  1  0  0  0
 11 12  1  0  0  0
 11 39  1  0  0  0
 11 40  1  0  0  0
 12 13  2  0  0  0
 12 25  1  0  0  0
 13 14  1  0  0  0
 14 15  1  0  0  0
 14 16  1  0  0  0
 15 41  1  0  0  0
 15 42  1  0  0  0
 15 43  1  0  0  0
 16 17  1  0  0  0
 16 25  2  0  0  0
 17 18  1  0  0  0
 17 44  1  0  0  0
 17 45  1  0  0  0
 18 19  2  0  0  0
 18 24  1  0  0  0
 19 20  1  0  0  0
 19 46  1  0  0  0
 20 21  2  0  0  0
 20 47  1  0  0  0
 21 22  1  0  0  0
 21 48  1  0  0  0
 22 23  1  0  0  0
 22 24  2  0  0  0
 24 49  1  0  0  0
 25 26  1  0  0  0
 26 27  2  0  0  0
 28 29  1  0  0  0
 29 30  1  0  0  0
 30 50  1  0  0  0
 30 51  1  0  0  0
 30 52  1  0  0  0
M  END
> <s_m_entry_id>
5614

> <s_m_entry_name>
dock_pv.9

> <s_m_Source_Path>
/home/csk/Desktop/cluster/DUD-E-result/igf1r

> <s_m_Source_File>
dock_pv.maegz

> <i_m_Source_File_Index>
9

> <chembl_id>
CHEMBL3656749

> <chembl_pref_name>
None

> <i_lp_mmshare_version>
53161

> <r_lp_tautomer_probability>
0.999999987636

> <s_lp_Force_Field>
OPLS_2005

> <r_lp_Energy>
7.364713

> <b_lp_Chiralities_Consistent>
1

> <s_lp_Variant>
CHEMBL1957_lig2308-1

> <s_i_glide_gridfile>
glide-grid_2oj9

> <i_i_glide_lignum>
3291

> <i_i_glide_rotatable_bonds>
4

> <r_i_docking_score>
-9.24004692521166

> <r_i_glide_ligand_efficiency>
-0.308001564173722

> <r_i_glide_ligand_efficiency_sa>
-0.957032471000203

> <r_i_glide_ligand_efficiency_ln>
-2.09943933978304

> <r_i_glide_gscore>
-9.24004692521166

> <r_i_glide_lipo>
-3.79020282976912

> <r_i_glide_hbond>
-0.440436833686638

> <r_i_glide_metal>
0

> <r_i_glide_rewards>
-2.78838716714967

> <r_i_glide_evdw>
-38.3560943603516

> <r_i_glide_ecoul>
-4.11626720428467

> <r_i_glide_erotb>
0.31422470405404

> <r_i_glide_esite>
0

> <r_i_glide_emodel>
-44.2121096275464

> <r_i_glide_energy>
-42.4723615646362

> <r_i_glide_einternal>
7.39749526977539

> <i_i_glide_confnum>
9

> <i_i_glide_posenum>
13

> <r_i_glide_eff_state_penalty>
0

> <s_user_duplicate_titles>
CHEMBL1957_lig2308

> <i_f3d_flags>
0

> <s_m_subgroup_title>
dock_pv

> <s_m_subgroupid>
dock_pv

> <b_m_subgroup_collapsed>
1

$$$$
CHEMBL1957_lig239
                    3D
 Schrodinger Suite 2021-1.
 59 63  0  0  1  0            999 V2000
    6.0322   -9.3683   22.1559 C   0  0  0  0  0  0
    6.2272   -8.5859   23.3091 C   0  0  0  0  0  0
    5.8339   -7.2430   23.3921 C   0  0  0  0  0  0
    5.3898   -8.8135   21.0393 C   0  0  0  0  0  0
    5.0223   -7.4757   21.1200 C   0  0  0  0  0  0
    5.2482   -6.6735   22.2533 C   0  0  0  0  0  0
    4.8381   -5.3823   22.0238 N   0  0  0  0  0  0
    4.3042   -5.3774   20.8175 C   0  0  0  0  0  0
    4.4234   -6.6276   20.2405 N   0  0  0  0  0  0
    6.5034  -10.6774   22.0674 N   0  0  0  0  0  0
    6.0367   -6.4840   24.6877 C   0  0  0  0  0  0
    5.6789  -11.7393   21.4586 C   0  0  0  0  0  0
    6.5532  -12.8830   20.9080 C   0  0  0  0  0  0
    7.3269  -13.4401   21.9637 O   0  0  0  0  0  0
    8.1868  -12.4742   22.5540 C   0  0  0  0  0  0
    7.3731  -11.2757   23.0971 C   0  0  0  0  0  0
    3.8055   -4.1612   20.0756 C   0  0  0  0  0  0
    4.0562   -2.8689   20.4811 C   0  0  0  0  0  0
    3.7943   -1.7777   19.5495 C   0  0  0  0  0  0
    3.4330   -2.0798   18.3002 C   0  0  0  0  0  0
    3.1821   -3.3464   17.8872 N   0  0  0  0  0  0
    3.2380   -4.4125   18.7216 C   0  0  0  0  0  0
    2.8385   -5.4887   18.2798 O   0  0  0  0  0  0
    4.7706   -2.5793   21.6187 N   0  0  0  0  0  0
    5.7295   -1.4830   21.7534 C   0  0  0  0  0  0
    6.3852   -1.3945   23.1399 C   0  0  0  0  0  0
    7.3083   -2.4850   23.4307 N   0  0  0  0  0  0
    7.6812   -3.5528   22.6527 C   0  0  0  0  0  0
    8.5767   -4.2616   23.4252 C   0  0  0  0  0  0
    8.6703   -3.5586   24.6368 C   0  0  0  0  0  0
    7.9356   -2.4678   24.6098 N   0  0  0  0  0  0
    9.4738   -3.8925   25.8650 C   0  0  0  0  0  0
    6.6916   -9.0243   24.1780 H   0  0  0  0  0  0
    5.2313   -9.3720   20.1263 H   0  0  0  0  0  0
    4.0830   -6.8161   19.3047 H   0  0  0  0  0  0
    6.4535   -7.1097   25.4733 H   0  0  0  0  0  0
    6.6982   -5.6385   24.5401 H   0  0  0  0  0  0
    5.0866   -6.0807   25.0370 H   0  0  0  0  0  0
    4.9706  -12.1155   22.1994 H   0  0  0  0  0  0
    5.0814  -11.3689   20.6300 H   0  0  0  0  0  0
    7.1974  -12.5307   20.0993 H   0  0  0  0  0  0
    5.9138  -13.6543   20.4819 H   0  0  0  0  0  0
    8.9394  -12.1380   21.8359 H   0  0  0  0  0  0
    8.7312  -12.9497   23.3720 H   0  0  0  0  0  0
    8.0953  -10.5320   23.4356 H   0  0  0  0  0  0
    6.7778  -11.5664   23.9652 H   0  0  0  0  0  0
    3.9583   -0.7521   19.8321 H   0  0  0  0  0  0
    3.2366   -1.3460   17.5333 H   0  0  0  0  0  0
    2.7531   -3.5303   16.9849 H   0  0  0  0  0  0
    5.0195   -3.3941   22.1694 H   0  0  0  0  0  0
    5.2378   -0.5318   21.5593 H   0  0  0  0  0  0
    6.4844   -1.5508   20.9715 H   0  0  0  0  0  0
    5.5956   -1.4904   23.8866 H   0  0  0  0  0  0
    6.8381   -0.4218   23.3255 H   0  0  0  0  0  0
    7.2940   -3.7138   21.6565 H   0  0  0  0  0  0
    9.0947   -5.1736   23.1652 H   0  0  0  0  0  0
    8.8491   -4.0558   26.7431 H   0  0  0  0  0  0
   10.1710   -3.0932   26.1155 H   0  0  0  0  0  0
   10.0377   -4.8134   25.7267 H   0  0  0  0  0  0
  1  4  1  0  0  0
  1 10  1  0  0  0
  1  2  2  0  0  0
  2  3  1  0  0  0
  2 33  1  0  0  0
  3 11  1  0  0  0
  3  6  2  0  0  0
  4  5  2  0  0  0
  4 34  1  0  0  0
  5  9  1  0  0  0
  5  6  1  0  0  0
  6  7  1  0  0  0
  7  8  2  0  0  0
  8  9  1  0  0  0
  8 17  1  0  0  0
  9 35  1  0  0  0
 10 12  1  0  0  0
 10 16  1  0  0  0
 11 36  1  0  0  0
 11 37  1  0  0  0
 11 38  1  0  0  0
 12 13  1  0  0  0
 12 39  1  0  0  0
 12 40  1  0  0  0
 13 14  1  0  0  0
 13 41  1  0  0  0
 13 42  1  0  0  0
 14 15  1  0  0  0
 15 16  1  0  0  0
 15 43  1  0  0  0
 15 44  1  0  0  0
 16 45  1  0  0  0
 16 46  1  0  0  0
 17 18  2  0  0  0
 17 22  1  0  0  0
 18 19  1  0  0  0
 18 24  1  0  0  0
 19 20  2  0  0  0
 19 47  1  0  0  0
 20 21  1  0  0  0
 20 48  1  0  0  0
 21 22  1  0  0  0
 21 49  1  0  0  0
 22 23  2  0  0  0
 24 25  1  0  0  0
 24 50  1  0  0  0
 25 26  1  0  0  0
 25 51  1  0  0  0
 25 52  1  0  0  0
 26 27  1  0  0  0
 26 53  1  0  0  0
 26 54  1  0  0  0
 27 28  1  0  0  0
 27 31  1  0  0  0
 28 29  2  0  0  0
 28 55  1  0  0  0
 29 30  1  0  0  0
 29 56  1  0  0  0
 30 31  2  0  0  0
 30 32  1  0  0  0
 32 57  1  0  0  0
 32 58  1  0  0  0
 32 59  1  0  0  0
M  END
> <s_m_entry_id>
5615

> <s_m_entry_name>
dock_pv.10

> <s_m_Source_Path>
/home/csk/Desktop/cluster/DUD-E-result/igf1r

> <s_m_Source_File>
dock_pv.maegz

> <i_m_Source_File_Index>
10

> <chembl_id>
CHEMBL401767

> <chembl_pref_name>
None

> <i_lp_mmshare_version>
53161

> <r_lp_tautomer_probability>
0.999206294981429

> <s_lp_Force_Field>
OPLS_2005

> <r_lp_Energy>
42.124377

> <b_lp_Chiralities_Consistent>
1

> <s_lp_Variant>
CHEMBL1957_lig239-1

> <s_i_glide_gridfile>
glide-grid_2oj9

> <i_i_glide_lignum>
410

> <i_i_glide_rotatable_bonds>
6

> <r_i_docking_score>
-9.2291235988507

> <r_i_glide_ligand_efficiency>
-0.288410112464084

> <r_i_glide_ligand_efficiency_sa>
-0.915645030789714

> <r_i_glide_ligand_efficiency_ln>
-2.0666523501904

> <r_i_glide_gscore>
-9.2291235988507

> <r_i_glide_lipo>
-3.91143163500116

> <r_i_glide_hbond>
-0.590699893192603

> <r_i_glide_metal>
0

> <r_i_glide_rewards>
-1.82999589287708

> <r_i_glide_evdw>
-41.5474090576172

> <r_i_glide_ecoul>
-8.43029594421387

> <r_i_glide_erotb>
0.444918666733081

> <r_i_glide_esite>
0

> <r_i_glide_emodel>
-61.3295763098101

> <r_i_glide_energy>
-49.9777050018311

> <r_i_glide_einternal>
3.15110158920288

> <i_i_glide_confnum>
12

> <i_i_glide_posenum>
60

> <r_i_glide_eff_state_penalty>
0

> <s_user_duplicate_titles>
CHEMBL1957_lig239,424457

> <i_f3d_flags>
0

> <s_m_subgroup_title>
dock_pv

> <s_m_subgroupid>
dock_pv

> <b_m_subgroup_collapsed>
1

$$$$
CHEMBL1957_lig87
                    3D
 Schrodinger Suite 2021-1.
 54 57  0  0  1  0            999 V2000
    5.8793   -9.8915   21.6721 C   0  0  0  0  0  0
    6.1330   -9.2361   22.8864 C   0  0  0  0  0  0
    5.7707   -7.9047   23.1156 C   0  0  0  0  0  0
    5.1931   -9.2281   20.6371 C   0  0  0  0  0  0
    6.1048   -7.2457   24.4420 C   0  0  0  0  0  0
    4.8414   -7.8949   20.8613 C   0  0  0  0  0  0
    5.1286   -7.2264   22.0678 C   0  0  0  0  0  0
    4.7210   -5.9215   22.0057 N   0  0  0  0  0  0
    4.2175   -5.7382   20.8026 C   0  0  0  0  0  0
    3.8506   -4.4032   20.2168 C   0  0  0  0  0  0
    4.2566   -3.2054   20.7669 C   0  0  0  0  0  0
    4.0328   -1.9708   20.0201 C   0  0  0  0  0  0
    3.4829   -2.0528   18.8017 C   0  0  0  0  0  0
    3.2380   -4.4204   18.8587 C   0  0  0  0  0  0
    2.8390   -5.4106   18.2435 O   0  0  0  0  0  0
    5.4876   -2.0434   22.7444 C   0  0  0  0  0  0
    7.0239   -2.0095   22.9517 C   0  0  2  0  0  0
    7.7538   -3.3616   22.9345 C   0  0  0  0  0  0
    7.9550   -4.0293   21.7209 C   0  0  0  0  0  0
    8.6784   -5.2222   21.6731 C   0  0  0  0  0  0
    9.2064   -5.7674   22.8395 C   0  0  0  0  0  0
    9.0122   -5.1171   24.0544 C   0  0  0  0  0  0
    8.2903   -3.9234   24.0991 C   0  0  0  0  0  0
    9.6379   -5.8037   25.5038 Cl  0  0  0  0  0  0
    6.3717  -11.3091   21.4879 C   0  0  0  0  0  0
    6.4619  -12.0806   22.4460 O   0  0  0  0  0  0
    6.7436  -11.6390   20.2383 N   0  0  0  0  0  0
    7.2899  -12.9256   19.8348 C   0  0  0  0  0  0
    4.2314   -6.9297   20.1000 N   0  0  0  0  0  0
    3.0951   -3.2230   18.2387 N   0  0  0  0  0  0
    4.9476   -3.1537   21.9568 N   0  0  0  0  0  0
    7.2377   -1.2553   24.1368 O   0  0  0  0  0  0
    6.6436   -9.7731   23.6739 H   0  0  0  0  0  0
    4.9595   -9.7135   19.6994 H   0  0  0  0  0  0
    5.1961   -6.9157   24.9410 H   0  0  0  0  0  0
    6.6926   -6.3483   24.2672 H   0  0  0  0  0  0
    6.6646   -7.8973   25.1157 H   0  0  0  0  0  0
    4.3392   -1.0119   20.3995 H   0  0  0  0  0  0
    3.2946   -1.2045   18.1575 H   0  0  0  0  0  0
    5.2328   -1.0842   22.3050 H   0  0  0  0  0  0
    4.9859   -2.0543   23.7121 H   0  0  0  0  0  0
    7.4442   -1.4301   22.1309 H   0  0  0  0  0  0
    7.5565   -3.6152   20.8065 H   0  0  0  0  0  0
    8.8379   -5.7249   20.7307 H   0  0  0  0  0  0
    9.7686   -6.6896   22.8010 H   0  0  0  0  0  0
    8.1633   -3.4223   25.0390 H   0  0  0  0  0  0
    6.6639  -10.9384   19.5159 H   0  0  0  0  0  0
    8.1884  -12.7723   19.2357 H   0  0  0  0  0  0
    7.5570  -13.5480   20.6875 H   0  0  0  0  0  0
    6.5600  -13.4595   19.2269 H   0  0  0  0  0  0
    3.8992   -6.9929   19.1455 H   0  0  0  0  0  0
    2.6559   -3.2623   17.3258 H   0  0  0  0  0  0
    5.1446   -4.0626   22.3641 H   0  0  0  0  0  0
    8.1784   -1.0545   24.2269 H   0  0  0  0  0  0
  1 25  1  0  0  0
  1  2  2  0  0  0
  1  4  1  0  0  0
  2  3  1  0  0  0
  2 33  1  0  0  0
  3  7  2  0  0  0
  3  5  1  0  0  0
  4  6  2  0  0  0
  4 34  1  0  0  0
  5 35  1  0  0  0
  5 36  1  0  0  0
  5 37  1  0  0  0
  6  7  1  0  0  0
  6 29  1  0  0  0
  7  8  1  0  0  0
  8  9  2  0  0  0
  9 10  1  0  0  0
  9 29  1  0  0  0
 10 11  2  0  0  0
 10 14  1  0  0  0
 11 12  1  0  0  0
 11 31  1  0  0  0
 12 13  2  0  0  0
 12 38  1  0  0  0
 13 30  1  0  0  0
 13 39  1  0  0  0
 14 15  2  0  0  0
 14 30  1  0  0  0
 16 17  1  0  0  0
 16 31  1  0  0  0
 16 40  1  0  0  0
 16 41  1  0  0  0
 17 18  1  0  0  0
 17 32  1  0  0  0
 17 42  1  0  0  0
 18 19  2  0  0  0
 18 23  1  0  0  0
 19 20  1  0  0  0
 19 43  1  0  0  0
 20 21  2  0  0  0
 20 44  1  0  0  0
 21 22  1  0  0  0
 21 45  1  0  0  0
 22 23  2  0  0  0
 22 24  1  0  0  0
 23 46  1  0  0  0
 25 26  2  0  0  0
 25 27  1  0  0  0
 27 28  1  0  0  0
 27 47  1  0  0  0
 28 48  1  0  0  0
 28 49  1  0  0  0
 28 50  1  0  0  0
 29 51  1  0  0  0
 30 52  1  0  0  0
 31 53  1  0  0  0
 32 54  1  0  0  0
M  END
> <s_m_entry_id>
5616

> <s_m_entry_name>
dock_pv.11

> <s_m_Source_Path>
/home/csk/Desktop/cluster/DUD-E-result/igf1r

> <s_m_Source_File>
dock_pv.maegz

> <i_m_Source_File_Index>
11

> <chembl_id>
CHEMBL231409

> <chembl_pref_name>
None

> <i_lp_mmshare_version>
53161

> <r_lp_tautomer_probability>
0.999206294981429

> <s_lp_Force_Field>
OPLS_2005

> <r_lp_Energy>
36.550657

> <b_lp_Chiralities_Consistent>
1

> <s_lp_Variant>
CHEMBL1957_lig87-1

> <s_i_glide_gridfile>
glide-grid_2oj9

> <i_i_glide_lignum>
249

> <i_i_glide_rotatable_bonds>
8

> <r_i_docking_score>
-9.22776046009727

> <r_i_glide_ligand_efficiency>
-0.28836751437804

> <r_i_glide_ligand_efficiency_sa>
-0.915509790296672

> <r_i_glide_ligand_efficiency_ln>
-2.06634710626575

> <r_i_glide_gscore>
-9.22776046009727

> <r_i_glide_lipo>
-3.96023927509896

> <r_i_glide_hbond>
-0.884201925893539

> <r_i_glide_metal>
0

> <r_i_glide_rewards>
-1.52988765065174

> <r_i_glide_evdw>
-48.0191116333008

> <r_i_glide_ecoul>
-5.30859375

> <r_i_glide_erotb>
0.343813035712009

> <r_i_glide_esite>
0

> <r_i_glide_emodel>
-73.1613284405739

> <r_i_glide_energy>
-53.3277053833008

> <r_i_glide_einternal>
12.3917989730835

> <i_i_glide_confnum>
11

> <i_i_glide_posenum>
397

> <r_i_glide_eff_state_penalty>
0

> <s_user_duplicate_titles>
CHEMBL1957_lig87,383739

> <i_f3d_flags>
0

> <s_m_subgroup_title>
dock_pv

> <s_m_subgroupid>
dock_pv

> <b_m_subgroup_collapsed>
1

$$$$
CHEMBL1957_lig626
                    3D
 Schrodinger Suite 2021-1.
 60 64  0  0  1  0            999 V2000
    5.9187   -9.5925   21.8526 C   0  0  0  0  0  0
    6.1134   -8.9330   23.0799 C   0  0  0  0  0  0
    5.7205   -7.6060   23.2962 C   0  0  0  0  0  0
    5.2382   -8.9481   20.8085 C   0  0  0  0  0  0
    4.8913   -7.6162   21.0146 C   0  0  0  0  0  0
    5.1655   -6.9242   22.2085 C   0  0  0  0  0  0
    4.8376   -5.6008   22.0881 N   0  0  0  0  0  0
    4.3028   -5.4652   20.8885 C   0  0  0  0  0  0
    4.2763   -6.6788   20.2347 N   0  0  0  0  0  0
    5.9041   -6.9576   24.6480 C   0  0  0  0  0  0
    6.4300  -10.8657   21.6234 N   0  0  0  0  0  0
    5.6045  -11.9016   20.9793 C   0  0  0  0  0  0
    6.4735  -12.9520   20.2633 C   0  0  0  0  0  0
    7.3619  -13.5547   21.2005 O   0  0  0  0  0  0
    8.2333  -12.5999   21.7935 C   0  0  0  0  0  0
    7.4177  -11.5038   22.5153 C   0  0  0  0  0  0
    3.9253   -4.1623   20.2381 C   0  0  0  0  0  0
    4.3633   -2.9474   20.7104 C   0  0  0  0  0  0
    4.1243   -1.7523   19.9066 C   0  0  0  0  0  0
    3.5236   -1.8950   18.7120 C   0  0  0  0  0  0
    3.0854   -3.0880   18.2372 N   0  0  0  0  0  0
    3.2386   -4.2512   18.9170 C   0  0  0  0  0  0
    2.8380   -5.2779   18.3618 O   0  0  0  0  0  0
    5.1747   -2.8505   21.8222 N   0  0  0  0  0  0
    6.3080   -1.9494   21.9811 C   0  0  0  0  0  0
    7.2921   -2.3624   23.1079 C   0  0  0  0  0  0
    7.9249   -3.6684   22.9047 N   0  0  0  0  0  0
    8.3290   -4.0564   21.6868 N   0  0  0  0  0  0
    8.8372   -5.2555   21.8634 C   0  0  0  0  0  0
    8.8204   -5.6676   23.2048 C   0  0  0  0  0  0
    8.2736   -4.5787   23.8698 C   0  0  0  0  0  0
    9.1639   -6.9673   23.7144 C   0  0  0  0  0  0
    9.2378   -7.9534   22.9865 O   0  0  0  0  0  0
    9.3247   -7.0496   25.0375 N   0  0  0  0  0  0
    6.6025   -9.4537   23.8884 H   0  0  0  0  0  0
    5.0606   -9.4243   19.8551 H   0  0  0  0  0  0
    3.9294   -6.7677   19.2856 H   0  0  0  0  0  0
    6.4400   -7.5682   25.3783 H   0  0  0  0  0  0
    6.4091   -6.0061   24.5619 H   0  0  0  0  0  0
    4.9221   -6.7110   25.0362 H   0  0  0  0  0  0
    4.9604  -12.3653   21.7255 H   0  0  0  0  0  0
    4.9389  -11.4691   20.2342 H   0  0  0  0  0  0
    7.0306  -12.5065   19.4357 H   0  0  0  0  0  0
    5.8308  -13.7170   19.8300 H   0  0  0  0  0  0
    8.8901  -12.1610   21.0380 H   0  0  0  0  0  0
    8.8783  -13.1144   22.5074 H   0  0  0  0  0  0
    8.1262  -10.7491   22.8637 H   0  0  0  0  0  0
    6.9138  -11.8996   23.3982 H   0  0  0  0  0  0
    4.4559   -0.7802   20.2371 H   0  0  0  0  0  0
    3.3262   -1.0842   18.0246 H   0  0  0  0  0  0
    2.6223   -3.1810   17.3409 H   0  0  0  0  0  0
    5.3403   -3.7549   22.2542 H   0  0  0  0  0  0
    5.9290   -0.9477   22.1932 H   0  0  0  0  0  0
    6.8379   -1.8648   21.0337 H   0  0  0  0  0  0
    6.7039   -2.4913   24.0198 H   0  0  0  0  0  0
    8.0528   -1.6158   23.3196 H   0  0  0  0  0  0
    9.2191   -5.8379   21.0381 H   0  0  0  0  0  0
    8.0351   -4.4164   24.9095 H   0  0  0  0  0  0
    9.5498   -7.9429   25.4440 H   0  0  0  0  0  0
    9.1781   -6.2454   25.6266 H   0  0  0  0  0  0
  1  4  1  0  0  0
  1 11  1  0  0  0
  1  2  2  0  0  0
  2  3  1  0  0  0
  2 35  1  0  0  0
  3 10  1  0  0  0
  3  6  2  0  0  0
  4  5  2  0  0  0
  4 36  1  0  0  0
  5  9  1  0  0  0
  5  6  1  0  0  0
  6  7  1  0  0  0
  7  8  2  0  0  0
  8  9  1  0  0  0
  8 17  1  0  0  0
  9 37  1  0  0  0
 10 38  1  0  0  0
 10 39  1  0  0  0
 10 40  1  0  0  0
 11 12  1  0  0  0
 11 16  1  0  0  0
 12 13  1  0  0  0
 12 41  1  0  0  0
 12 42  1  0  0  0
 13 14  1  0  0  0
 13 43  1  0  0  0
 13 44  1  0  0  0
 14 15  1  0  0  0
 15 16  1  0  0  0
 15 45  1  0  0  0
 15 46  1  0  0  0
 16 47  1  0  0  0
 16 48  1  0  0  0
 17 18  2  0  0  0
 17 22  1  0  0  0
 18 19  1  0  0  0
 18 24  1  0  0  0
 19 20  2  0  0  0
 19 49  1  0  0  0
 20 21  1  0  0  0
 20 50  1  0  0  0
 21 22  1  0  0  0
 21 51  1  0  0  0
 22 23  2  0  0  0
 24 25  1  0  0  0
 24 52  1  0  0  0
 25 26  1  0  0  0
 25 53  1  0  0  0
 25 54  1  0  0  0
 26 27  1  0  0  0
 26 55  1  0  0  0
 26 56  1  0  0  0
 27 28  1  0  0  0
 27 31  1  0  0  0
 28 29  2  0  0  0
 29 30  1  0  0  0
 29 57  1  0  0  0
 30 31  2  0  0  0
 30 32  1  0  0  0
 31 58  1  0  0  0
 32 33  2  0  0  0
 32 34  1  0  0  0
 34 59  1  0  0  0
 34 60  1  0  0  0
M  END
> <s_m_entry_id>
5617

> <s_m_entry_name>
dock_pv.12

> <s_m_Source_Path>
/home/csk/Desktop/cluster/DUD-E-result/igf1r

> <s_m_Source_File>
dock_pv.maegz

> <i_m_Source_File_Index>
12

> <chembl_id>
CHEMBL1091483

> <chembl_pref_name>
None

> <i_lp_mmshare_version>
53161

> <r_lp_tautomer_probability>
0.999206294981429

> <s_lp_Force_Field>
OPLS_2005

> <r_lp_Energy>
45.209352

> <b_lp_Chiralities_Consistent>
1

> <s_lp_Variant>
CHEMBL1957_lig626-1

> <s_i_glide_gridfile>
glide-grid_2oj9

> <i_i_glide_lignum>
839

> <i_i_glide_rotatable_bonds>
7

> <r_i_docking_score>
-9.21623054450329

> <r_i_glide_ligand_efficiency>
-0.271065604250097

> <r_i_glide_ligand_efficiency_sa>
-0.878147329416804

> <r_i_glide_ligand_efficiency_ln>
-2.03612383379135

> <r_i_glide_gscore>
-9.21623054450329

> <r_i_glide_lipo>
-3.8240769278839

> <r_i_glide_hbond>
-0.540701899755327

> <r_i_glide_metal>
0

> <r_i_glide_rewards>
-1.42390081103315

> <r_i_glide_evdw>
-49.3600120544434

> <r_i_glide_ecoul>
-8.87457466125488

> <r_i_glide_erotb>
0.395524768290665

> <r_i_glide_esite>
-0.0238888722111857

> <r_i_glide_emodel>
-83.3946782059147

> <r_i_glide_energy>
-58.2345867156982

> <r_i_glide_einternal>
4.47046089172363

> <i_i_glide_confnum>
37

> <i_i_glide_posenum>
346

> <r_i_glide_eff_state_penalty>
0

> <s_user_duplicate_titles>
CHEMBL1957_lig626

> <i_f3d_flags>
0

> <s_m_subgroup_title>
dock_pv

> <s_m_subgroupid>
dock_pv

> <b_m_subgroup_collapsed>
1

$$$$
CHEMBL1957_lig248
                    3D
 Schrodinger Suite 2021-1.
 59 63  0  0  1  0            999 V2000
    5.9810   -9.6352   21.8276 C   0  0  0  0  0  0
    6.2555   -8.9552   23.0291 C   0  0  0  0  0  0
    5.8686   -7.6275   23.2551 C   0  0  0  0  0  0
    5.2378   -9.0025   20.8214 C   0  0  0  0  0  0
    4.8924   -7.6738   21.0270 C   0  0  0  0  0  0
    5.2158   -6.9678   22.2017 C   0  0  0  0  0  0
    4.8379   -5.6560   22.0925 N   0  0  0  0  0  0
    4.2969   -5.5289   20.8969 C   0  0  0  0  0  0
    4.2589   -6.7476   20.2506 N   0  0  0  0  0  0
    6.1850   -6.9564   24.5800 C   0  0  0  0  0  0
    6.4917  -10.9032   21.5653 N   0  0  0  0  0  0
    5.6644  -11.9498   20.9354 C   0  0  0  0  0  0
    6.5313  -12.9338   20.1311 C   0  0  0  0  0  0
    7.4800  -13.5357   21.0010 O   0  0  0  0  0  0
    8.3440  -12.5797   21.6015 C   0  0  0  0  0  0
    7.5294  -11.5380   22.3985 C   0  0  0  0  0  0
    3.9185   -4.2309   20.2381 C   0  0  0  0  0  0
    4.3515   -3.0130   20.7101 C   0  0  0  0  0  0
    4.1098   -1.8190   19.9042 C   0  0  0  0  0  0
    3.5115   -1.9634   18.7136 C   0  0  0  0  0  0
    3.0816   -3.1575   18.2370 N   0  0  0  0  0  0
    3.2379   -4.3201   18.9161 C   0  0  0  0  0  0
    2.8381   -5.3464   18.3649 O   0  0  0  0  0  0
    5.1424   -2.9074   21.8307 N   0  0  0  0  0  0
    6.2220   -1.9583   22.0582 C   0  0  0  0  0  0
    7.1213   -2.3008   23.2695 C   0  0  0  0  0  0
    7.9026   -3.5401   23.1556 N   0  0  0  0  0  0
    7.9464   -4.2521   22.0170 N   0  0  0  0  0  0
    8.7452   -5.2592   22.2874 C   0  0  0  0  0  0
    9.2953   -5.2147   23.5775 C   0  0  0  0  0  0
    8.7096   -4.0859   24.1205 C   0  0  0  0  0  0
   10.2007   -6.2121   24.2533 C   0  0  0  0  0  0
    6.7942   -9.4653   23.8135 H   0  0  0  0  0  0
    5.0242   -9.4811   19.8776 H   0  0  0  0  0  0
    3.8974   -6.8431   19.3098 H   0  0  0  0  0  0
    6.6855   -7.6277   25.2799 H   0  0  0  0  0  0
    6.8164   -6.0841   24.4285 H   0  0  0  0  0  0
    5.2641   -6.5974   25.0367 H   0  0  0  0  0  0
    5.0974  -12.4734   21.7064 H   0  0  0  0  0  0
    4.9275  -11.5337   20.2492 H   0  0  0  0  0  0
    7.0259  -12.4167   19.3092 H   0  0  0  0  0  0
    5.9035  -13.7024   19.6835 H   0  0  0  0  0  0
    8.9520  -12.0862   20.8416 H   0  0  0  0  0  0
    9.0372  -13.0972   22.2631 H   0  0  0  0  0  0
    8.2417  -10.7834   22.7389 H   0  0  0  0  0  0
    7.0763  -11.9743   23.2905 H   0  0  0  0  0  0
    4.4379   -0.8485   20.2384 H   0  0  0  0  0  0
    3.3109   -1.1482   18.0299 H   0  0  0  0  0  0
    2.6230   -3.2539   17.3374 H   0  0  0  0  0  0
    5.3485   -3.8131   22.2450 H   0  0  0  0  0  0
    5.7872   -0.9685   22.2002 H   0  0  0  0  0  0
    6.8333   -1.8743   21.1608 H   0  0  0  0  0  0
    6.4564   -2.4825   24.1140 H   0  0  0  0  0  0
    7.7676   -1.4714   23.5558 H   0  0  0  0  0  0
    8.9418   -6.0210   21.5489 H   0  0  0  0  0  0
    8.8156   -3.6230   25.0886 H   0  0  0  0  0  0
   11.2537   -5.9736   24.0828 H   0  0  0  0  0  0
   10.0292   -7.2213   23.8695 H   0  0  0  0  0  0
   10.0295   -6.2623   25.3317 H   0  0  0  0  0  0
  1  4  1  0  0  0
  1 11  1  0  0  0
  1  2  2  0  0  0
  2  3  1  0  0  0
  2 33  1  0  0  0
  3 10  1  0  0  0
  3  6  2  0  0  0
  4  5  2  0  0  0
  4 34  1  0  0  0
  5  9  1  0  0  0
  5  6  1  0  0  0
  6  7  1  0  0  0
  7  8  2  0  0  0
  8  9  1  0  0  0
  8 17  1  0  0  0
  9 35  1  0  0  0
 10 36  1  0  0  0
 10 37  1  0  0  0
 10 38  1  0  0  0
 11 12  1  0  0  0
 11 16  1  0  0  0
 12 13  1  0  0  0
 12 39  1  0  0  0
 12 40  1  0  0  0
 13 14  1  0  0  0
 13 41  1  0  0  0
 13 42  1  0  0  0
 14 15  1  0  0  0
 15 16  1  0  0  0
 15 43  1  0  0  0
 15 44  1  0  0  0
 16 45  1  0  0  0
 16 46  1  0  0  0
 17 18  2  0  0  0
 17 22  1  0  0  0
 18 19  1  0  0  0
 18 24  1  0  0  0
 19 20  2  0  0  0
 19 47  1  0  0  0
 20 21  1  0  0  0
 20 48  1  0  0  0
 21 22  1  0  0  0
 21 49  1  0  0  0
 22 23  2  0  0  0
 24 25  1  0  0  0
 24 50  1  0  0  0
 25 26  1  0  0  0
 25 51  1  0  0  0
 25 52  1  0  0  0
 26 27  1  0  0  0
 26 53  1  0  0  0
 26 54  1  0  0  0
 27 28  1  0  0  0
 27 31  1  0  0  0
 28 29  2  0  0  0
 29 30  1  0  0  0
 29 55  1  0  0  0
 30 31  2  0  0  0
 30 32  1  0  0  0
 31 56  1  0  0  0
 32 57  1  0  0  0
 32 58  1  0  0  0
 32 59  1  0  0  0
M  END
> <s_m_entry_id>
5618

> <s_m_entry_name>
dock_pv.13

> <s_m_Source_Path>
/home/csk/Desktop/cluster/DUD-E-result/igf1r

> <s_m_Source_File>
dock_pv.maegz

> <i_m_Source_File_Index>
13

> <chembl_id>
CHEMBL256703

> <chembl_pref_name>
None

> <i_lp_mmshare_version>
53161

> <r_lp_tautomer_probability>
0.999206294981429

> <s_lp_Force_Field>
OPLS_2005

> <r_lp_Energy>
42.411645

> <b_lp_Chiralities_Consistent>
1

> <s_lp_Variant>
CHEMBL1957_lig248-1

> <s_i_glide_gridfile>
glide-grid_2oj9

> <i_i_glide_lignum>
419

> <i_i_glide_rotatable_bonds>
6

> <r_i_docking_score>
-9.21129107738466

> <r_i_glide_ligand_efficiency>
-0.287852846168271

> <r_i_glide_ligand_efficiency_sa>
-0.913875820583355

> <r_i_glide_ligand_efficiency_ln>
-2.06265916253798

> <r_i_glide_gscore>
-9.21129107738466

> <r_i_glide_lipo>
-3.91500668874894

> <r_i_glide_hbond>
-0.564601248164289

> <r_i_glide_metal>
0

> <r_i_glide_rewards>
-1.65387813243034

> <r_i_glide_evdw>
-48.4634208679199

> <r_i_glide_ecoul>
-7.33035087585449

> <r_i_glide_erotb>
0.444918666733081

> <r_i_glide_esite>
0

> <r_i_glide_emodel>
-71.1363943147087

> <r_i_glide_energy>
-55.7937717437744

> <r_i_glide_einternal>
3.83605980873108

> <i_i_glide_confnum>
33

> <i_i_glide_posenum>
168

> <r_i_glide_eff_state_penalty>
0

> <s_user_duplicate_titles>
CHEMBL1957_lig248,424448

> <i_f3d_flags>
0

> <s_m_subgroup_title>
dock_pv

> <s_m_subgroupid>
dock_pv

> <b_m_subgroup_collapsed>
1

$$$$
CHEMBL1957_lig89
                    3D
 Schrodinger Suite 2021-1.
 47 50  0  0  1  0            999 V2000
    5.7777  -10.0041   21.5335 C   0  0  0  0  0  0
    6.0966   -9.3944   22.7488 C   0  0  0  0  0  0
    5.7845   -8.0547   23.0060 C   0  0  0  0  0  0
    5.1383   -9.3103   20.5043 C   0  0  0  0  0  0
    6.1427   -7.4318   24.3422 C   0  0  0  0  0  0
    4.8381   -7.9701   20.7571 C   0  0  0  0  0  0
    5.1425   -7.3385   21.9825 C   0  0  0  0  0  0
    4.7344   -6.0323   21.9678 N   0  0  0  0  0  0
    4.2332   -5.8073   20.7715 C   0  0  0  0  0  0
    3.8607   -4.4501   20.2380 C   0  0  0  0  0  0
    4.2617   -3.2732   20.8353 C   0  0  0  0  0  0
    4.0496   -2.0143   20.1309 C   0  0  0  0  0  0
    3.5041   -2.0532   18.9056 C   0  0  0  0  0  0
    3.2380   -4.4220   18.8854 C   0  0  0  0  0  0
    2.8380   -5.3942   18.2426 O   0  0  0  0  0  0
    5.4423   -2.2044   22.8999 C   0  0  0  0  0  0
    6.9768   -2.0257   22.9415 C   0  0  2  0  0  0
    7.7699   -3.3381   22.9030 C   0  0  0  0  0  0
    8.0031   -3.9548   21.6681 C   0  0  0  0  0  0
    8.7322   -5.1402   21.5907 C   0  0  0  0  0  0
    9.2378   -5.7230   22.7462 C   0  0  0  0  0  0
    9.0164   -5.1212   23.9803 C   0  0  0  0  0  0
    8.2805   -3.9386   24.0642 C   0  0  0  0  0  0
    9.6380   -5.8640   25.4001 Cl  0  0  0  0  0  0
    4.2465   -6.9719   20.0247 N   0  0  0  0  0  0
    3.1102   -3.2046   18.3022 N   0  0  0  0  0  0
    4.9283   -3.2704   22.0383 N   0  0  0  0  0  0
    7.2380   -1.2540   24.1062 O   0  0  0  0  0  0
    6.0302  -11.0450   21.3888 H   0  0  0  0  0  0
    6.5848   -9.9858   23.5104 H   0  0  0  0  0  0
    4.8937   -9.7895   19.5668 H   0  0  0  0  0  0
    6.6600   -8.1181   25.0126 H   0  0  0  0  0  0
    6.7793   -6.5652   24.1847 H   0  0  0  0  0  0
    5.2422   -7.0673   24.8322 H   0  0  0  0  0  0
    4.3748   -1.0785   20.5528 H   0  0  0  0  0  0
    3.3309   -1.1835   18.2852 H   0  0  0  0  0  0
    5.1442   -2.4537   23.9130 H   0  0  0  0  0  0
    4.9573   -1.2545   22.6840 H   0  0  0  0  0  0
    7.2620   -1.4307   22.0738 H   0  0  0  0  0  0
    7.6130   -3.5154   20.7612 H   0  0  0  0  0  0
    8.9100   -5.6130   20.6381 H   0  0  0  0  0  0
    9.8077   -6.6388   22.6837 H   0  0  0  0  0  0
    8.1189   -3.4926   25.0337 H   0  0  0  0  0  0
    3.9091   -7.0038   19.0702 H   0  0  0  0  0  0
    2.6817   -3.2216   17.3838 H   0  0  0  0  0  0
    5.1279   -4.1991   22.3988 H   0  0  0  0  0  0
    8.1820   -1.0615   24.1692 H   0  0  0  0  0  0
  1  4  1  0  0  0
  1  2  2  0  0  0
  1 29  1  0  0  0
  2  3  1  0  0  0
  2 30  1  0  0  0
  3  5  1  0  0  0
  3  7  2  0  0  0
  4  6  2  0  0  0
  4 31  1  0  0  0
  5 32  1  0  0  0
  5 33  1  0  0  0
  5 34  1  0  0  0
  6  7  1  0  0  0
  6 25  1  0  0  0
  7  8  1  0  0  0
  8  9  2  0  0  0
  9 10  1  0  0  0
  9 25  1  0  0  0
 10 11  2  0  0  0
 10 14  1  0  0  0
 11 12  1  0  0  0
 11 27  1  0  0  0
 12 13  2  0  0  0
 12 35  1  0  0  0
 13 26  1  0  0  0
 13 36  1  0  0  0
 14 15  2  0  0  0
 14 26  1  0  0  0
 16 17  1  0  0  0
 16 27  1  0  0  0
 16 37  1  0  0  0
 16 38  1  0  0  0
 17 18  1  0  0  0
 17 28  1  0  0  0
 17 39  1  0  0  0
 18 19  2  0  0  0
 18 23  1  0  0  0
 19 20  1  0  0  0
 19 40  1  0  0  0
 20 21  2  0  0  0
 20 41  1  0  0  0
 21 22  1  0  0  0
 21 42  1  0  0  0
 22 23  2  0  0  0
 22 24  1  0  0  0
 23 43  1  0  0  0
 25 44  1  0  0  0
 26 45  1  0  0  0
 27 46  1  0  0  0
 28 47  1  0  0  0
M  END
> <s_m_entry_id>
5619

> <s_m_entry_name>
dock_pv.14

> <s_m_Source_Path>
/home/csk/Desktop/cluster/DUD-E-result/igf1r

> <s_m_Source_File>
dock_pv.maegz

> <i_m_Source_File_Index>
14

> <chembl_id>
CHEMBL230309

> <chembl_pref_name>
None

> <i_lp_mmshare_version>
53161

> <r_lp_tautomer_probability>
0.999206294981429

> <s_lp_Force_Field>
OPLS_2005

> <r_lp_Energy>
36.390479

> <b_lp_Chiralities_Consistent>
1

> <s_lp_Variant>
CHEMBL1957_lig89-1

> <s_i_glide_gridfile>
glide-grid_2oj9

> <i_i_glide_lignum>
253

> <i_i_glide_rotatable_bonds>
6

> <r_i_docking_score>
-9.18569780228796

> <r_i_glide_ligand_efficiency>
-0.328060635795999

> <r_i_glide_ligand_efficiency_sa>
-0.99618530765815

> <r_i_glide_ligand_efficiency_ln>
-2.1203287565749

> <r_i_glide_gscore>
-9.18569780228796

> <r_i_glide_lipo>
-3.7324009720944

> <r_i_glide_hbond>
-0.891003685051033

> <r_i_glide_metal>
0

> <r_i_glide_rewards>
-1.77952036628573

> <r_i_glide_evdw>
-40.6742324829102

> <r_i_glide_ecoul>
-7.33429956436157

> <r_i_glide_erotb>
0.351083779942942

> <r_i_glide_esite>
0

> <r_i_glide_emodel>
-67.7772685262265

> <r_i_glide_energy>
-48.0085320472717

> <r_i_glide_einternal>
8.5637035369873

> <i_i_glide_confnum>
17

> <i_i_glide_posenum>
15

> <r_i_glide_eff_state_penalty>
0

> <s_user_duplicate_titles>
CHEMBL1957_lig89,383737

> <i_f3d_flags>
0

> <s_m_subgroup_title>
dock_pv

> <s_m_subgroupid>
dock_pv

> <b_m_subgroup_collapsed>
1

$$$$
CHEMBL1957_lig2287
                    3D
 Schrodinger Suite 2021-1.
 49 53  0  0  1  0            999 V2000
    6.6013   -8.7029   23.8077 C   0  0  0  0  0  0
    5.9052   -8.5992   22.5399 N   0  0  0  0  0  0
    5.2380   -7.5191   22.0254 C   0  0  0  0  0  0
    4.7796   -7.8972   20.7742 C   0  0  0  0  0  0
    4.0380   -7.2240   19.8379 N   0  0  0  0  0  0
    3.6380   -5.8839   19.7273 C   0  0  0  0  0  0
    3.0867   -5.5933   18.5266 N   0  0  0  0  0  0
    2.9948   -4.2814   18.1961 C   0  0  0  0  0  0
    3.4608   -3.2491   19.0072 C   0  0  0  0  0  0
    3.3801   -1.7695   18.6240 C   0  0  0  0  0  0
    4.6426   -0.9541   19.0168 C   0  0  0  0  0  0
    5.0926   -1.3500   20.4114 C   0  0  0  0  0  0
    5.7869   -0.5897   21.2293 N   0  0  0  0  0  0
    6.0043   -1.3648   22.2986 N   0  0  0  0  0  0
    6.7550   -0.8516   23.4383 C   0  0  0  0  0  0
    5.5146   -2.6374   22.1339 C   0  0  0  0  0  0
    5.8238   -3.7529   23.0890 C   0  0  0  0  0  0
    7.1991   -4.3579   22.9692 C   0  0  0  0  0  0
    8.0502   -4.0153   21.9146 C   0  0  0  0  0  0
    9.3609   -4.4540   21.9215 C   0  0  0  0  0  0
    9.8159   -5.2554   22.9631 C   0  0  0  0  0  0
    8.9504   -5.6910   23.9564 C   0  0  0  0  0  0
    9.5205   -6.7907   25.1534 Cl  0  0  0  0  0  0
    7.6391   -5.2279   23.9724 C   0  0  0  0  0  0
    4.8061   -2.6140   20.9527 C   0  0  0  0  0  0
    4.0284   -3.6533   20.2242 C   0  0  0  0  0  0
    4.0381   -4.9555   20.6380 N   0  0  0  0  0  0
    5.2379   -9.2184   20.6588 C   0  0  0  0  0  0
    5.9268   -9.6340   21.6960 N   0  0  0  0  0  0
    6.2297   -7.9467   24.4998 H   0  0  0  0  0  0
    6.4393   -9.6925   24.2378 H   0  0  0  0  0  0
    7.6679   -8.5522   23.6416 H   0  0  0  0  0  0
    5.1416   -6.6095   22.5893 H   0  0  0  0  0  0
    3.8224   -7.7036   18.9732 H   0  0  0  0  0  0
    2.5617   -4.0610   17.2360 H   0  0  0  0  0  0
    2.5172   -1.3561   19.1391 H   0  0  0  0  0  0
    3.1831   -1.6575   17.5568 H   0  0  0  0  0  0
    4.4386    0.1145   18.9822 H   0  0  0  0  0  0
    5.4390   -1.1287   18.2943 H   0  0  0  0  0  0
    6.2471   -1.1266   24.3618 H   0  0  0  0  0  0
    7.7532   -1.2885   23.4400 H   0  0  0  0  0  0
    6.8229    0.2361   23.4082 H   0  0  0  0  0  0
    5.0920   -4.5519   23.0377 H   0  0  0  0  0  0
    5.7946   -3.3585   24.1021 H   0  0  0  0  0  0
    7.7360   -3.3565   21.1190 H   0  0  0  0  0  0
   10.0375   -4.0716   21.1711 H   0  0  0  0  0  0
   10.8384   -5.5743   23.0059 H   0  0  0  0  0  0
    6.9813   -5.5200   24.7789 H   0  0  0  0  0  0
    5.0715   -9.8676   19.8110 H   0  0  0  0  0  0
  1  2  1  0  0  0
  1 30  1  0  0  0
  1 31  1  0  0  0
  1 32  1  0  0  0
  2  3  1  0  0  0
  2 29  1  0  0  0
  3  4  2  0  0  0
  3 33  1  0  0  0
  4  5  1  0  0  0
  4 28  1  0  0  0
  5  6  1  0  0  0
  5 34  1  0  0  0
  6  7  2  0  0  0
  6 27  1  0  0  0
  7  8  1  0  0  0
  8  9  2  0  0  0
  8 35  1  0  0  0
  9 10  1  0  0  0
  9 26  1  0  0  0
 10 11  1  0  0  0
 10 36  1  0  0  0
 10 37  1  0  0  0
 11 12  1  0  0  0
 11 38  1  0  0  0
 11 39  1  0  0  0
 12 13  2  0  0  0
 12 25  1  0  0  0
 13 14  1  0  0  0
 14 15  1  0  0  0
 14 16  1  0  0  0
 15 40  1  0  0  0
 15 41  1  0  0  0
 15 42  1  0  0  0
 16 17  1  0  0  0
 16 25  2  0  0  0
 17 18  1  0  0  0
 17 43  1  0  0  0
 17 44  1  0  0  0
 18 19  2  0  0  0
 18 24  1  0  0  0
 19 20  1  0  0  0
 19 45  1  0  0  0
 20 21  2  0  0  0
 20 46  1  0  0  0
 21 22  1  0  0  0
 21 47  1  0  0  0
 22 23  1  0  0  0
 22 24  2  0  0  0
 24 48  1  0  0  0
 25 26  1  0  0  0
 26 27  2  0  0  0
 28 29  2  0  0  0
 28 49  1  0  0  0
M  END
> <s_m_entry_id>
5620

> <s_m_entry_name>
dock_pv.15

> <s_m_Source_Path>
/home/csk/Desktop/cluster/DUD-E-result/igf1r

> <s_m_Source_File>
dock_pv.maegz

> <i_m_Source_File_Index>
15

> <chembl_id>
CHEMBL3656729

> <chembl_pref_name>
None

> <i_lp_mmshare_version>
53161

> <r_lp_tautomer_probability>
0.999999987636

> <s_lp_Force_Field>
OPLS_2005

> <r_lp_Energy>
6.492065

> <b_lp_Chiralities_Consistent>
1

> <s_lp_Variant>
CHEMBL1957_lig2287-1

> <s_i_glide_gridfile>
glide-grid_2oj9

> <i_i_glide_lignum>
3269

> <i_i_glide_rotatable_bonds>
4

> <r_i_docking_score>
-9.16468470549437

> <r_i_glide_ligand_efficiency>
-0.316023610534289

> <r_i_glide_ligand_efficiency_sa>
-0.970924654868689

> <r_i_glide_ligand_efficiency_ln>
-2.09848040120578

> <r_i_glide_gscore>
-9.16468470549437

> <r_i_glide_lipo>
-3.67670399145854

> <r_i_glide_hbond>
-0.449793368374904

> <r_i_glide_metal>
0

> <r_i_glide_rewards>
-2.90184002168282

> <r_i_glide_evdw>
-36.2610130310059

> <r_i_glide_ecoul>
-4.3826265335083

> <r_i_glide_erotb>
0.334097307598434

> <r_i_glide_esite>
0

> <r_i_glide_emodel>
-56.2906029940528

> <r_i_glide_energy>
-40.6436395645142

> <r_i_glide_einternal>
3.45051145553589

> <i_i_glide_confnum>
9

> <i_i_glide_posenum>
168

> <r_i_glide_eff_state_penalty>
0

> <s_user_duplicate_titles>
CHEMBL1957_lig2287

> <i_f3d_flags>
0

> <s_m_subgroup_title>
dock_pv

> <s_m_subgroupid>
dock_pv

> <b_m_subgroup_collapsed>
1

$$$$
CHEMBL1957_lig2279
                    3D
 Schrodinger Suite 2021-1.
 49 53  0  0  1  0            999 V2000
    6.6136  -10.3709   22.1313 C   0  0  0  0  0  0
    5.8971   -9.1171   21.9980 N   0  0  0  0  0  0
    5.6380   -8.1927   22.9720 C   0  0  0  0  0  0
    4.8380   -7.2521   22.3528 C   0  0  0  0  0  0
    4.7160   -7.6587   21.0155 C   0  0  0  0  0  0
    4.0380   -7.0948   19.9653 N   0  0  0  0  0  0
    3.6380   -5.7652   19.7576 C   0  0  0  0  0  0
    3.1833   -5.5158   18.5065 N   0  0  0  0  0  0
    3.1431   -4.2162   18.1130 C   0  0  0  0  0  0
    3.5371   -3.1549   18.9291 C   0  0  0  0  0  0
    3.4695   -1.6795   18.5245 C   0  0  0  0  0  0
    4.7285   -0.8639   18.9385 C   0  0  0  0  0  0
    5.1381   -1.2427   20.3522 C   0  0  0  0  0  0
    5.8139   -0.4801   21.1841 N   0  0  0  0  0  0
    6.0019   -1.2533   22.2624 N   0  0  0  0  0  0
    6.6858   -0.7347   23.4379 C   0  0  0  0  0  0
    5.5102   -2.5226   22.0961 C   0  0  0  0  0  0
    5.7888   -3.6359   23.0680 C   0  0  0  0  0  0
    7.1411   -4.2996   22.9588 C   0  0  0  0  0  0
    8.0381   -3.9532   21.9467 C   0  0  0  0  0  0
    9.3268   -4.4540   21.9699 C   0  0  0  0  0  0
    9.7191   -5.3298   22.9778 C   0  0  0  0  0  0
    8.7956   -5.7796   23.9142 C   0  0  0  0  0  0
    9.2558   -6.9835   25.0568 Cl  0  0  0  0  0  0
    7.5085   -5.2476   23.9204 C   0  0  0  0  0  0
    4.8182   -2.4912   20.9062 C   0  0  0  0  0  0
    4.0380   -3.5246   20.1838 C   0  0  0  0  0  0
    4.0380   -4.8072   20.6380 N   0  0  0  0  0  0
    5.3054   -8.8186   20.8334 N   0  0  0  0  0  0
    7.3088  -10.3114   22.9691 H   0  0  0  0  0  0
    5.8971  -11.1729   22.3125 H   0  0  0  0  0  0
    7.1730  -10.5797   21.2183 H   0  0  0  0  0  0
    6.0036   -8.3084   23.9819 H   0  0  0  0  0  0
    4.3823   -6.3910   22.8083 H   0  0  0  0  0  0
    3.9092   -7.6521   19.1325 H   0  0  0  0  0  0
    2.8374   -4.0403   17.0936 H   0  0  0  0  0  0
    2.6115   -1.2542   19.0380 H   0  0  0  0  0  0
    3.2605   -1.5728   17.4589 H   0  0  0  0  0  0
    4.5312    0.2050   18.8903 H   0  0  0  0  0  0
    5.5434   -1.0473   18.2394 H   0  0  0  0  0  0
    6.0742   -0.9242   24.3199 H   0  0  0  0  0  0
    7.6389   -1.2539   23.5543 H   0  0  0  0  0  0
    6.8380    0.3422   23.3650 H   0  0  0  0  0  0
    5.0492   -4.4261   23.0308 H   0  0  0  0  0  0
    5.7523   -3.2360   24.0790 H   0  0  0  0  0  0
    7.7754   -3.2540   21.1689 H   0  0  0  0  0  0
   10.0380   -4.0744   21.2530 H   0  0  0  0  0  0
   10.7460   -5.6544   23.0379 H   0  0  0  0  0  0
    6.8099   -5.5548   24.6860 H   0  0  0  0  0  0
  1  2  1  0  0  0
  1 30  1  0  0  0
  1 31  1  0  0  0
  1 32  1  0  0  0
  2  3  1  0  0  0
  2 29  1  0  0  0
  3  4  2  0  0  0
  3 33  1  0  0  0
  4  5  1  0  0  0
  4 34  1  0  0  0
  5  6  1  0  0  0
  5 29  2  0  0  0
  6  7  1  0  0  0
  6 35  1  0  0  0
  7  8  2  0  0  0
  7 28  1  0  0  0
  8  9  1  0  0  0
  9 10  2  0  0  0
  9 36  1  0  0  0
 10 11  1  0  0  0
 10 27  1  0  0  0
 11 12  1  0  0  0
 11 37  1  0  0  0
 11 38  1  0  0  0
 12 13  1  0  0  0
 12 39  1  0  0  0
 12 40  1  0  0  0
 13 14  2  0  0  0
 13 26  1  0  0  0
 14 15  1  0  0  0
 15 16  1  0  0  0
 15 17  1  0  0  0
 16 41  1  0  0  0
 16 42  1  0  0  0
 16 43  1  0  0  0
 17 18  1  0  0  0
 17 26  2  0  0  0
 18 19  1  0  0  0
 18 44  1  0  0  0
 18 45  1  0  0  0
 19 20  2  0  0  0
 19 25  1  0  0  0
 20 21  1  0  0  0
 20 46  1  0  0  0
 21 22  2  0  0  0
 21 47  1  0  0  0
 22 23  1  0  0  0
 22 48  1  0  0  0
 23 24  1  0  0  0
 23 25  2  0  0  0
 25 49  1  0  0  0
 26 27  1  0  0  0
 27 28  2  0  0  0
M  END
> <s_m_entry_id>
5621

> <s_m_entry_name>
dock_pv.16

> <s_m_Source_Path>
/home/csk/Desktop/cluster/DUD-E-result/igf1r

> <s_m_Source_File>
dock_pv.maegz

> <i_m_Source_File_Index>
16

> <chembl_id>
CHEMBL3656721

> <chembl_pref_name>
None

> <i_lp_mmshare_version>
53161

> <r_lp_tautomer_probability>
0.999999987636

> <s_lp_Force_Field>
OPLS_2005

> <r_lp_Energy>
6.401851

> <b_lp_Chiralities_Consistent>
1

> <s_lp_Variant>
CHEMBL1957_lig2279-1

> <s_i_glide_gridfile>
glide-grid_2oj9

> <i_i_glide_lignum>
3259

> <i_i_glide_rotatable_bonds>
4

> <r_i_docking_score>
-9.13879150524724

> <r_i_glide_ligand_efficiency>
-0.31513074156025

> <r_i_glide_ligand_efficiency_sa>
-0.968181478499695

> <r_i_glide_ligand_efficiency_ln>
-2.0925515149441

> <r_i_glide_gscore>
-9.13879150524724

> <r_i_glide_lipo>
-3.76079893655415

> <r_i_glide_hbond>
-0.344090177341345

> <r_i_glide_metal>
0

> <r_i_glide_rewards>
-2.89447771532668

> <r_i_glide_evdw>
-37.7192993164062

> <r_i_glide_ecoul>
-3.91704678535461

> <r_i_glide_erotb>
0.334097307598434

> <r_i_glide_esite>
0

> <r_i_glide_emodel>
-57.4251782814448

> <r_i_glide_energy>
-41.6363461017609

> <r_i_glide_einternal>
7.46489953994751

> <i_i_glide_confnum>
13

> <i_i_glide_posenum>
103

> <r_i_glide_eff_state_penalty>
0

> <s_user_duplicate_titles>
CHEMBL1957_lig2279

> <i_f3d_flags>
0

> <s_m_subgroup_title>
dock_pv

> <s_m_subgroupid>
dock_pv

> <b_m_subgroup_collapsed>
1

$$$$
CHEMBL1957_lig3215
                    3D
 Schrodinger Suite 2021-1.
 34 37  0  0  1  0            999 V2000
    7.4444   -4.8540   24.5529 C   0  0  0  0  0  0
    6.6899   -5.4914   23.4955 N   0  0  0  0  0  0
    5.8448   -4.8314   22.6409 C   0  0  0  0  0  0
    5.2220   -5.7031   21.7734 C   0  0  0  0  0  0
    4.3063   -5.4357   20.6795 C   0  0  0  0  0  0
    4.0115   -4.3032   19.9923 C   0  0  0  0  0  0
    3.2380   -4.4301   18.7654 C   0  0  0  0  0  0
    2.8380   -5.4648   18.2380 O   0  0  0  0  0  0
    3.1082   -3.1974   18.2490 N   0  0  0  0  0  0
    3.8188   -2.2701   18.9701 C   0  0  0  0  0  0
    4.0891   -0.9321   18.7059 C   0  0  0  0  0  0
    4.9713   -0.2537   19.5553 C   0  0  0  0  0  0
    5.5278   -0.9486   20.6378 C   0  0  0  0  0  0
    5.2407   -2.2524   20.9066 N   0  0  0  0  0  0
    4.3995   -2.8901   20.0521 C   0  0  0  0  0  0
    5.6892   -7.0087   22.1667 C   0  0  0  0  0  0
    5.4414   -8.3081   21.6903 C   0  0  0  0  0  0
    6.0380   -9.3939   22.3269 C   0  0  0  0  0  0
    6.8798   -9.2115   23.4192 C   0  0  0  0  0  0
    7.1746   -7.9427   23.9173 C   0  0  0  0  0  0
    6.5790   -6.8493   23.2729 C   0  0  0  0  0  0
    6.8189   -4.8540   25.4380 H   0  0  0  0  0  0
    8.3670   -5.4031   24.7446 H   0  0  0  0  0  0
    7.6937   -3.8288   24.2761 H   0  0  0  0  0  0
    5.7672   -3.7617   22.7360 H   0  0  0  0  0  0
    3.8379   -6.3557   20.3525 H   0  0  0  0  0  0
    2.6421   -3.0235   17.3665 H   0  0  0  0  0  0
    3.6686   -0.4540   17.8374 H   0  0  0  0  0  0
    5.2380    0.7770   19.3645 H   0  0  0  0  0  0
    6.2262   -0.4624   21.3031 H   0  0  0  0  0  0
    4.7845   -8.4727   20.8492 H   0  0  0  0  0  0
    5.8376  -10.3966   21.9759 H   0  0  0  0  0  0
    7.3197  -10.0790   23.8902 H   0  0  0  0  0  0
    7.8398   -7.8172   24.7595 H   0  0  0  0  0  0
  1  2  1  0  0  0
  1 22  1  0  0  0
  1 23  1  0  0  0
  1 24  1  0  0  0
  2  3  1  0  0  0
  2 21  1  0  0  0
  3  4  2  0  0  0
  3 25  1  0  0  0
  4  5  1  0  0  0
  4 16  1  0  0  0
  5  6  2  3  0  0
  5 26  1  0  0  0
  6  7  1  0  0  0
  6 15  1  0  0  0
  7  8  2  0  0  0
  7  9  1  0  0  0
  9 10  1  0  0  0
  9 27  1  0  0  0
 10 11  2  0  0  0
 10 15  1  0  0  0
 11 12  1  0  0  0
 11 28  1  0  0  0
 12 13  2  0  0  0
 12 29  1  0  0  0
 13 14  1  0  0  0
 13 30  1  0  0  0
 14 15  2  0  0  0
 16 17  2  0  0  0
 16 21  1  0  0  0
 17 18  1  0  0  0
 17 31  1  0  0  0
 18 19  2  0  0  0
 18 32  1  0  0  0
 19 20  1  0  0  0
 19 33  1  0  0  0
 20 21  2  0  0  0
 20 34  1  0  0  0
M  END
> <s_m_entry_id>
5622

> <s_m_entry_name>
dock_pv.17

> <s_m_Source_Path>
/home/csk/Desktop/cluster/DUD-E-result/igf1r

> <s_m_Source_File>
dock_pv.maegz

> <i_m_Source_File_Index>
17

> <chembl_id>
CHEMBL1516890

> <chembl_pref_name>
GW441756X

> <i_lp_mmshare_version>
53161

> <r_lp_tautomer_probability>
1

> <s_lp_Force_Field>
OPLS_2005

> <r_lp_Energy>
34.69794

> <b_lp_Chiralities_Consistent>
1

> <s_lp_Variant>
CHEMBL1957_lig3215-2

> <s_i_glide_gridfile>
glide-grid_2oj9

> <i_i_glide_lignum>
4479

> <i_i_glide_rotatable_bonds>
1

> <r_i_docking_score>
-9.0135284161386

> <r_i_glide_ligand_efficiency>
-0.429215638863743

> <r_i_glide_ligand_efficiency_sa>
-1.1841734017403

> <r_i_glide_ligand_efficiency_ln>
-2.22857668734115

> <r_i_glide_gscore>
-9.0135284161386

> <r_i_glide_lipo>
-2.78600678896664

> <r_i_glide_hbond>
-0.608

> <r_i_glide_metal>
0

> <r_i_glide_rewards>
-3.29948264985791

> <r_i_glide_evdw>
-31.9800796508789

> <r_i_glide_ecoul>
-5.91346120834351

> <r_i_glide_erotb>
0.165984186481419

> <r_i_glide_esite>
0

> <r_i_glide_emodel>
-56.2918932717145

> <r_i_glide_energy>
-37.8935408592224

> <r_i_glide_einternal>
0.0682000368833542

> <i_i_glide_confnum>
1

> <i_i_glide_posenum>
59

> <r_i_glide_eff_state_penalty>
0

> <s_user_duplicate_titles>
CHEMBL1957_lig3215,CHEMBL1957_lig3215

> <i_f3d_flags>
0

> <s_m_subgroup_title>
dock_pv

> <s_m_subgroupid>
dock_pv

> <b_m_subgroup_collapsed>
1

$$$$
CHEMBL1957_lig2281
                    3D
 Schrodinger Suite 2021-1.
 60 64  0  0  1  0            999 V2000
    9.9658   -9.3729   22.3385 C   0  0  0  0  0  0
    8.5743   -9.6342   22.6991 N   0  0  0  0  0  0
    8.4807  -10.9082   23.4096 C   0  0  0  0  0  0
    8.0488   -8.5138   23.4893 C   0  0  0  0  0  0
    6.5212   -8.5288   23.7364 C   0  0  0  0  0  0
    5.7707   -8.3629   22.4962 N   0  0  0  0  0  0
    5.2121   -7.2134   21.9938 C   0  0  0  0  0  0
    4.6665   -7.5530   20.7662 C   0  0  0  0  0  0
    3.9796   -6.8254   19.8335 N   0  0  0  0  0  0
    3.6380   -5.4699   19.7150 C   0  0  0  0  0  0
    3.2105   -5.1743   18.4657 N   0  0  0  0  0  0
    3.2175   -3.8698   18.1044 C   0  0  0  0  0  0
    3.6503   -2.8442   18.9422 C   0  0  0  0  0  0
    3.6872   -1.3720   18.5156 C   0  0  0  0  0  0
    4.9688   -0.6234   18.9672 C   0  0  0  0  0  0
    5.2810   -0.9953   20.4058 C   0  0  0  0  0  0
    5.9101   -0.2225   21.2618 N   0  0  0  0  0  0
    6.0382   -0.9759   22.3585 N   0  0  0  0  0  0
    6.6104   -0.4076   23.5725 C   0  0  0  0  0  0
    5.5580   -2.2498   22.1851 C   0  0  0  0  0  0
    5.7823   -3.3361   23.2006 C   0  0  0  0  0  0
    7.1195   -4.0307   23.0950 C   0  0  0  0  0  0
    7.6715   -4.2652   21.8376 C   0  0  0  0  0  0
    8.8603   -4.9629   21.7156 C   0  0  0  0  0  0
    9.5277   -5.3926   22.8593 C   0  0  0  0  0  0
    8.9825   -5.1825   24.1200 C   0  0  0  0  0  0
    9.6155   -5.6537   25.2178 F   0  0  0  0  0  0
    7.7598   -4.5284   24.2344 C   0  0  0  0  0  0
    4.9099   -2.2344   20.9598 C   0  0  0  0  0  0
    4.1217   -3.2545   20.2021 C   0  0  0  0  0  0
    4.0438   -4.5507   20.6378 N   0  0  0  0  0  0
    4.9843   -8.9117   20.6382 C   0  0  0  0  0  0
    5.6391   -9.4003   21.6620 N   0  0  0  0  0  0
   10.0361   -8.4523   21.7579 H   0  0  0  0  0  0
   10.6046   -9.2687   23.2177 H   0  0  0  0  0  0
   10.3686  -10.1771   21.7203 H   0  0  0  0  0  0
    7.4428  -11.1761   23.6043 H   0  0  0  0  0  0
    8.9052  -11.7155   22.8104 H   0  0  0  0  0  0
    9.0118  -10.8777   24.3627 H   0  0  0  0  0  0
    8.2757   -7.5898   22.9628 H   0  0  0  0  0  0
    8.5751   -8.4555   24.4444 H   0  0  0  0  0  0
    6.2444   -7.7207   24.4146 H   0  0  0  0  0  0
    6.1987   -9.4526   24.2157 H   0  0  0  0  0  0
    5.2536   -6.2868   22.5407 H   0  0  0  0  0  0
    3.7350   -7.2986   18.9740 H   0  0  0  0  0  0
    2.8797   -3.6582   17.1004 H   0  0  0  0  0  0
    2.8385   -0.8566   18.9448 H   0  0  0  0  0  0
    3.5453   -1.2877   17.4408 H   0  0  0  0  0  0
    4.8387    0.4535   18.8798 H   0  0  0  0  0  0
    5.8081   -0.8552   18.3122 H   0  0  0  0  0  0
    7.5207   -0.9474   23.8375 H   0  0  0  0  0  0
    6.8377    0.6509   23.4387 H   0  0  0  0  0  0
    5.8911   -0.5036   24.3856 H   0  0  0  0  0  0
    5.0776   -4.1452   23.0376 H   0  0  0  0  0  0
    5.6399   -2.9376   24.2057 H   0  0  0  0  0  0
    7.1664   -3.9332   20.9439 H   0  0  0  0  0  0
    9.2381   -5.1715   20.7291 H   0  0  0  0  0  0
   10.4380   -5.9482   22.7762 H   0  0  0  0  0  0
    7.3070   -4.4544   25.2057 H   0  0  0  0  0  0
    4.7328   -9.5390   19.7951 H   0  0  0  0  0  0
  1  2  1  0  0  0
  1 34  1  0  0  0
  1 35  1  0  0  0
  1 36  1  0  0  0
  2  3  1  0  0  0
  2  4  1  0  0  0
  3 37  1  0  0  0
  3 38  1  0  0  0
  3 39  1  0  0  0
  4  5  1  0  0  0
  4 40  1  0  0  0
  4 41  1  0  0  0
  5  6  1  0  0  0
  5 42  1  0  0  0
  5 43  1  0  0  0
  6  7  1  0  0  0
  6 33  1  0  0  0
  7  8  2  0  0  0
  7 44  1  0  0  0
  8  9  1  0  0  0
  8 32  1  0  0  0
  9 10  1  0  0  0
  9 45  1  0  0  0
 10 11  2  0  0  0
 10 31  1  0  0  0
 11 12  1  0  0  0
 12 13  2  0  0  0
 12 46  1  0  0  0
 13 14  1  0  0  0
 13 30  1  0  0  0
 14 15  1  0  0  0
 14 47  1  0  0  0
 14 48  1  0  0  0
 15 16  1  0  0  0
 15 49  1  0  0  0
 15 50  1  0  0  0
 16 17  2  0  0  0
 16 29  1  0  0  0
 17 18  1  0  0  0
 18 19  1  0  0  0
 18 20  1  0  0  0
 19 51  1  0  0  0
 19 52  1  0  0  0
 19 53  1  0  0  0
 20 21  1  0  0  0
 20 29  2  0  0  0
 21 22  1  0  0  0
 21 54  1  0  0  0
 21 55  1  0  0  0
 22 23  2  0  0  0
 22 28  1  0  0  0
 23 24  1  0  0  0
 23 56  1  0  0  0
 24 25  2  0  0  0
 24 57  1  0  0  0
 25 26  1  0  0  0
 25 58  1  0  0  0
 26 27  1  0  0  0
 26 28  2  0  0  0
 28 59  1  0  0  0
 29 30  1  0  0  0
 30 31  2  0  0  0
 32 33  2  0  0  0
 32 60  1  0  0  0
M  END
> <s_m_entry_id>
5623

> <s_m_entry_name>
dock_pv.18

> <s_m_Source_Path>
/home/csk/Desktop/cluster/DUD-E-result/igf1r

> <s_m_Source_File>
dock_pv.maegz

> <i_m_Source_File_Index>
18

> <chembl_id>
CHEMBL3656723

> <chembl_pref_name>
None

> <i_lp_mmshare_version>
53161

> <r_lp_tautomer_probability>
0.999999987636

> <s_lp_Force_Field>
OPLS_2005

> <r_lp_Energy>
17.505361

> <b_lp_Chiralities_Consistent>
1

> <s_lp_Variant>
CHEMBL1957_lig2281-1

> <s_i_glide_gridfile>
glide-grid_2oj9

> <i_i_glide_lignum>
3261

> <i_i_glide_rotatable_bonds>
7

> <r_i_docking_score>
-8.9585481758217

> <r_i_glide_ligand_efficiency>
-0.271471156843082

> <r_i_glide_ligand_efficiency_sa>
-0.870753054163002

> <r_i_glide_ligand_efficiency_ln>
-1.99233472942276

> <r_i_glide_gscore>
-8.9585481758217

> <r_i_glide_lipo>
-3.96217443813925

> <r_i_glide_hbond>
-0.227208124900898

> <r_i_glide_metal>
0

> <r_i_glide_rewards>
-2.66787949449011

> <r_i_glide_evdw>
-38.394832611084

> <r_i_glide_ecoul>
-4.02136564254761

> <r_i_glide_erotb>
0.421660358644896

> <r_i_glide_esite>
0

> <r_i_glide_emodel>
-41.5237751467846

> <r_i_glide_energy>
-42.4161982536316

> <r_i_glide_einternal>
4.90265560150146

> <i_i_glide_confnum>
12

> <i_i_glide_posenum>
1

> <r_i_glide_eff_state_penalty>
0

> <s_user_duplicate_titles>
CHEMBL1957_lig2281

> <i_f3d_flags>
0

> <s_m_subgroup_title>
dock_pv

> <s_m_subgroupid>
dock_pv

> <b_m_subgroup_collapsed>
1

$$$$
CHEMBL1957_lig2953
                    3D
 Schrodinger Suite 2021-1.
 39 42  0  0  1  0            999 V2000
    4.8384   -9.2419   19.8554 O   0  0  0  0  0  0
    7.2751   -1.7523   23.4905 N   0  0  0  0  0  0
    8.1015   -3.8877   24.2411 N   0  0  0  0  0  0
    5.2886  -11.2712   20.6379 N   0  0  0  0  0  0
    6.4235   -3.5781   22.4783 C   0  0  0  0  0  0
    5.8631   -2.4063   21.8373 C   0  0  0  0  0  0
    7.3331   -3.1231   23.4690 C   0  0  0  0  0  0
    7.0597   -5.8338   23.1550 C   0  0  0  0  0  0
    6.3058   -4.9730   22.3368 C   0  0  0  0  0  0
    4.8840   -2.3536   20.7056 C   0  0  0  0  0  0
    6.9115   -7.3295   23.0711 C   0  0  0  0  0  0
    6.4009   -1.3233   22.5213 C   0  0  0  0  0  0
    7.9460   -5.2245   24.0612 C   0  0  0  0  0  0
    6.2804   -7.9512   21.9743 C   0  0  0  0  0  0
    6.0909   -9.3416   21.9027 C   0  0  0  0  0  0
    7.3733   -8.1624   24.1010 C   0  0  0  0  0  0
    4.0340   -3.4318   20.4409 C   0  0  0  0  0  0
    4.8790   -1.2538   19.8374 C   0  0  0  0  0  0
    6.5941  -10.1304   22.9457 C   0  0  0  0  0  0
    7.2378   -9.5461   24.0313 C   0  0  0  0  0  0
    5.3488   -9.9428   20.7255 C   0  0  0  0  0  0
    3.2379   -3.4434   19.3043 C   0  0  0  0  0  0
    4.0640   -1.2579   18.7058 C   0  0  0  0  0  0
    3.2521   -2.3560   18.4392 C   0  0  0  0  0  0
    7.8077   -1.1276   24.0828 H   0  0  0  0  0  0
    5.6574  -11.8608   21.3639 H   0  0  0  0  0  0
    4.8675  -11.6723   19.8066 H   0  0  0  0  0  0
    5.6379   -5.3757   21.5989 H   0  0  0  0  0  0
    6.2467   -0.2642   22.3802 H   0  0  0  0  0  0
    8.5819   -5.8130   24.7029 H   0  0  0  0  0  0
    5.9171   -7.3546   21.1541 H   0  0  0  0  0  0
    7.8443   -7.7549   24.9822 H   0  0  0  0  0  0
    3.9866   -4.2813   21.0979 H   0  0  0  0  0  0
    5.5409   -0.4156   20.0027 H   0  0  0  0  0  0
    6.4793  -11.2040   22.9509 H   0  0  0  0  0  0
    7.6100  -10.1661   24.8341 H   0  0  0  0  0  0
    2.6130   -4.2969   19.0881 H   0  0  0  0  0  0
    4.0891   -0.4490   17.9995 H   0  0  0  0  0  0
    2.6463   -2.3714   17.5465 H   0  0  0  0  0  0
  1 21  2  0  0  0
  2  7  1  0  0  0
  2 12  1  0  0  0
  2 25  1  0  0  0
  3  7  2  0  0  0
  3 13  1  0  0  0
  4 21  1  0  0  0
  4 26  1  0  0  0
  4 27  1  0  0  0
  5  6  1  0  0  0
  5  7  1  0  0  0
  5  9  2  0  0  0
  6 10  1  0  0  0
  6 12  2  0  0  0
  8  9  1  0  0  0
  8 11  1  0  0  0
  8 13  2  0  0  0
  9 28  1  0  0  0
 10 17  2  0  0  0
 10 18  1  0  0  0
 11 14  2  0  0  0
 11 16  1  0  0  0
 12 29  1  0  0  0
 13 30  1  0  0  0
 14 15  1  0  0  0
 14 31  1  0  0  0
 15 19  2  0  0  0
 15 21  1  0  0  0
 16 20  2  0  0  0
 16 32  1  0  0  0
 17 22  1  0  0  0
 17 33  1  0  0  0
 18 23  2  0  0  0
 18 34  1  0  0  0
 19 20  1  0  0  0
 19 35  1  0  0  0
 20 36  1  0  0  0
 22 24  2  0  0  0
 22 37  1  0  0  0
 23 24  1  0  0  0
 23 38  1  0  0  0
 24 39  1  0  0  0
M  END
> <s_m_entry_id>
5624

> <s_m_entry_name>
dock_pv.19

> <s_m_Source_Path>
/home/csk/Desktop/cluster/DUD-E-result/igf1r

> <s_m_Source_File>
dock_pv.maegz

> <i_m_Source_File_Index>
19

> <chembl_id>
CHEMBL1982957

> <chembl_pref_name>
None

> <i_lp_mmshare_version>
53161

> <r_lp_tautomer_probability>
0.999998432528457

> <s_lp_Force_Field>
OPLS_2005

> <r_lp_Energy>
18.17457

> <b_lp_Chiralities_Consistent>
1

> <s_lp_Variant>
CHEMBL1957_lig2953-1

> <s_i_glide_gridfile>
glide-grid_2oj9

> <i_i_glide_lignum>
4087

> <i_i_glide_rotatable_bonds>
3

> <r_i_docking_score>
-8.95015656034336

> <r_i_glide_ligand_efficiency>
-0.372923190014307

> <r_i_glide_ligand_efficiency_sa>
-1.07569661997206

> <r_i_glide_ligand_efficiency_ln>
-2.14218316081342

> <r_i_glide_gscore>
-8.95015656034336

> <r_i_glide_lipo>
-3.40172029643542

> <r_i_glide_hbond>
-0.404731318814541

> <r_i_glide_metal>
0

> <r_i_glide_rewards>
-3.0091029722105

> <r_i_glide_evdw>
-41.2453002929688

> <r_i_glide_ecoul>
-3.00427985191345

> <r_i_glide_erotb>
0.378305019552556

> <r_i_glide_esite>
0

> <r_i_glide_emodel>
-66.3437695380853

> <r_i_glide_energy>
-44.2495801448822

> <r_i_glide_einternal>
2.05836772918701

> <i_i_glide_confnum>
7

> <i_i_glide_posenum>
173

> <r_i_glide_eff_state_penalty>
0

> <s_user_duplicate_titles>
CHEMBL1957_lig2953

> <i_f3d_flags>
0

> <s_m_subgroup_title>
dock_pv

> <s_m_subgroupid>
dock_pv

> <b_m_subgroup_collapsed>
1

$$$$
CHEMBL1957_lig1251
                    3D
 Schrodinger Suite 2021-1.
 40 43  0  0  1  0            999 V2000
    3.6380   -2.8330   19.1151 C   0  0  0  0  0  0
    3.2380   -3.7729   18.1699 C   0  0  0  0  0  0
    3.2302   -5.1049   18.4202 N   0  0  0  0  0  0
    3.6380   -5.4973   19.6502 C   0  0  0  0  0  0
    4.0342   -4.6541   20.6380 N   0  0  0  0  0  0
    4.0380   -3.3209   20.3659 C   0  0  0  0  0  0
    4.5718   -2.4309   21.3064 N   0  0  0  0  0  0
    3.9641   -6.8540   19.7190 N   0  0  0  0  0  0
    5.6474   -2.6312   22.1358 C   0  0  0  0  0  0
    6.4839   -3.7479   22.2814 C   0  0  0  0  0  0
    7.4318   -3.4257   23.2352 C   0  0  0  0  0  0
    7.1075   -2.1410   23.5768 N   0  0  0  0  0  0
    6.0380   -1.6599   22.9309 N   0  0  0  0  0  0
    8.5928   -4.1800   23.8441 C   0  0  0  0  0  0
    8.4332   -5.6267   24.2380 C   0  0  0  0  0  0
    9.2975   -5.2540   23.0491 C   0  0  0  0  0  0
    3.7221   -0.9892   18.6380 Br  0  0  0  0  0  0
    4.5991   -7.6854   20.6503 C   0  0  0  0  0  0
    4.8380   -8.9977   20.2380 C   0  0  0  0  0  0
    5.4857   -9.9007   21.0754 C   0  0  0  0  0  0
    5.8935   -9.4973   22.3457 C   0  0  0  0  0  0
    5.6380   -8.1957   22.7794 C   0  0  0  0  0  0
    4.9918   -7.2898   21.9362 C   0  0  0  0  0  0
    5.7166  -11.2018   20.6380 N   0  0  0  0  0  0
    2.9506   -3.4674   17.1761 H   0  0  0  0  0  0
    4.3615   -1.4791   21.0533 H   0  0  0  0  0  0
    3.8158   -7.3164   18.8316 H   0  0  0  0  0  0
    6.4184   -4.6824   21.7472 H   0  0  0  0  0  0
    7.6259   -1.5835   24.2408 H   0  0  0  0  0  0
    9.2321   -3.5689   24.4836 H   0  0  0  0  0  0
    7.4687   -6.1054   24.0718 H   0  0  0  0  0  0
    8.9074   -5.9657   25.1600 H   0  0  0  0  0  0
   10.3834   -5.3280   23.1300 H   0  0  0  0  0  0
    8.9483   -5.4809   22.0413 H   0  0  0  0  0  0
    4.5292   -9.3197   19.2536 H   0  0  0  0  0  0
    6.3869  -10.1934   23.0083 H   0  0  0  0  0  0
    5.9314   -7.8936   23.7738 H   0  0  0  0  0  0
    4.7958   -6.2985   22.3098 H   0  0  0  0  0  0
    6.0381  -11.8859   21.3066 H   0  0  0  0  0  0
    5.3382  -11.4980   19.7440 H   0  0  0  0  0  0
  1  2  2  0  0  0
  1  6  1  0  0  0
  1 17  1  0  0  0
  2  3  1  0  0  0
  2 25  1  0  0  0
  3  4  2  0  0  0
  4  5  1  0  0  0
  4  8  1  0  0  0
  5  6  2  0  0  0
  6  7  1  0  0  0
  7  9  1  0  0  0
  7 26  1  0  0  0
  8 18  1  0  0  0
  8 27  1  0  0  0
  9 13  2  0  0  0
  9 10  1  0  0  0
 10 11  2  0  0  0
 10 28  1  0  0  0
 11 14  1  0  0  0
 11 12  1  0  0  0
 12 29  1  0  0  0
 12 13  1  0  0  0
 14 15  1  0  0  0
 14 16  1  0  0  0
 14 30  1  0  0  0
 15 16  1  0  0  0
 15 31  1  0  0  0
 15 32  1  0  0  0
 16 33  1  0  0  0
 16 34  1  0  0  0
 18 19  2  0  0  0
 18 23  1  0  0  0
 19 20  1  0  0  0
 19 35  1  0  0  0
 20 21  2  0  0  0
 20 24  1  0  0  0
 21 22  1  0  0  0
 21 36  1  0  0  0
 22 23  2  0  0  0
 22 37  1  0  0  0
 23 38  1  0  0  0
 24 39  1  0  0  0
 24 40  1  0  0  0
M  END
> <s_m_entry_id>
5625

> <s_m_entry_name>
dock_pv.20

> <s_m_Source_Path>
/home/csk/Desktop/cluster/DUD-E-result/igf1r

> <s_m_Source_File>
dock_pv.maegz

> <i_m_Source_File_Index>
20

> <chembl_id>
CHEMBL3975695

> <chembl_pref_name>
None

> <i_lp_mmshare_version>
53161

> <r_lp_tautomer_probability>
0.842599949391031

> <s_lp_Force_Field>
OPLS_2005

> <r_lp_Energy>
14.097959

> <b_lp_Chiralities_Consistent>
1

> <s_lp_Variant>
CHEMBL1957_lig1251-1

> <s_i_glide_gridfile>
glide-grid_2oj9

> <i_i_glide_lignum>
1638

> <i_i_glide_rotatable_bonds>
5

> <r_i_docking_score>
-8.94523440430031

> <r_i_glide_ligand_efficiency>
-0.372718100179179

> <r_i_glide_ligand_efficiency_sa>
-1.07510503851952

> <r_i_glide_ligand_efficiency_ln>
-2.14100506300929

> <r_i_glide_gscore>
-8.94523440430031

> <r_i_glide_lipo>
-3.3902292738135

> <r_i_glide_hbond>
-0.617619292572593

> <r_i_glide_metal>
0

> <r_i_glide_rewards>
-2.26639639035109

> <r_i_glide_evdw>
-40.9628791809082

> <r_i_glide_ecoul>
-7.19610595703125

> <r_i_glide_erotb>
0.45657040503698

> <r_i_glide_esite>
0

> <r_i_glide_emodel>
-68.5977309753236

> <r_i_glide_energy>
-48.1589851379395

> <r_i_glide_einternal>
7.73741817474365

> <i_i_glide_confnum>
19

> <i_i_glide_posenum>
205

> <r_i_glide_eff_state_penalty>
0

> <s_user_duplicate_titles>
CHEMBL1957_lig1251

> <i_f3d_flags>
0

> <s_m_subgroup_title>
dock_pv

> <s_m_subgroupid>
dock_pv

> <b_m_subgroup_collapsed>
1

$$$$
CHEMBL1957_lig252
                    3D
 Schrodinger Suite 2021-1.
 65 69  0  0  1  0            999 V2000
    5.8839   -9.7287   21.8626 C   0  0  0  0  0  0
    6.0882   -9.0797   23.0888 C   0  0  0  0  0  0
    5.7382   -7.7404   23.3081 C   0  0  0  0  0  0
    5.2376   -9.0562   20.8204 C   0  0  0  0  0  0
    4.9016   -7.7276   21.0302 C   0  0  0  0  0  0
    5.1683   -7.0394   22.2319 C   0  0  0  0  0  0
    4.8363   -5.7128   22.1095 N   0  0  0  0  0  0
    4.3210   -5.5757   20.9014 C   0  0  0  0  0  0
    4.3250   -6.7843   20.2397 N   0  0  0  0  0  0
    6.0680   -7.0991   24.6387 C   0  0  0  0  0  0
    6.3800  -11.0005   21.6165 N   0  0  0  0  0  0
    7.3720  -11.6831   22.4675 C   0  0  0  0  0  0
    8.2512  -12.6512   21.6385 C   0  0  0  0  0  0
    7.4489  -13.5527   20.8881 O   0  0  0  0  0  0
    6.5257  -12.8867   20.0327 C   0  0  0  0  0  0
    5.5955  -12.0080   20.8854 C   0  0  0  0  0  0
    3.9246   -4.2810   20.2383 C   0  0  0  0  0  0
    4.3092   -3.0447   20.7113 C   0  0  0  0  0  0
    4.0392   -1.8597   19.8966 C   0  0  0  0  0  0
    3.4517   -2.0244   18.7097 C   0  0  0  0  0  0
    3.0457   -3.2265   18.2380 N   0  0  0  0  0  0
    3.2380   -4.3852   18.9176 C   0  0  0  0  0  0
    2.8379   -5.4205   18.3790 O   0  0  0  0  0  0
    5.0084   -2.9124   21.8853 N   0  0  0  0  0  0
    5.4962   -1.7355   22.5987 C   0  0  0  0  0  0
    7.0110   -1.6546   22.7568 C   0  0  0  0  0  0
    7.6962   -2.9408   23.1055 C   0  0  0  0  0  0
    8.4303   -3.8176   22.3148 C   0  0  0  0  0  0
    8.8250   -4.8294   23.1577 N   0  0  0  0  0  0
    8.3720   -4.4299   24.3865 C   0  0  0  0  0  0
    7.6611   -3.3434   24.3492 N   0  0  0  0  0  0
    9.6364   -5.9957   22.8318 C   0  0  0  0  0  0
    8.8655   -3.7430   20.6436 Cl  0  0  0  0  0  0
    8.8769   -6.9960   21.9403 C   0  0  0  0  0  0
   10.2253   -6.6761   24.0943 C   0  0  0  0  0  0
    6.5688   -9.6191   23.8906 H   0  0  0  0  0  0
    5.0713   -9.5135   19.8586 H   0  0  0  0  0  0
    3.9824   -6.8791   19.2912 H   0  0  0  0  0  0
    6.4382   -7.8111   25.3765 H   0  0  0  0  0  0
    6.8368   -6.3629   24.4828 H   0  0  0  0  0  0
    5.2029   -6.5764   25.0403 H   0  0  0  0  0  0
    8.0401  -10.9496   22.9159 H   0  0  0  0  0  0
    6.8678  -12.1994   23.2833 H   0  0  0  0  0  0
    8.8893  -13.2317   22.3009 H   0  0  0  0  0  0
    8.9174  -12.0977   20.9733 H   0  0  0  0  0  0
    5.9448  -13.6198   19.4763 H   0  0  0  0  0  0
    7.0543  -12.2873   19.2870 H   0  0  0  0  0  0
    5.0336  -12.6101   21.6010 H   0  0  0  0  0  0
    4.8570  -11.5613   20.2204 H   0  0  0  0  0  0
    4.3664   -0.8819   20.2004 H   0  0  0  0  0  0
    3.2410   -1.2224   18.0199 H   0  0  0  0  0  0
    2.5902   -3.3292   17.3393 H   0  0  0  0  0  0
    5.2894   -3.7877   22.3165 H   0  0  0  0  0  0
    5.0141   -1.6637   23.5722 H   0  0  0  0  0  0
    5.2377   -0.8109   22.0943 H   0  0  0  0  0  0
    7.2385   -0.8577   23.4631 H   0  0  0  0  0  0
    7.4180   -1.2581   21.8379 H   0  0  0  0  0  0
    8.5843   -5.0121   25.2716 H   0  0  0  0  0  0
   10.4381   -5.5830   22.2386 H   0  0  0  0  0  0
    9.5702   -7.6968   21.4817 H   0  0  0  0  0  0
    8.3286   -6.5113   21.1314 H   0  0  0  0  0  0
    8.1797   -7.5800   22.5258 H   0  0  0  0  0  0
   10.8743   -7.5116   23.8357 H   0  0  0  0  0  0
   10.8276   -5.9770   24.6684 H   0  0  0  0  0  0
    9.4491   -7.0757   24.7453 H   0  0  0  0  0  0
  1  4  1  0  0  0
  1 11  1  0  0  0
  1  2  2  0  0  0
  2  3  1  0  0  0
  2 36  1  0  0  0
  3 10  1  0  0  0
  3  6  2  0  0  0
  4  5  2  0  0  0
  4 37  1  0  0  0
  5  9  1  0  0  0
  5  6  1  0  0  0
  6  7  1  0  0  0
  7  8  2  0  0  0
  8  9  1  0  0  0
  8 17  1  0  0  0
  9 38  1  0  0  0
 10 39  1  0  0  0
 10 40  1  0  0  0
 10 41  1  0  0  0
 11 12  1  0  0  0
 11 16  1  0  0  0
 12 13  1  0  0  0
 12 42  1  0  0  0
 12 43  1  0  0  0
 13 14  1  0  0  0
 13 44  1  0  0  0
 13 45  1  0  0  0
 14 15  1  0  0  0
 15 16  1  0  0  0
 15 46  1  0  0  0
 15 47  1  0  0  0
 16 48  1  0  0  0
 16 49  1  0  0  0
 17 18  2  0  0  0
 17 22  1  0  0  0
 18 19  1  0  0  0
 18 24  1  0  0  0
 19 20  2  0  0  0
 19 50  1  0  0  0
 20 21  1  0  0  0
 20 51  1  0  0  0
 21 22  1  0  0  0
 21 52  1  0  0  0
 22 23  2  0  0  0
 24 25  1  0  0  0
 24 53  1  0  0  0
 25 26  1  0  0  0
 25 54  1  0  0  0
 25 55  1  0  0  0
 26 27  1  0  0  0
 26 56  1  0  0  0
 26 57  1  0  0  0
 27 28  2  0  0  0
 27 31  1  0  0  0
 28 29  1  0  0  0
 28 33  1  0  0  0
 29 30  1  0  0  0
 29 32  1  0  0  0
 30 31  2  0  0  0
 30 58  1  0  0  0
 32 34  1  0  0  0
 32 35  1  0  0  0
 32 59  1  0  0  0
 34 60  1  0  0  0
 34 61  1  0  0  0
 34 62  1  0  0  0
 35 63  1  0  0  0
 35 64  1  0  0  0
 35 65  1  0  0  0
M  END
> <s_m_entry_id>
5626

> <s_m_entry_name>
dock_pv.21

> <s_m_Source_Path>
/home/csk/Desktop/cluster/DUD-E-result/igf1r

> <s_m_Source_File>
dock_pv.maegz

> <i_m_Source_File_Index>
21

> <chembl_id>
CHEMBL404307

> <chembl_pref_name>
None

> <i_lp_mmshare_version>
53161

> <r_lp_tautomer_probability>
0.999206294981429

> <s_lp_Force_Field>
OPLS_2005

> <r_lp_Energy>
49.814875

> <b_lp_Chiralities_Consistent>
1

> <s_lp_Variant>
CHEMBL1957_lig252-1

> <s_i_glide_gridfile>
glide-grid_2oj9

> <i_i_glide_lignum>
423

> <i_i_glide_rotatable_bonds>
7

> <r_i_docking_score>
-8.91382441164452

> <r_i_glide_ligand_efficiency>
-0.254680697475558

> <r_i_glide_ligand_efficiency_sa>
-0.833077448380335

> <r_i_glide_ligand_efficiency_ln>
-1.9567822900299

> <r_i_glide_gscore>
-8.91382441164452

> <r_i_glide_lipo>
-3.52873744683752

> <r_i_glide_hbond>
-0.578825198582973

> <r_i_glide_metal>
0

> <r_i_glide_rewards>
-1.4353530186011

> <r_i_glide_evdw>
-46.522403717041

> <r_i_glide_ecoul>
-9.28579998016357

> <r_i_glide_erotb>
0.348081435253663

> <r_i_glide_esite>
0

> <r_i_glide_emodel>
-68.2864563586942

> <r_i_glide_energy>
-55.8082036972046

> <r_i_glide_einternal>
5.68118619918823

> <i_i_glide_confnum>
7

> <i_i_glide_posenum>
42

> <r_i_glide_eff_state_penalty>
0

> <s_user_duplicate_titles>
CHEMBL1957_lig252,424444

> <i_f3d_flags>
0

> <s_m_subgroup_title>
dock_pv

> <s_m_subgroupid>
dock_pv

> <b_m_subgroup_collapsed>
1

$$$$
CHEMBL1957_lig242
                    3D
 Schrodinger Suite 2021-1.
 56 60  0  0  1  0            999 V2000
    5.9335   -9.5274   21.8532 C   0  0  0  0  0  0
    6.1773   -8.8560   23.0657 C   0  0  0  0  0  0
    5.8006   -7.5246   23.2885 C   0  0  0  0  0  0
    5.2375   -8.8774   20.8257 C   0  0  0  0  0  0
    4.8858   -7.5491   21.0373 C   0  0  0  0  0  0
    5.1895   -6.8494   22.2211 C   0  0  0  0  0  0
    4.8382   -5.5299   22.1000 N   0  0  0  0  0  0
    4.2950   -5.4010   20.9032 C   0  0  0  0  0  0
    4.2498   -6.6215   20.2622 N   0  0  0  0  0  0
    6.4191  -10.8103   21.6119 N   0  0  0  0  0  0
    6.0794   -6.8685   24.6309 C   0  0  0  0  0  0
    7.3806  -11.4810   22.5057 C   0  0  0  0  0  0
    8.1723  -12.5927   21.7821 C   0  0  0  0  0  0
    7.2849  -13.5209   21.1715 O   0  0  0  0  0  0
    6.4094  -12.8914   20.2448 C   0  0  0  0  0  0
    5.5661  -11.8301   20.9751 C   0  0  0  0  0  0
    3.9211   -4.1033   20.2381 C   0  0  0  0  0  0
    4.3332   -2.8787   20.7145 C   0  0  0  0  0  0
    4.1046   -1.6878   19.9013 C   0  0  0  0  0  0
    3.5151   -1.8351   18.7086 C   0  0  0  0  0  0
    3.0805   -3.0317   18.2380 N   0  0  0  0  0  0
    3.2380   -4.1947   18.9170 C   0  0  0  0  0  0
    2.8410   -5.2216   18.3642 O   0  0  0  0  0  0
    5.0816   -2.7565   21.8616 N   0  0  0  0  0  0
    6.1077   -1.7631   22.1635 C   0  0  0  0  0  0
    6.9266   -2.0812   23.4314 C   0  0  0  0  0  0
    7.7236   -3.3069   23.3435 N   0  0  0  0  0  0
    7.8778   -4.1842   22.2969 C   0  0  0  0  0  0
    8.7051   -5.1886   22.7560 C   0  0  0  0  0  0
    9.0356   -4.7907   24.0561 C   0  0  0  0  0  0
    8.4387   -3.6757   24.4153 N   0  0  0  0  0  0
    9.2378   -6.7633   21.8389 Br  0  0  0  0  0  0
    6.6847   -9.3765   23.8657 H   0  0  0  0  0  0
    5.0356   -9.3522   19.8779 H   0  0  0  0  0  0
    3.8842   -6.7199   19.3210 H   0  0  0  0  0  0
    6.5030   -7.5589   25.3592 H   0  0  0  0  0  0
    6.7584   -6.0299   24.5140 H   0  0  0  0  0  0
    5.1577   -6.4548   25.0381 H   0  0  0  0  0  0
    8.1094  -10.7522   22.8610 H   0  0  0  0  0  0
    6.8615  -11.8704   23.3838 H   0  0  0  0  0  0
    8.7952  -13.1285   22.4976 H   0  0  0  0  0  0
    8.8503  -12.1680   21.0379 H   0  0  0  0  0  0
    5.7519  -13.6383   19.8046 H   0  0  0  0  0  0
    6.9720  -12.4480   19.4191 H   0  0  0  0  0  0
    4.9257  -12.2911   21.7281 H   0  0  0  0  0  0
    4.8928  -11.3946   20.2398 H   0  0  0  0  0  0
    4.4397   -0.7167   20.2314 H   0  0  0  0  0  0
    3.3254   -1.0235   18.0201 H   0  0  0  0  0  0
    2.6171   -3.1269   17.3403 H   0  0  0  0  0  0
    5.2283   -3.6365   22.3460 H   0  0  0  0  0  0
    5.6341   -0.7881   22.2865 H   0  0  0  0  0  0
    6.7792   -1.6386   21.3142 H   0  0  0  0  0  0
    6.2139   -2.2866   24.2321 H   0  0  0  0  0  0
    7.5382   -1.2425   23.7657 H   0  0  0  0  0  0
    7.3721   -4.0470   21.3544 H   0  0  0  0  0  0
    9.6798   -5.3296   24.7357 H   0  0  0  0  0  0
  1  4  1  0  0  0
  1 10  1  0  0  0
  1  2  2  0  0  0
  2  3  1  0  0  0
  2 33  1  0  0  0
  3 11  1  0  0  0
  3  6  2  0  0  0
  4  5  2  0  0  0
  4 34  1  0  0  0
  5  9  1  0  0  0
  5  6  1  0  0  0
  6  7  1  0  0  0
  7  8  2  0  0  0
  8  9  1  0  0  0
  8 17  1  0  0  0
  9 35  1  0  0  0
 10 12  1  0  0  0
 10 16  1  0  0  0
 11 36  1  0  0  0
 11 37  1  0  0  0
 11 38  1  0  0  0
 12 13  1  0  0  0
 12 39  1  0  0  0
 12 40  1  0  0  0
 13 14  1  0  0  0
 13 41  1  0  0  0
 13 42  1  0  0  0
 14 15  1  0  0  0
 15 16  1  0  0  0
 15 43  1  0  0  0
 15 44  1  0  0  0
 16 45  1  0  0  0
 16 46  1  0  0  0
 17 18  2  0  0  0
 17 22  1  0  0  0
 18 19  1  0  0  0
 18 24  1  0  0  0
 19 20  2  0  0  0
 19 47  1  0  0  0
 20 21  1  0  0  0
 20 48  1  0  0  0
 21 22  1  0  0  0
 21 49  1  0  0  0
 22 23  2  0  0  0
 24 25  1  0  0  0
 24 50  1  0  0  0
 25 26  1  0  0  0
 25 51  1  0  0  0
 25 52  1  0  0  0
 26 27  1  0  0  0
 26 53  1  0  0  0
 26 54  1  0  0  0
 27 28  1  0  0  0
 27 31  1  0  0  0
 28 29  2  0  0  0
 28 55  1  0  0  0
 29 30  1  0  0  0
 29 32  1  0  0  0
 30 31  2  0  0  0
 30 56  1  0  0  0
M  END
> <s_m_entry_id>
5627

> <s_m_entry_name>
dock_pv.22

> <s_m_Source_Path>
/home/csk/Desktop/cluster/DUD-E-result/igf1r

> <s_m_Source_File>
dock_pv.maegz

> <i_m_Source_File_Index>
22

> <chembl_id>
CHEMBL257114

> <chembl_pref_name>
None

> <i_lp_mmshare_version>
53161

> <r_lp_tautomer_probability>
0.999206294981429

> <s_lp_Force_Field>
OPLS_2005

> <r_lp_Energy>
43.389263

> <b_lp_Chiralities_Consistent>
1

> <s_lp_Variant>
CHEMBL1957_lig242-1

> <s_i_glide_gridfile>
glide-grid_2oj9

> <i_i_glide_lignum>
413

> <i_i_glide_rotatable_bonds>
6

> <r_i_docking_score>
-8.82791740848357

> <r_i_glide_ligand_efficiency>
-0.275872419015112

> <r_i_glide_ligand_efficiency_sa>
-0.87584033529539

> <r_i_glide_ligand_efficiency_ln>
-1.9768113476995

> <r_i_glide_gscore>
-8.82791740848357

> <r_i_glide_lipo>
-3.8312549472997

> <r_i_glide_hbond>
-0.516271530112879

> <r_i_glide_metal>
0

> <r_i_glide_rewards>
-1.24563753266863

> <r_i_glide_evdw>
-48.3409271240234

> <r_i_glide_ecoul>
-7.36833620071411

> <r_i_glide_erotb>
0.287543387905929

> <r_i_glide_esite>
0

> <r_i_glide_emodel>
-71.1549589496091

> <r_i_glide_energy>
-55.7092633247375

> <r_i_glide_einternal>
3.43841099739075

> <i_i_glide_confnum>
108

> <i_i_glide_posenum>
248

> <r_i_glide_eff_state_penalty>
0

> <s_user_duplicate_titles>
CHEMBL1957_lig242,424454

> <i_f3d_flags>
0

> <s_m_subgroup_title>
dock_pv

> <s_m_subgroupid>
dock_pv

> <b_m_subgroup_collapsed>
1

$$$$
CHEMBL1957_lig3032
                    3D
 Schrodinger Suite 2021-1.
 32 35  0  0  1  0            999 V2000
    2.8380   -6.0312   18.5582 O   0  0  0  0  0  0
    3.1243   -3.7778   18.3654 N   0  0  0  0  0  0
    5.8288   -6.5966   24.2380 N   0  0  0  0  0  0
    3.9610   -4.6946   20.2380 C   0  0  0  0  0  0
    4.2630   -3.2540   20.2214 C   0  0  0  0  0  0
    3.7413   -2.7588   19.0413 C   0  0  0  0  0  0
    5.1018   -5.8641   22.2216 C   0  0  0  0  0  0
    3.2380   -4.9549   18.9994 C   0  0  0  0  0  0
    6.3923   -5.2805   22.5088 C   0  0  0  0  0  0
    4.2643   -5.7444   21.0410 C   0  0  0  0  0  0
    6.8144   -5.7532   23.7903 C   0  0  0  0  0  0
    4.8380   -6.6906   23.2987 C   0  0  0  0  0  0
    4.9651   -2.3897   21.0652 C   0  0  0  0  0  0
    3.9335   -1.4374   18.6421 C   0  0  0  0  0  0
    7.2584   -4.4251   21.8124 C   0  0  0  0  0  0
    8.0300   -5.3776   24.3715 C   0  0  0  0  0  0
    5.2380   -1.0838   20.6414 C   0  0  0  0  0  0
    4.7182   -0.6034   19.4380 C   0  0  0  0  0  0
    8.4683   -4.0540   22.3825 C   0  0  0  0  0  0
    8.8405   -4.5150   23.6390 C   0  0  0  0  0  0
    2.6659   -3.6700   17.4709 H   0  0  0  0  0  0
    5.8062   -7.0983   25.1142 H   0  0  0  0  0  0
    3.8619   -6.7147   20.7766 H   0  0  0  0  0  0
    3.9944   -7.3377   23.4893 H   0  0  0  0  0  0
    5.3486   -2.7206   22.0171 H   0  0  0  0  0  0
    3.5287   -1.0667   17.7133 H   0  0  0  0  0  0
    6.9994   -4.0540   20.8337 H   0  0  0  0  0  0
    8.3456   -5.7438   25.3380 H   0  0  0  0  0  0
    5.8370   -0.4339   21.2622 H   0  0  0  0  0  0
    4.9257    0.4104   19.1253 H   0  0  0  0  0  0
    9.1385   -3.4034   21.8380 H   0  0  0  0  0  0
    9.7937   -4.2055   24.0450 H   0  0  0  0  0  0
  1  8  2  0  0  0
  2  6  1  0  0  0
  2  8  1  0  0  0
  2 21  1  0  0  0
  3 11  1  0  0  0
  3 12  1  0  0  0
  3 22  1  0  0  0
  4  5  1  0  0  0
  4  8  1  0  0  0
  4 10  2  3  0  0
  5  6  1  0  0  0
  5 13  2  0  0  0
  6 14  2  0  0  0
  7  9  1  0  0  0
  7 10  1  0  0  0
  7 12  2  0  0  0
  9 11  1  0  0  0
  9 15  2  0  0  0
 10 23  1  0  0  0
 11 16  2  0  0  0
 12 24  1  0  0  0
 13 17  1  0  0  0
 13 25  1  0  0  0
 14 18  1  0  0  0
 14 26  1  0  0  0
 15 19  1  0  0  0
 15 27  1  0  0  0
 16 20  1  0  0  0
 16 28  1  0  0  0
 17 18  2  0  0  0
 17 29  1  0  0  0
 18 30  1  0  0  0
 19 20  2  0  0  0
 19 31  1  0  0  0
 20 32  1  0  0  0
M  END
> <s_m_entry_id>
5628

> <s_m_entry_name>
dock_pv.23

> <s_m_Source_Path>
/home/csk/Desktop/cluster/DUD-E-result/igf1r

> <s_m_Source_File>
dock_pv.maegz

> <i_m_Source_File_Index>
23

> <chembl_id>
CHEMBL1986590

> <chembl_pref_name>
None

> <i_lp_mmshare_version>
53161

> <r_lp_tautomer_probability>
1

> <s_lp_Force_Field>
OPLS_2005

> <r_lp_Energy>
36.742984

> <b_lp_Chiralities_Consistent>
1

> <s_lp_Variant>
CHEMBL1957_lig3032-1

> <s_i_glide_gridfile>
glide-grid_2oj9

> <i_i_glide_lignum>
4203

> <i_i_glide_rotatable_bonds>
1

> <r_i_docking_score>
-8.82635950238143

> <r_i_glide_ligand_efficiency>
-0.441317975119071

> <r_i_glide_ligand_efficiency_sa>
-1.19792128498698

> <r_i_glide_ligand_efficiency_ln>
-2.20894667062637

> <r_i_glide_gscore>
-8.82635950238143

> <r_i_glide_lipo>
-2.7358399741967

> <r_i_glide_hbond>
-0.474069509024777

> <r_i_glide_metal>
0

> <r_i_glide_rewards>
-3.22105316666667

> <r_i_glide_evdw>
-31.4176044464111

> <r_i_glide_ecoul>
-5.49677753448486

> <r_i_glide_erotb>
0

> <r_i_glide_esite>
0

> <r_i_glide_emodel>
-54.7735555704369

> <r_i_glide_energy>
-36.914381980896

> <r_i_glide_einternal>
0.172832429409027

> <i_i_glide_confnum>
1

> <i_i_glide_posenum>
237

> <r_i_glide_eff_state_penalty>
0

> <s_user_duplicate_titles>
CHEMBL1957_lig3032

> <i_f3d_flags>
0

> <s_m_subgroup_title>
dock_pv

> <s_m_subgroupid>
dock_pv

> <b_m_subgroup_collapsed>
1

$$$$
CHEMBL1957_lig257
                    3D
 Schrodinger Suite 2021-1.
 62 66  0  0  1  0            999 V2000
    6.4007   -9.5832   22.5029 C   0  0  0  0  0  0
    6.5025   -8.7550   23.6319 C   0  0  0  0  0  0
    5.9677   -7.4633   23.6823 C   0  0  0  0  0  0
    5.6772   -9.1453   21.3822 C   0  0  0  0  0  0
    5.1818   -7.8438   21.4111 C   0  0  0  0  0  0
    5.3375   -6.9883   22.5203 C   0  0  0  0  0  0
    4.8381   -5.7430   22.2388 N   0  0  0  0  0  0
    4.3274   -5.8104   21.0231 C   0  0  0  0  0  0
    4.4937   -7.0796   20.5055 N   0  0  0  0  0  0
    6.1485   -6.6356   24.9417 C   0  0  0  0  0  0
    7.0809  -10.7997   22.4830 N   0  0  0  0  0  0
    6.9755  -11.7315   23.6208 C   0  0  0  0  0  0
    8.1686  -12.7077   23.6802 C   0  0  0  0  0  0
    8.2568  -13.4356   22.4623 O   0  0  0  0  0  0
    8.4393  -12.5792   21.3431 C   0  0  0  0  0  0
    7.2687  -11.5760   21.2425 C   0  0  0  0  0  0
    3.7534   -4.6579   20.2380 C   0  0  0  0  0  0
    3.8527   -3.3474   20.6433 C   0  0  0  0  0  0
    3.5107   -2.2842   19.7050 C   0  0  0  0  0  0
    3.2385   -2.6264   18.4387 C   0  0  0  0  0  0
    3.1507   -3.9149   18.0248 N   0  0  0  0  0  0
    3.2380   -4.9625   18.8816 C   0  0  0  0  0  0
    2.8378   -6.0536   18.4888 O   0  0  0  0  0  0
    4.4379   -3.0115   21.8379 N   0  0  0  0  0  0
    5.3382   -1.9099   22.1219 C   0  0  0  0  0  0
    6.7731   -2.1879   21.6915 C   0  0  0  0  0  0
    7.5641   -3.1265   22.5686 C   0  0  0  0  0  0
    8.2425   -4.2692   22.1827 C   0  0  0  0  0  0
    8.8045   -4.7959   23.3142 N   0  0  0  0  0  0
    8.4823   -3.8883   24.2906 C   0  0  0  0  0  0
    7.7228   -2.9068   23.8654 N   0  0  0  0  0  0
    9.5850   -6.0175   23.4619 C   0  0  0  0  0  0
    9.2409   -7.0566   22.3760 C   0  0  0  0  0  0
    7.0765   -9.0935   24.4809 H   0  0  0  0  0  0
    5.5491   -9.7636   20.5070 H   0  0  0  0  0  0
    4.1705   -7.3242   19.5773 H   0  0  0  0  0  0
    6.4387   -7.2402   25.8038 H   0  0  0  0  0  0
    6.9111   -5.8828   24.7927 H   0  0  0  0  0  0
    5.2314   -6.1012   25.1839 H   0  0  0  0  0  0
    6.9386  -11.1977   24.5691 H   0  0  0  0  0  0
    6.0378  -12.2832   23.5496 H   0  0  0  0  0  0
    8.0308  -13.4090   24.5024 H   0  0  0  0  0  0
    9.1016  -12.1756   23.8779 H   0  0  0  0  0  0
    8.4824  -13.1893   20.4405 H   0  0  0  0  0  0
    9.3964  -12.0586   21.4112 H   0  0  0  0  0  0
    6.3411  -12.0848   20.9755 H   0  0  0  0  0  0
    7.4999  -10.8901   20.4274 H   0  0  0  0  0  0
    3.5046   -1.2536   20.0095 H   0  0  0  0  0  0
    2.9599   -1.9333   17.6589 H   0  0  0  0  0  0
    2.7663   -4.1346   17.1170 H   0  0  0  0  0  0
    4.7008   -3.8312   22.3770 H   0  0  0  0  0  0
    5.2808   -1.5693   23.1569 H   0  0  0  0  0  0
    5.0302   -1.0359   21.5547 H   0  0  0  0  0  0
    7.2661   -1.2316   21.8381 H   0  0  0  0  0  0
    6.8378   -2.3422   20.6147 H   0  0  0  0  0  0
    8.3641   -4.7478   21.2257 H   0  0  0  0  0  0
    8.8381   -4.0414   25.2986 H   0  0  0  0  0  0
    9.3757   -6.4302   24.4495 H   0  0  0  0  0  0
   10.6430   -5.7518   23.4377 H   0  0  0  0  0  0
    9.6752   -8.0286   22.6109 H   0  0  0  0  0  0
    9.6380   -6.7455   21.4134 H   0  0  0  0  0  0
    8.1728   -7.1867   22.2449 H   0  0  0  0  0  0
  1  4  1  0  0  0
  1 11  1  0  0  0
  1  2  2  0  0  0
  2  3  1  0  0  0
  2 34  1  0  0  0
  3 10  1  0  0  0
  3  6  2  0  0  0
  4  5  2  0  0  0
  4 35  1  0  0  0
  5  9  1  0  0  0
  5  6  1  0  0  0
  6  7  1  0  0  0
  7  8  2  0  0  0
  8  9  1  0  0  0
  8 17  1  0  0  0
  9 36  1  0  0  0
 10 37  1  0  0  0
 10 38  1  0  0  0
 10 39  1  0  0  0
 11 12  1  0  0  0
 11 16  1  0  0  0
 12 13  1  0  0  0
 12 40  1  0  0  0
 12 41  1  0  0  0
 13 14  1  0  0  0
 13 42  1  0  0  0
 13 43  1  0  0  0
 14 15  1  0  0  0
 15 16  1  0  0  0
 15 44  1  0  0  0
 15 45  1  0  0  0
 16 46  1  0  0  0
 16 47  1  0  0  0
 17 18  2  0  0  0
 17 22  1  0  0  0
 18 19  1  0  0  0
 18 24  1  0  0  0
 19 20  2  0  0  0
 19 48  1  0  0  0
 20 21  1  0  0  0
 20 49  1  0  0  0
 21 22  1  0  0  0
 21 50  1  0  0  0
 22 23  2  0  0  0
 24 25  1  0  0  0
 24 51  1  0  0  0
 25 26  1  0  0  0
 25 52  1  0  0  0
 25 53  1  0  0  0
 26 27  1  0  0  0
 26 54  1  0  0  0
 26 55  1  0  0  0
 27 28  2  0  0  0
 27 31  1  0  0  0
 28 29  1  0  0  0
 28 56  1  0  0  0
 29 30  1  0  0  0
 29 32  1  0  0  0
 30 31  2  0  0  0
 30 57  1  0  0  0
 32 33  1  0  0  0
 32 58  1  0  0  0
 32 59  1  0  0  0
 33 60  1  0  0  0
 33 61  1  0  0  0
 33 62  1  0  0  0
M  END
> <s_m_entry_id>
5629

> <s_m_entry_name>
dock_pv.24

> <s_m_Source_Path>
/home/csk/Desktop/cluster/DUD-E-result/igf1r

> <s_m_Source_File>
dock_pv.maegz

> <i_m_Source_File_Index>
24

> <chembl_id>
CHEMBL256276

> <chembl_pref_name>
None

> <i_lp_mmshare_version>
53161

> <r_lp_tautomer_probability>
0.999206294981429

> <s_lp_Force_Field>
OPLS_2005

> <r_lp_Energy>
43.888282

> <b_lp_Chiralities_Consistent>
1

> <s_lp_Variant>
CHEMBL1957_lig257-1

> <s_i_glide_gridfile>
glide-grid_2oj9

> <i_i_glide_lignum>
428

> <i_i_glide_rotatable_bonds>
7

> <r_i_docking_score>
-8.75249019245258

> <r_i_glide_ligand_efficiency>
-0.265226975528866

> <r_i_glide_ligand_efficiency_sa>
-0.85072462825828

> <r_i_glide_ligand_efficiency_ln>
-1.9465085008326

> <r_i_glide_gscore>
-8.75249019245258

> <r_i_glide_lipo>
-3.54982093261475

> <r_i_glide_hbond>
-0.458906363706827

> <r_i_glide_metal>
0

> <r_i_glide_rewards>
-1.67286372030636

> <r_i_glide_evdw>
-46.8416633605957

> <r_i_glide_ecoul>
-7.65832948684692

> <r_i_glide_erotb>
0.419933415232184

> <r_i_glide_esite>
0

> <r_i_glide_emodel>
-75.3945057824586

> <r_i_glide_energy>
-54.4999928474426

> <r_i_glide_einternal>
4.13782072067261

> <i_i_glide_confnum>
6

> <i_i_glide_posenum>
67

> <r_i_glide_eff_state_penalty>
0

> <s_user_duplicate_titles>
CHEMBL1957_lig257,424439

> <i_f3d_flags>
0

> <s_m_subgroup_title>
dock_pv

> <s_m_subgroupid>
dock_pv

> <b_m_subgroup_collapsed>
1

$$$$
CHEMBL1957_lig2780
                    3D
 Schrodinger Suite 2021-1.
 51 54  0  0  1  0            999 V2000
    4.4577  -10.8516   21.4488 F   0  0  0  0  0  0
    4.8398   -9.4750   19.8373 F   0  0  0  0  0  0
    6.4356  -10.6965   20.6200 F   0  0  0  0  0  0
    8.8700   -5.5997   23.0775 O   0  0  0  0  0  0
    5.6384   -1.1840   20.8851 N   0  0  0  0  0  0
    3.2559   -1.6542   18.0879 N   0  0  0  0  0  0
    2.8386   -2.9051   17.8383 N   0  0  0  0  0  0
    7.7698   -2.3232   24.4531 N   0  0  0  0  0  0
   10.7898   -8.2663   24.6731 N   0  0  0  0  0  0
    4.0343   -3.1376   19.6789 C   0  0  0  0  0  0
    4.0384   -1.7993   19.1911 C   0  0  0  0  0  0
    5.6143   -2.4641   21.3456 C   0  0  0  0  0  0
    3.2379   -3.8575   18.7473 C   0  0  0  0  0  0
    4.7814   -3.4555   20.8170 C   0  0  0  0  0  0
    6.6071   -2.8149   22.3863 C   0  0  0  0  0  0
    4.8396   -0.8467   19.8379 C   0  0  0  0  0  0
    7.3272   -4.0115   22.2860 C   0  0  0  0  0  0
    8.2487   -4.3827   23.2593 C   0  0  0  0  0  0
    6.8714   -1.9989   23.4911 C   0  0  0  0  0  0
    5.6902   -8.8982   21.9660 C   0  0  0  0  0  0
    5.3504   -9.9966   20.9492 C   0  0  0  0  0  0
    7.1024   -8.0830   23.7772 C   0  0  0  0  0  0
    2.8909   -5.3221   18.6202 C   0  0  0  0  0  0
    6.7875   -9.0562   22.8241 C   0  0  0  0  0  0
    8.4385   -3.4996   24.3311 C   0  0  0  0  0  0
    4.9300   -7.7200   22.0520 C   0  0  0  0  0  0
    8.3377   -8.2483   24.6566 C   0  0  0  0  0  0
    6.2838   -6.9582   23.9030 C   0  0  0  0  0  0
    9.6329   -7.6798   24.0180 C   0  0  1  0  0  0
    9.7330   -6.1360   24.0736 C   0  0  0  0  0  0
    5.2099   -6.7704   23.0347 C   0  0  0  0  0  0
    2.2690   -3.0987   17.0016 H   0  0  0  0  0  0
   11.6199   -7.9919   24.1586 H   0  0  0  0  0  0
   10.8893   -7.8958   25.6060 H   0  0  0  0  0  0
    4.8039   -4.4675   21.1884 H   0  0  0  0  0  0
    4.9046    0.1704   19.4789 H   0  0  0  0  0  0
    7.1711   -4.6745   21.4467 H   0  0  0  0  0  0
    6.3556   -1.0585   23.6214 H   0  0  0  0  0  0
    2.4756   -5.7092   19.5504 H   0  0  0  0  0  0
    2.1589   -5.5098   17.8379 H   0  0  0  0  0  0
    3.7679   -5.9256   18.3848 H   0  0  0  0  0  0
    7.4054   -9.9400   22.7523 H   0  0  0  0  0  0
    9.1529   -3.6985   25.1139 H   0  0  0  0  0  0
    4.0897   -7.5641   21.3904 H   0  0  0  0  0  0
    8.1590   -7.8008   25.6362 H   0  0  0  0  0  0
    8.4524   -9.3156   24.8561 H   0  0  0  0  0  0
    6.5003   -6.2114   24.6542 H   0  0  0  0  0  0
    9.6828   -7.9971   22.9742 H   0  0  0  0  0  0
    9.4895   -5.8115   25.0854 H   0  0  0  0  0  0
   10.7477   -5.7911   23.8626 H   0  0  0  0  0  0
    4.5967   -5.8869   23.1261 H   0  0  0  0  0  0
  1 21  1  0  0  0
  2 21  1  0  0  0
  3 21  1  0  0  0
  4 18  1  0  0  0
  4 30  1  0  0  0
  5 16  2  0  0  0
  5 12  1  0  0  0
  6  7  1  0  0  0
  6 11  2  0  0  0
  7 13  1  0  0  0
  7 32  1  0  0  0
  8 19  1  0  0  0
  8 25  2  0  0  0
  9 29  1  0  0  0
  9 33  1  0  0  0
  9 34  1  0  0  0
 10 14  1  0  0  0
 10 13  2  0  0  0
 10 11  1  0  0  0
 11 16  1  0  0  0
 12 15  1  0  0  0
 12 14  2  0  0  0
 13 23  1  0  0  0
 14 35  1  0  0  0
 15 17  1  0  0  0
 15 19  2  0  0  0
 16 36  1  0  0  0
 17 18  2  0  0  0
 17 37  1  0  0  0
 18 25  1  0  0  0
 19 38  1  0  0  0
 20 21  1  0  0  0
 20 24  2  0  0  0
 20 26  1  0  0  0
 22 24  1  0  0  0
 22 27  1  0  0  0
 22 28  2  0  0  0
 23 39  1  0  0  0
 23 40  1  0  0  0
 23 41  1  0  0  0
 24 42  1  0  0  0
 25 43  1  0  0  0
 26 31  2  0  0  0
 26 44  1  0  0  0
 27 29  1  0  0  0
 27 45  1  0  0  0
 27 46  1  0  0  0
 28 31  1  0  0  0
 28 47  1  0  0  0
 29 30  1  0  0  0
 29 48  1  0  0  0
 30 49  1  0  0  0
 30 50  1  0  0  0
 31 51  1  0  0  0
M  END
> <s_m_entry_id>
5630

> <s_m_entry_name>
dock_pv.25

> <s_m_Source_Path>
/home/csk/Desktop/cluster/DUD-E-result/igf1r

> <s_m_Source_File>
dock_pv.maegz

> <i_m_Source_File_Index>
25

> <chembl_id>
CHEMBL1998159

> <chembl_pref_name>
None

> <i_lp_mmshare_version>
53161

> <r_lp_tautomer_probability>
0.0448800538560646

> <s_lp_Force_Field>
OPLS_2005

> <r_lp_Energy>
42.902521

> <b_lp_Chiralities_Consistent>
1

> <s_lp_Variant>
CHEMBL1957_lig2780-4

> <s_i_glide_gridfile>
glide-grid_2oj9

> <i_i_glide_lignum>
3844

> <i_i_glide_rotatable_bonds>
7

> <r_i_docking_score>
-8.65700512998157

> <r_i_glide_ligand_efficiency>
-0.279258229999405

> <r_i_glide_ligand_efficiency_sa>
-0.877256399737036

> <r_i_glide_ligand_efficiency_ln>
-1.95241996215611

> <r_i_glide_gscore>
-8.65700512998157

> <r_i_glide_lipo>
-3.80830793372525

> <r_i_glide_hbond>
-0.298587318161349

> <r_i_glide_metal>
0

> <r_i_glide_rewards>
-2.06530756503836

> <r_i_glide_evdw>
-42.8426551818848

> <r_i_glide_ecoul>
-6.63167142868042

> <r_i_glide_erotb>
0.652081160339691

> <r_i_glide_esite>
0

> <r_i_glide_emodel>
-64.9488914339168

> <r_i_glide_energy>
-49.4743266105652

> <r_i_glide_einternal>
12.7074270248413

> <i_i_glide_confnum>
9

> <i_i_glide_posenum>
285

> <r_i_glide_eff_state_penalty>
0

> <s_user_duplicate_titles>
CHEMBL1957_lig2780

> <i_f3d_flags>
0

> <s_m_subgroup_title>
dock_pv

> <s_m_subgroupid>
dock_pv

> <b_m_subgroup_collapsed>
1

$$$$
CHEMBL1957_lig3435
                    3D
 Schrodinger Suite 2021-1.
 38 40  0  0  1  0            999 V2000
    8.0318   -4.6998   24.1668 N   0  0  0  0  0  0
    7.0769   -5.1732   23.3278 C   0  0  0  0  0  0
    6.2548   -4.3872   22.5882 N   0  0  0  0  0  0
    6.4027   -3.0436   22.6655 C   0  0  0  0  0  0
    7.3579   -2.4729   23.5084 C   0  0  0  0  0  0
    8.1647   -3.3491   24.2381 C   0  0  0  0  0  0
    5.6477   -2.2032   21.8333 N   0  0  0  0  0  0
    4.7570   -2.4375   20.7608 C   0  0  0  0  0  0
    4.6064   -1.4760   19.7325 C   0  0  0  0  0  0
    3.7731   -1.7613   18.6387 C   0  0  0  0  0  0
    3.1086   -2.9773   18.5482 C   0  0  0  0  0  0
    3.2381   -3.9150   19.5612 C   0  0  0  0  0  0
    4.0382   -3.6342   20.6607 C   0  0  0  0  0  0
    5.3268   -0.1534   19.7596 C   0  0  0  0  0  0
    5.6380    0.3460   18.5328 O   0  0  0  0  0  0
    5.6381    0.4035   20.8105 O   0  0  0  0  0  0
    6.9832   -6.5723   23.2303 N   0  0  0  0  0  0
    6.2757   -7.4295   22.3634 C   0  0  0  0  0  0
    5.5157   -6.9669   21.2849 C   0  0  0  0  0  0
    4.8380   -7.8361   20.4453 C   0  0  0  0  0  0
    4.9451   -9.2111   20.6377 C   0  0  0  0  0  0
    5.6987   -9.6983   21.7083 C   0  0  0  0  0  0
    6.3542   -8.8110   22.5688 C   0  0  0  0  0  0
    4.0865   -7.2991   19.4380 O   0  0  0  0  0  0
    7.5001   -1.4047   23.5737 H   0  0  0  0  0  0
    8.9445   -2.9748   24.8864 H   0  0  0  0  0  0
    5.9485   -1.2388   21.8681 H   0  0  0  0  0  0
    3.6390   -1.0471   17.8380 H   0  0  0  0  0  0
    2.4783   -3.1886   17.6997 H   0  0  0  0  0  0
    2.7184   -4.8598   19.5020 H   0  0  0  0  0  0
    4.0826   -4.3723   21.4382 H   0  0  0  0  0  0
    6.0932    1.2023   18.6381 H   0  0  0  0  0  0
    7.6108   -7.0436   23.8634 H   0  0  0  0  0  0
    5.4503   -5.9294   21.0376 H   0  0  0  0  0  0
    4.4380   -9.8984   19.9765 H   0  0  0  0  0  0
    5.7700  -10.7633   21.8770 H   0  0  0  0  0  0
    6.9309   -9.2068   23.3922 H   0  0  0  0  0  0
    4.2879   -7.6540   18.5508 H   0  0  0  0  0  0
  1  6  1  0  0  0
  1  2  2  0  0  0
  2 17  1  0  0  0
  2  3  1  0  0  0
  3  4  2  0  0  0
  4  7  1  0  0  0
  4  5  1  0  0  0
  5  6  2  0  0  0
  5 25  1  0  0  0
  6 26  1  0  0  0
  7  8  1  0  0  0
  7 27  1  0  0  0
  8 13  1  0  0  0
  8  9  2  0  0  0
  9 14  1  0  0  0
  9 10  1  0  0  0
 10 11  2  0  0  0
 10 28  1  0  0  0
 11 12  1  0  0  0
 11 29  1  0  0  0
 12 13  2  0  0  0
 12 30  1  0  0  0
 13 31  1  0  0  0
 14 15  1  0  0  0
 14 16  2  0  0  0
 15 32  1  0  0  0
 17 18  1  0  0  0
 17 33  1  0  0  0
 18 19  2  0  0  0
 18 23  1  0  0  0
 19 20  1  0  0  0
 19 34  1  0  0  0
 20 21  2  0  0  0
 20 24  1  0  0  0
 21 22  1  0  0  0
 21 35  1  0  0  0
 22 23  2  0  0  0
 22 36  1  0  0  0
 23 37  1  0  0  0
 24 38  1  0  0  0
M  END
> <s_m_entry_id>
5631

> <s_m_entry_name>
dock_pv.26

> <s_m_Source_Path>
/home/csk/Desktop/cluster/DUD-E-result/igf1r

> <s_m_Source_File>
dock_pv.maegz

> <i_m_Source_File_Index>
26

> <chembl_id>
CHEMBL243088

> <chembl_pref_name>
None

> <i_lp_mmshare_version>
53161

> <r_lp_tautomer_probability>
0.999999624730965

> <s_lp_Force_Field>
OPLS_2005

> <r_lp_Energy>
20.655625

> <b_lp_Chiralities_Consistent>
1

> <s_lp_Variant>
CHEMBL1957_lig3435-1

> <s_i_glide_gridfile>
glide-grid_2oj9

> <i_i_glide_lignum>
4838

> <i_i_glide_rotatable_bonds>
7

> <r_i_docking_score>
-8.63806856339478

> <r_i_glide_ligand_efficiency>
-0.359919523474783

> <r_i_glide_ligand_efficiency_sa>
-1.0381875550537

> <r_i_glide_ligand_efficiency_ln>
-2.0674861823586

> <r_i_glide_gscore>
-8.63806856339478

> <r_i_glide_lipo>
-3.20687588604764

> <r_i_glide_hbond>
-0.384142371540624

> <r_i_glide_metal>
0

> <r_i_glide_rewards>
-1.95092323311271

> <r_i_glide_evdw>
-37.5691795349121

> <r_i_glide_ecoul>
-14.1173629760742

> <r_i_glide_erotb>
0.899936350462925

> <r_i_glide_esite>
0

> <r_i_glide_emodel>
-74.374401432731

> <r_i_glide_energy>
-51.6865425109863

> <r_i_glide_einternal>
10.1691732406616

> <i_i_glide_confnum>
23

> <i_i_glide_posenum>
211

> <r_i_glide_eff_state_penalty>
0

> <s_user_duplicate_titles>
CHEMBL1957_lig3435

> <i_f3d_flags>
0

> <s_m_subgroup_title>
dock_pv

> <s_m_subgroupid>
dock_pv

> <b_m_subgroup_collapsed>
1

$$$$
CHEMBL1957_lig1
                    3D
 Schrodinger Suite 2021-1.
 54 58  0  0  1  0            999 V2000
    6.3701   -9.5658   22.0518 C   0  0  0  0  0  0
    6.5184   -8.8363   23.2398 C   0  0  0  0  0  0
    5.9839   -7.5503   23.3823 C   0  0  0  0  0  0
    5.6101   -9.0725   20.9845 C   0  0  0  0  0  0
    5.1289   -7.7714   21.1116 C   0  0  0  0  0  0
    5.3274   -6.9992   22.2727 C   0  0  0  0  0  0
    4.8278   -5.7375   22.1072 N   0  0  0  0  0  0
    4.2964   -5.7019   20.9022 C   0  0  0  0  0  0
    4.4380   -6.9292   20.2798 N   0  0  0  0  0  0
    3.7424   -4.4721   20.2378 C   0  0  0  0  0  0
    3.8495   -3.2069   20.7723 C   0  0  0  0  0  0
    3.5361   -2.0570   19.9267 C   0  0  0  0  0  0
    3.2429   -2.2794   18.6382 C   0  0  0  0  0  0
    3.1327   -3.5209   18.1064 N   0  0  0  0  0  0
    3.2379   -4.6471   18.8522 C   0  0  0  0  0  0
    2.8386   -5.6951   18.3477 O   0  0  0  0  0  0
    7.0493  -10.7883   21.8846 N   0  0  0  0  0  0
    8.3110  -11.1219   22.3255 C   0  0  0  0  0  0
    8.7219  -12.3022   21.9301 N   0  0  0  0  0  0
    7.7241  -12.7723   21.2085 C   0  0  0  0  0  0
    6.6619  -11.8860   21.1537 C   0  0  0  0  0  0
    6.1312   -6.8013   24.6890 C   0  0  0  0  0  0
    4.4375   -2.9893   21.9997 N   0  0  0  0  0  0
    5.4506   -2.0053   22.3757 C   0  0  0  0  0  0
    6.8835   -2.3882   21.9647 C   0  0  1  0  0  0
    7.6560   -3.3129   22.9083 C   0  0  0  0  0  0
    8.0805   -4.5894   22.5051 C   0  0  0  0  0  0
    8.9295   -5.3454   23.3131 C   0  0  0  0  0  0
    9.3640   -4.8339   24.5337 C   0  0  0  0  0  0
    8.9648   -3.5601   24.9374 C   0  0  0  0  0  0
    8.0840   -2.8191   24.1461 C   0  0  0  0  0  0
    6.8378   -2.8544   20.6382 O   0  0  0  0  0  0
    9.6380   -2.8555   26.3630 Cl  0  0  0  0  0  0
    7.0731   -9.2677   24.0609 H   0  0  0  0  0  0
    5.4808   -9.6302   20.0681 H   0  0  0  0  0  0
    4.1047   -7.0964   19.3370 H   0  0  0  0  0  0
    3.5605   -1.0485   20.2979 H   0  0  0  0  0  0
    2.9735   -1.5105   17.9279 H   0  0  0  0  0  0
    2.7355   -3.6561   17.1850 H   0  0  0  0  0  0
    8.8843  -10.4184   22.9109 H   0  0  0  0  0  0
    7.7767  -13.7324   20.7219 H   0  0  0  0  0  0
    5.7017  -11.9282   20.6597 H   0  0  0  0  0  0
    6.6334   -7.3896   25.4555 H   0  0  0  0  0  0
    6.6701   -5.8674   24.5576 H   0  0  0  0  0  0
    5.1404   -6.5222   25.0380 H   0  0  0  0  0  0
    4.6198   -3.8682   22.4772 H   0  0  0  0  0  0
    5.3978   -1.8252   23.4501 H   0  0  0  0  0  0
    5.2355   -1.0429   21.9143 H   0  0  0  0  0  0
    7.4549   -1.4618   21.9306 H   0  0  0  0  0  0
    7.7821   -4.9919   21.5483 H   0  0  0  0  0  0
    9.2659   -6.3188   22.9857 H   0  0  0  0  0  0
   10.0380   -5.4120   25.1467 H   0  0  0  0  0  0
    7.8160   -1.8183   24.4546 H   0  0  0  0  0  0
    5.9696   -2.6510   20.2802 H   0  0  0  0  0  0
  1  4  1  0  0  0
  1 17  1  0  0  0
  1  2  2  0  0  0
  2  3  1  0  0  0
  2 34  1  0  0  0
  3 22  1  0  0  0
  3  6  2  0  0  0
  4  5  2  0  0  0
  4 35  1  0  0  0
  5  9  1  0  0  0
  5  6  1  0  0  0
  6  7  1  0  0  0
  7  8  2  0  0  0
  8  9  1  0  0  0
  8 10  1  0  0  0
  9 36  1  0  0  0
 10 11  2  0  0  0
 10 15  1  0  0  0
 11 23  1  0  0  0
 11 12  1  0  0  0
 12 13  2  0  0  0
 12 37  1  0  0  0
 13 14  1  0  0  0
 13 38  1  0  0  0
 14 15  1  0  0  0
 14 39  1  0  0  0
 15 16  2  0  0  0
 17 18  1  0  0  0
 17 21  1  0  0  0
 18 19  2  0  0  0
 18 40  1  0  0  0
 19 20  1  0  0  0
 20 21  2  0  0  0
 20 41  1  0  0  0
 21 42  1  0  0  0
 22 43  1  0  0  0
 22 44  1  0  0  0
 22 45  1  0  0  0
 23 24  1  0  0  0
 23 46  1  0  0  0
 24 25  1  0  0  0
 24 47  1  0  0  0
 24 48  1  0  0  0
 25 26  1  0  0  0
 25 32  1  0  0  0
 25 49  1  0  0  0
 26 27  2  0  0  0
 26 31  1  0  0  0
 27 28  1  0  0  0
 27 50  1  0  0  0
 28 29  2  0  0  0
 28 51  1  0  0  0
 29 30  1  0  0  0
 29 52  1  0  0  0
 30 31  2  0  0  0
 30 33  1  0  0  0
 31 53  1  0  0  0
 32 54  1  0  0  0
M  END
> <s_m_entry_id>
5632

> <s_m_entry_name>
dock_pv.27

> <s_m_Source_Path>
/home/csk/Desktop/cluster/DUD-E-result/igf1r

> <s_m_Source_File>
dock_pv.maegz

> <i_m_Source_File_Index>
27

> <chembl_id>
CHEMBL231306

> <chembl_pref_name>
None

> <i_lp_mmshare_version>
53161

> <r_lp_tautomer_probability>
0.999206294981429

> <s_lp_Force_Field>
OPLS_2005

> <r_lp_Energy>
41.972208

> <b_lp_Chiralities_Consistent>
1

> <s_lp_Variant>
CHEMBL1957_lig1-2

> <s_i_glide_gridfile>
glide-grid_2oj9

> <i_i_glide_lignum>
2

> <i_i_glide_rotatable_bonds>
7

> <r_i_docking_score>
-8.63624856928768

> <r_i_glide_ligand_efficiency>
-0.261704502099627

> <r_i_glide_ligand_efficiency_sa>
-0.839426173820664

> <r_i_glide_ligand_efficiency_ln>
-1.92065696570764

> <r_i_glide_gscore>
-8.63624856928768

> <r_i_glide_lipo>
-4.09233002276187

> <r_i_glide_hbond>
-0.60101613029296

> <r_i_glide_metal>
0

> <r_i_glide_rewards>
-1.56061557062391

> <r_i_glide_evdw>
-41.9006118774414

> <r_i_glide_ecoul>
-4.12622404098511

> <r_i_glide_erotb>
0.331677354410897

> <r_i_glide_esite>
0

> <r_i_glide_emodel>
-63.3105561390104

> <r_i_glide_energy>
-46.0268359184265

> <r_i_glide_einternal>
7.35716867446899

> <i_i_glide_confnum>
11

> <i_i_glide_posenum>
185

> <r_i_glide_eff_state_penalty>
0

> <s_user_duplicate_titles>
CHEMBL1957_lig1,CHEMBL1957_lig75,383691,383645

> <i_f3d_flags>
0

> <s_m_subgroup_title>
dock_pv

> <s_m_subgroupid>
dock_pv

> <b_m_subgroup_collapsed>
1

$$$$
CHEMBL1957_lig2081
                    3D
 Schrodinger Suite 2021-1.
 49 53  0  0  1  0            999 V2000
    5.1777  -10.0540   20.0218 C   0  0  0  0  0  0
    5.3614   -9.0246   21.0380 N   0  0  0  0  0  0
    6.0836   -9.3404   22.1238 N   0  0  0  0  0  0
    6.0434   -8.2689   22.8774 C   0  0  0  0  0  0
    5.2797   -7.2538   22.3008 C   0  0  0  0  0  0
    4.8359   -7.7481   21.0858 C   0  0  0  0  0  0
    4.0380   -7.2443   20.0831 N   0  0  0  0  0  0
    3.6380   -5.9272   19.8295 C   0  0  0  0  0  0
    3.0377   -5.7660   18.6299 N   0  0  0  0  0  0
    2.9048   -4.4948   18.1790 C   0  0  0  0  0  0
    3.3697   -3.3834   18.8813 C   0  0  0  0  0  0
    3.2380   -1.9497   18.3873 C   0  0  0  0  0  0
    4.4996   -1.0929   18.6425 C   0  0  0  0  0  0
    4.9845   -1.3222   20.0633 C   0  0  0  0  0  0
    5.6380   -0.4508   20.7980 N   0  0  0  0  0  0
    5.8675   -1.0989   21.9456 N   0  0  0  0  0  0
    6.3838   -0.3709   23.0944 C   0  0  0  0  0  0
    5.4420   -2.4039   21.9212 C   0  0  0  0  0  0
    5.7308   -3.3701   23.0380 C   0  0  0  0  0  0
    7.0948   -4.0243   23.0196 C   0  0  0  0  0  0
    7.5693   -4.6252   24.1882 C   0  0  0  0  0  0
    8.8200   -5.2324   24.2030 C   0  0  0  0  0  0
    9.5776   -5.2540   23.0360 C   0  0  0  0  0  0
    9.0829   -4.6940   21.8609 C   0  0  0  0  0  0
    7.8471   -4.0765   21.8483 C   0  0  0  0  0  0
    4.7470   -2.5333   20.7325 C   0  0  0  0  0  0
    3.9816   -3.6540   20.1137 C   0  0  0  0  0  0
    4.0385   -4.9103   20.6380 N   0  0  0  0  0  0
    4.4381  -10.7747   20.3703 H   0  0  0  0  0  0
    4.8378   -9.6139   19.0848 H   0  0  0  0  0  0
    6.1201  -10.5718   19.8397 H   0  0  0  0  0  0
    6.5464   -8.2252   23.8329 H   0  0  0  0  0  0
    5.0698   -6.2889   22.7256 H   0  0  0  0  0  0
    3.7903   -7.8355   19.3032 H   0  0  0  0  0  0
    2.4380   -4.3882   17.2129 H   0  0  0  0  0  0
    2.4380   -1.5110   18.9705 H   0  0  0  0  0  0
    2.9348   -1.9114   17.3403 H   0  0  0  0  0  0
    4.2503   -0.0540   18.5058 H   0  0  0  0  0  0
    5.2714   -1.2917   17.9050 H   0  0  0  0  0  0
    7.2839   -0.8594   23.4603 H   0  0  0  0  0  0
    6.5734    0.6739   22.8472 H   0  0  0  0  0  0
    5.6380   -0.3958   23.8885 H   0  0  0  0  0  0
    5.0336   -4.1993   23.0314 H   0  0  0  0  0  0
    5.6380   -2.8606   23.9984 H   0  0  0  0  0  0
    6.9661   -4.6291   25.0813 H   0  0  0  0  0  0
    9.1954   -5.6845   25.1098 H   0  0  0  0  0  0
   10.5543   -5.7108   23.0381 H   0  0  0  0  0  0
    9.6380   -4.7103   20.9478 H   0  0  0  0  0  0
    7.4870   -3.6485   20.9246 H   0  0  0  0  0  0
  1  2  1  0  0  0
  1 29  1  0  0  0
  1 30  1  0  0  0
  1 31  1  0  0  0
  2  3  1  0  0  0
  2  6  1  0  0  0
  3  4  2  0  0  0
  4  5  1  0  0  0
  4 32  1  0  0  0
  5  6  2  0  0  0
  5 33  1  0  0  0
  6  7  1  0  0  0
  7  8  1  0  0  0
  7 34  1  0  0  0
  8  9  2  0  0  0
  8 28  1  0  0  0
  9 10  1  0  0  0
 10 11  2  0  0  0
 10 35  1  0  0  0
 11 12  1  0  0  0
 11 27  1  0  0  0
 12 13  1  0  0  0
 12 36  1  0  0  0
 12 37  1  0  0  0
 13 14  1  0  0  0
 13 38  1  0  0  0
 13 39  1  0  0  0
 14 15  2  0  0  0
 14 26  1  0  0  0
 15 16  1  0  0  0
 16 17  1  0  0  0
 16 18  1  0  0  0
 17 40  1  0  0  0
 17 41  1  0  0  0
 17 42  1  0  0  0
 18 19  1  0  0  0
 18 26  2  0  0  0
 19 20  1  0  0  0
 19 43  1  0  0  0
 19 44  1  0  0  0
 20 21  2  0  0  0
 20 25  1  0  0  0
 21 22  1  0  0  0
 21 45  1  0  0  0
 22 23  2  0  0  0
 22 46  1  0  0  0
 23 24  1  0  0  0
 23 47  1  0  0  0
 24 25  2  0  0  0
 24 48  1  0  0  0
 25 49  1  0  0  0
 26 27  1  0  0  0
 27 28  2  0  0  0
M  END
> <s_m_entry_id>
5634

> <s_m_entry_name>
dock_pv.29

> <s_m_Source_Path>
/home/csk/Desktop/cluster/DUD-E-result/igf1r

> <s_m_Source_File>
dock_pv.maegz

> <i_m_Source_File_Index>
29

> <chembl_id>
CHEMBL3652857

> <chembl_pref_name>
None

> <i_lp_mmshare_version>
53161

> <r_lp_tautomer_probability>
0.999999987636

> <s_lp_Force_Field>
OPLS_2005

> <r_lp_Energy>
6.46213

> <b_lp_Chiralities_Consistent>
1

> <s_lp_Variant>
CHEMBL1957_lig2081-1

> <s_i_glide_gridfile>
glide-grid_2oj9

> <i_i_glide_lignum>
3046

> <i_i_glide_rotatable_bonds>
4

> <r_i_docking_score>
-8.62460123418823

> <r_i_glide_ligand_efficiency>
-0.30802147264958

> <r_i_glide_ligand_efficiency_sa>
-0.935334605909705

> <r_i_glide_ligand_efficiency_ln>
-1.99081119414638

> <r_i_glide_gscore>
-8.62460123418823

> <r_i_glide_lipo>
-3.46220534569104

> <r_i_glide_hbond>
-0.214775641545534

> <r_i_glide_metal>
0

> <r_i_glide_rewards>
-3.00184552859122

> <r_i_glide_evdw>
-37.8557777404785

> <r_i_glide_ecoul>
-2.96492648124695

> <r_i_glide_erotb>
0.391753140850533

> <r_i_glide_esite>
0

> <r_i_glide_emodel>
-53.1760969087394

> <r_i_glide_energy>
-40.8207042217255

> <r_i_glide_einternal>
2.43105816841125

> <i_i_glide_confnum>
2

> <i_i_glide_posenum>
213

> <r_i_glide_eff_state_penalty>
0

> <s_user_duplicate_titles>
CHEMBL1957_lig2081

> <i_f3d_flags>
0

> <s_m_subgroup_title>
dock_pv

> <s_m_subgroupid>
dock_pv

> <b_m_subgroup_collapsed>
1

$$$$
CHEMBL1957_lig2869
                    3D
 Schrodinger Suite 2021-1.
 26 28  0  0  1  0            999 V2000
    2.8380   -5.6540   18.3387 O   0  0  0  0  0  0
    3.1301   -3.3928   18.2878 N   0  0  0  0  0  0
    4.8380   -6.4540   23.0380 N   0  0  0  0  0  0
    3.9839   -4.4289   20.0857 C   0  0  0  0  0  0
    4.3588   -3.0101   20.1257 C   0  0  0  0  0  0
    3.8073   -2.4320   18.9995 C   0  0  0  0  0  0
    3.2380   -4.6077   18.8462 C   0  0  0  0  0  0
    4.2810   -5.5079   20.8505 C   0  0  0  0  0  0
    5.1500   -2.2356   20.9804 C   0  0  0  0  0  0
    5.1580   -5.6113   22.0013 C   0  0  0  0  0  0
    4.0380   -1.0982   18.6733 C   0  0  0  0  0  0
    5.4359   -0.9097   20.6380 C   0  0  0  0  0  0
    4.8774   -0.3398   19.4912 C   0  0  0  0  0  0
    6.4056   -5.0745   22.3072 C   0  0  0  0  0  0
    5.8108   -6.4081   24.0033 C   0  0  0  0  0  0
    6.8006   -5.5482   23.5629 C   0  0  0  0  0  0
    2.6807   -3.2442   17.3925 H   0  0  0  0  0  0
    3.9949   -7.0070   23.0930 H   0  0  0  0  0  0
    3.8519   -6.4656   20.5833 H   0  0  0  0  0  0
    5.5809   -2.6437   21.8797 H   0  0  0  0  0  0
    3.6209   -0.6586   17.7811 H   0  0  0  0  0  0
    6.0854   -0.3194   21.2675 H   0  0  0  0  0  0
    5.1086    0.6847   19.2330 H   0  0  0  0  0  0
    6.9798   -4.4084   21.6796 H   0  0  0  0  0  0
    5.7171   -6.9871   24.9108 H   0  0  0  0  0  0
    7.7157   -5.3035   24.0843 H   0  0  0  0  0  0
  1  7  2  0  0  0
  2  6  1  0  0  0
  2  7  1  0  0  0
  2 17  1  0  0  0
  3 10  1  0  0  0
  3 15  1  0  0  0
  3 18  1  0  0  0
  4  5  1  0  0  0
  4  7  1  0  0  0
  4  8  2  3  0  0
  5  6  1  0  0  0
  5  9  2  0  0  0
  6 11  2  0  0  0
  8 10  1  0  0  0
  8 19  1  0  0  0
  9 12  1  0  0  0
  9 20  1  0  0  0
 10 14  2  0  0  0
 11 13  1  0  0  0
 11 21  1  0  0  0
 12 13  2  0  0  0
 12 22  1  0  0  0
 13 23  1  0  0  0
 14 16  1  0  0  0
 14 24  1  0  0  0
 15 16  2  0  0  0
 15 25  1  0  0  0
 16 26  1  0  0  0
M  END
> <s_m_entry_id>
5635

> <s_m_entry_name>
dock_pv.30

> <s_m_Source_Path>
/home/csk/Desktop/cluster/DUD-E-result/igf1r

> <s_m_Source_File>
dock_pv.maegz

> <i_m_Source_File_Index>
30

> <chembl_id>
CHEMBL1996176

> <chembl_pref_name>
None

> <i_lp_mmshare_version>
53161

> <r_lp_tautomer_probability>
1

> <s_lp_Force_Field>
OPLS_2005

> <r_lp_Energy>
28.854045

> <b_lp_Chiralities_Consistent>
1

> <s_lp_Variant>
CHEMBL1957_lig2869-1

> <s_i_glide_gridfile>
glide-grid_2oj9

> <i_i_glide_lignum>
3969

> <i_i_glide_rotatable_bonds>
1

> <r_i_docking_score>
-8.61815769602642

> <r_i_glide_ligand_efficiency>
-0.538634856001652

> <r_i_glide_ligand_efficiency_sa>
-1.35727478531276

> <r_i_glide_ligand_efficiency_ln>
-2.28441484893955

> <r_i_glide_gscore>
-8.61815769602642

> <r_i_glide_lipo>
-2.42877446951599

> <r_i_glide_hbond>
-0.580488890835343

> <r_i_glide_metal>
0

> <r_i_glide_rewards>
-3.58736234848485

> <r_i_glide_evdw>
-26.1888580322266

> <r_i_glide_ecoul>
-4.74726057052612

> <r_i_glide_erotb>
0

> <r_i_glide_esite>
0

> <r_i_glide_emodel>
-46.3684936246342

> <r_i_glide_energy>
-30.9361186027527

> <r_i_glide_einternal>
1.18089807033539

> <i_i_glide_confnum>
1

> <i_i_glide_posenum>
18

> <r_i_glide_eff_state_penalty>
0

> <s_user_duplicate_titles>
CHEMBL1957_lig2869

> <i_f3d_flags>
0

> <s_m_subgroup_title>
dock_pv

> <s_m_subgroupid>
dock_pv

> <b_m_subgroup_collapsed>
1

$$$$
CHEMBL1957_lig2780
                    3D
 Schrodinger Suite 2021-1.
 51 54  0  0  1  0            999 V2000
    4.0382   -7.2520   22.4490 F   0  0  0  0  0  0
    5.4607   -6.4687   21.0380 F   0  0  0  0  0  0
    4.0380   -7.9358   20.3731 F   0  0  0  0  0  0
    9.1945   -4.8910   23.7995 O   0  0  0  0  0  0
    5.6383   -1.0212   20.9077 N   0  0  0  0  0  0
    3.2578   -1.6568   18.1592 N   0  0  0  0  0  0
    2.8381   -2.9195   17.9903 N   0  0  0  0  0  0
    7.5503   -1.7648   24.6411 N   0  0  0  0  0  0
   10.8380   -7.1710   24.2381 N   0  0  0  0  0  0
    4.0441   -3.0520   19.8307 C   0  0  0  0  0  0
    4.0469   -1.7433   19.2604 C   0  0  0  0  0  0
    5.6270   -2.2706   21.4485 C   0  0  0  0  0  0
    3.2548   -3.8241   18.9381 C   0  0  0  0  0  0
    4.8084   -3.3009   20.9797 C   0  0  0  0  0  0
    6.5803   -2.5081   22.5577 C   0  0  0  0  0  0
    4.8506   -0.7530   19.8378 C   0  0  0  0  0  0
    7.4135   -3.6405   22.5836 C   0  0  0  0  0  0
    8.3207   -3.8331   23.6421 C   0  0  0  0  0  0
    6.6872   -1.6051   23.6161 C   0  0  0  0  0  0
    5.7995   -8.6523   21.7550 C   0  0  0  0  0  0
    4.7981   -7.5647   21.4021 C   0  0  0  0  0  0
    8.0293   -9.1394   22.5674 C   0  0  0  0  0  0
    2.9655   -5.3030   18.8604 C   0  0  0  0  0  0
    6.9225   -8.2938   22.4952 C   0  0  0  0  0  0
    8.3549   -2.8556   24.6376 C   0  0  0  0  0  0
    5.6941   -9.9546   21.2532 C   0  0  0  0  0  0
    9.3852   -8.6603   23.0796 C   0  0  0  0  0  0
    7.9154  -10.4412   22.0640 C   0  0  0  0  0  0
    9.4751   -7.2654   23.7594 C   0  0  2  0  0  0
    9.2343   -5.9954   22.8901 C   0  0  0  0  0  0
    6.7401  -10.8568   21.4390 C   0  0  0  0  0  0
    2.2519   -3.1578   17.1875 H   0  0  0  0  0  0
   11.4209   -7.2375   23.3908 H   0  0  0  0  0  0
   10.9735   -6.2268   24.5747 H   0  0  0  0  0  0
    4.8273   -4.2767   21.4352 H   0  0  0  0  0  0
    4.9096    0.2427   19.4219 H   0  0  0  0  0  0
    7.3524   -4.3346   21.7619 H   0  0  0  0  0  0
    6.0736   -0.7185   23.6517 H   0  0  0  0  0  0
    3.8853   -5.8836   18.7890 H   0  0  0  0  0  0
    2.4399   -5.6538   19.7473 H   0  0  0  0  0  0
    2.3835   -5.5698   17.9806 H   0  0  0  0  0  0
    6.9343   -7.3148   22.9419 H   0  0  0  0  0  0
    9.0468   -2.9460   25.4614 H   0  0  0  0  0  0
    4.8227  -10.2638   20.6928 H   0  0  0  0  0  0
    9.7299   -9.4173   23.7882 H   0  0  0  0  0  0
   10.0796   -8.6993   22.2377 H   0  0  0  0  0  0
    8.7518  -11.1233   22.1266 H   0  0  0  0  0  0
    8.8039   -7.2464   24.6202 H   0  0  0  0  0  0
   10.0379   -5.8231   22.1761 H   0  0  0  0  0  0
    8.3519   -6.0808   22.2699 H   0  0  0  0  0  0
    6.6640  -11.8575   21.0429 H   0  0  0  0  0  0
  1 21  1  0  0  0
  2 21  1  0  0  0
  3 21  1  0  0  0
  4 18  1  0  0  0
  4 30  1  0  0  0
  5 16  2  0  0  0
  5 12  1  0  0  0
  6  7  1  0  0  0
  6 11  2  0  0  0
  7 13  1  0  0  0
  7 32  1  0  0  0
  8 19  1  0  0  0
  8 25  2  0  0  0
  9 29  1  0  0  0
  9 33  1  0  0  0
  9 34  1  0  0  0
 10 14  1  0  0  0
 10 13  2  0  0  0
 10 11  1  0  0  0
 11 16  1  0  0  0
 12 15  1  0  0  0
 12 14  2  0  0  0
 13 23  1  0  0  0
 14 35  1  0  0  0
 15 17  1  0  0  0
 15 19  2  0  0  0
 16 36  1  0  0  0
 17 18  2  0  0  0
 17 37  1  0  0  0
 18 25  1  0  0  0
 19 38  1  0  0  0
 20 21  1  0  0  0
 20 24  2  0  0  0
 20 26  1  0  0  0
 22 24  1  0  0  0
 22 27  1  0  0  0
 22 28  2  0  0  0
 23 39  1  0  0  0
 23 40  1  0  0  0
 23 41  1  0  0  0
 24 42  1  0  0  0
 25 43  1  0  0  0
 26 31  2  0  0  0
 26 44  1  0  0  0
 27 29  1  0  0  0
 27 45  1  0  0  0
 27 46  1  0  0  0
 28 31  1  0  0  0
 28 47  1  0  0  0
 29 30  1  0  0  0
 29 48  1  0  0  0
 30 49  1  0  0  0
 30 50  1  0  0  0
 31 51  1  0  0  0
M  END
> <s_m_entry_id>
5636

> <s_m_entry_name>
dock_pv.31

> <s_m_Source_Path>
/home/csk/Desktop/cluster/DUD-E-result/igf1r

> <s_m_Source_File>
dock_pv.maegz

> <i_m_Source_File_Index>
31

> <chembl_id>
CHEMBL1998159

> <chembl_pref_name>
None

> <i_lp_mmshare_version>
53161

> <r_lp_tautomer_probability>
0.0448800538560646

> <s_lp_Force_Field>
OPLS_2005

> <r_lp_Energy>
40.770312

> <b_lp_Chiralities_Consistent>
1

> <s_lp_Variant>
CHEMBL1957_lig2780-3

> <s_i_glide_gridfile>
glide-grid_2oj9

> <i_i_glide_lignum>
3843

> <i_i_glide_rotatable_bonds>
7

> <r_i_docking_score>
-8.51926656390555

> <r_i_glide_ligand_efficiency>
-0.274815050448566

> <r_i_glide_ligand_efficiency_sa>
-0.863298681476904

> <r_i_glide_ligand_efficiency_ln>
-1.92135569432586

> <r_i_glide_gscore>
-8.51926656390555

> <r_i_glide_lipo>
-3.44289447292298

> <r_i_glide_hbond>
-0.456

> <r_i_glide_metal>
0

> <r_i_glide_rewards>
-2.16836597009515

> <r_i_glide_evdw>
-38.5019683837891

> <r_i_glide_ecoul>
-7.85992574691772

> <r_i_glide_erotb>
0.652081160339691

> <r_i_glide_esite>
0

> <r_i_glide_emodel>
-65.7112777355374

> <r_i_glide_energy>
-46.3618941307068

> <r_i_glide_einternal>
4.88654804229736

> <i_i_glide_confnum>
11

> <i_i_glide_posenum>
349

> <r_i_glide_eff_state_penalty>
0

> <s_user_duplicate_titles>
CHEMBL1957_lig2780

> <i_f3d_flags>
0

> <s_m_subgroup_title>
dock_pv

> <s_m_subgroupid>
dock_pv

> <b_m_subgroup_collapsed>
1

$$$$
CHEMBL1957_lig1356
                    3D
 Schrodinger Suite 2021-1.
 44 47  0  0  1  0            999 V2000
    3.5634   -2.9346   19.1310 C   0  0  0  0  0  0
    3.1502   -3.9000   18.2127 C   0  0  0  0  0  0
    3.1556   -5.2234   18.4828 N   0  0  0  0  0  0
    3.6363   -5.5806   19.6945 C   0  0  0  0  0  0
    4.0170   -4.7170   20.6638 N   0  0  0  0  0  0
    3.9976   -3.3865   20.3810 C   0  0  0  0  0  0
    4.4986   -2.4626   21.3126 N   0  0  0  0  0  0
    4.0309   -6.9194   19.7653 N   0  0  0  0  0  0
    5.5920   -2.5977   22.1393 C   0  0  0  0  0  0
    6.5583   -3.6149   22.2222 C   0  0  0  0  0  0
    7.4829   -3.2332   23.1829 C   0  0  0  0  0  0
    7.0116   -2.0141   23.5900 N   0  0  0  0  0  0
    5.8781   -1.6344   22.9875 N   0  0  0  0  0  0
    8.7360   -3.8866   23.7314 C   0  0  0  0  0  0
    9.3582   -3.3610   25.0153 C   0  0  0  0  0  0
    8.6810   -4.7204   24.9753 C   0  0  0  0  0  0
    3.6284   -1.0991   18.6292 Br  0  0  0  0  0  0
    4.7309   -7.7140   20.6823 C   0  0  0  0  0  0
    4.9350   -9.0477   20.3165 C   0  0  0  0  0  0
    5.6197   -9.9131   21.1614 C   0  0  0  0  0  0
    6.0979   -9.4483   22.3922 C   0  0  0  0  0  0
    5.8767   -8.1201   22.7726 C   0  0  0  0  0  0
    5.1988   -7.2599   21.9184 C   0  0  0  0  0  0
    5.8267  -11.3614   20.7631 C   0  0  0  0  0  0
    6.3639   -7.6078   24.1095 C   0  0  0  0  0  0
    2.8483   -3.6209   17.2192 H   0  0  0  0  0  0
    4.2462   -1.5200   21.0502 H   0  0  0  0  0  0
    3.8997   -7.3826   18.8731 H   0  0  0  0  0  0
    6.6021   -4.5186   21.6335 H   0  0  0  0  0  0
    7.4951   -1.4151   24.2424 H   0  0  0  0  0  0
    9.3982   -4.2940   22.9609 H   0  0  0  0  0  0
   10.4365   -3.2661   25.0440 H   0  0  0  0  0  0
    8.9038   -2.5290   25.5414 H   0  0  0  0  0  0
    7.7072   -4.8487   25.4361 H   0  0  0  0  0  0
    9.2806   -5.6348   25.0037 H   0  0  0  0  0  0
    4.5628   -9.4100   19.3687 H   0  0  0  0  0  0
    6.6187  -10.1204   23.0571 H   0  0  0  0  0  0
    5.0408   -6.2480   22.2463 H   0  0  0  0  0  0
    4.8919  -11.7868   20.3952 H   0  0  0  0  0  0
    6.1409  -11.9773   21.6059 H   0  0  0  0  0  0
    6.5649  -11.4319   19.9621 H   0  0  0  0  0  0
    6.9076   -6.6708   23.9724 H   0  0  0  0  0  0
    5.5074   -7.3931   24.7510 H   0  0  0  0  0  0
    7.0331   -8.3115   24.6093 H   0  0  0  0  0  0
  1  2  2  0  0  0
  1  6  1  0  0  0
  1 17  1  0  0  0
  2  3  1  0  0  0
  2 26  1  0  0  0
  3  4  2  0  0  0
  4  5  1  0  0  0
  4  8  1  0  0  0
  5  6  2  0  0  0
  6  7  1  0  0  0
  7  9  1  0  0  0
  7 27  1  0  0  0
  8 18  1  0  0  0
  8 28  1  0  0  0
  9 13  2  0  0  0
  9 10  1  0  0  0
 10 11  2  0  0  0
 10 29  1  0  0  0
 11 14  1  0  0  0
 11 12  1  0  0  0
 12 30  1  0  0  0
 12 13  1  0  0  0
 14 15  1  0  0  0
 14 16  1  0  0  0
 14 31  1  0  0  0
 15 16  1  0  0  0
 15 32  1  0  0  0
 15 33  1  0  0  0
 16 34  1  0  0  0
 16 35  1  0  0  0
 18 19  2  0  0  0
 18 23  1  0  0  0
 19 20  1  0  0  0
 19 36  1  0  0  0
 20 21  2  0  0  0
 20 24  1  0  0  0
 21 22  1  0  0  0
 21 37  1  0  0  0
 22 23  2  0  0  0
 22 25  1  0  0  0
 23 38  1  0  0  0
 24 39  1  0  0  0
 24 40  1  0  0  0
 24 41  1  0  0  0
 25 42  1  0  0  0
 25 43  1  0  0  0
 25 44  1  0  0  0
M  END
> <s_m_entry_id>
5637

> <s_m_entry_name>
dock_pv.32

> <s_m_Source_Path>
/home/csk/Desktop/cluster/DUD-E-result/igf1r

> <s_m_Source_File>
dock_pv.maegz

> <i_m_Source_File_Index>
32

> <chembl_id>
CHEMBL3928105

> <chembl_pref_name>
None

> <i_lp_mmshare_version>
53161

> <r_lp_tautomer_probability>
0.842599949391031

> <s_lp_Force_Field>
OPLS_2005

> <r_lp_Energy>
11.277791

> <b_lp_Chiralities_Consistent>
1

> <s_lp_Variant>
CHEMBL1957_lig1356-1

> <s_i_glide_gridfile>
glide-grid_2oj9

> <i_i_glide_lignum>
1846

> <i_i_glide_rotatable_bonds>
5

> <r_i_docking_score>
-8.51330886032762

> <r_i_glide_ligand_efficiency>
-0.340532354413105

> <r_i_glide_ligand_efficiency_sa>
-0.99572264367094

> <r_i_glide_ligand_efficiency_ln>
-2.01790932317701

> <r_i_glide_gscore>
-8.51330886032762

> <r_i_glide_lipo>
-3.57912030551025

> <r_i_glide_hbond>
-0.381318271944244

> <r_i_glide_metal>
0

> <r_i_glide_rewards>
-2.15727180350328

> <r_i_glide_evdw>
-40.4595069885254

> <r_i_glide_ecoul>
-5.35167217254639

> <r_i_glide_erotb>
0.430127695938386

> <r_i_glide_esite>
0

> <r_i_glide_emodel>
-64.7881765789272

> <r_i_glide_energy>
-45.8111791610718

> <r_i_glide_einternal>
7.93075370788574

> <i_i_glide_confnum>
42

> <i_i_glide_posenum>
178

> <r_i_glide_eff_state_penalty>
0

> <s_user_duplicate_titles>
CHEMBL1957_lig1356

> <i_f3d_flags>
0

> <s_m_subgroup_title>
dock_pv

> <s_m_subgroupid>
dock_pv

> <b_m_subgroup_collapsed>
1

$$$$
CHEMBL1957_lig3338
                    3D
 Schrodinger Suite 2021-1.
 41 43  0  0  1  0            999 V2000
    2.8380   -5.4293   18.4989 O   0  0  0  0  0  0
    9.2004   -8.3472   22.0811 O   0  0  0  0  0  0
   10.4380   -7.5329   23.8380 O   0  0  0  0  0  0
    3.1084   -3.1598   18.4332 N   0  0  0  0  0  0
    6.5999   -4.7116   21.8426 N   0  0  0  0  0  0
    4.0380   -4.1927   20.1921 C   0  0  0  0  0  0
    4.4380   -2.7790   20.1992 C   0  0  0  0  0  0
    5.4388   -5.4275   21.9326 C   0  0  0  0  0  0
    3.8502   -2.2056   19.0897 C   0  0  0  0  0  0
    3.2380   -4.3748   18.9888 C   0  0  0  0  0  0
    5.6090   -6.3346   22.9769 C   0  0  0  0  0  0
    4.4026   -5.2778   20.9223 C   0  0  0  0  0  0
    6.8887   -6.1120   23.5353 C   0  0  0  0  0  0
    7.4848   -5.0828   22.8118 C   0  0  0  0  0  0
    5.2725   -2.0023   21.0133 C   0  0  0  0  0  0
    4.1063   -0.8854   18.7259 C   0  0  0  0  0  0
    7.5160   -6.8747   24.6899 C   0  0  0  0  0  0
    5.5778   -0.6901   20.6380 C   0  0  0  0  0  0
    4.9938   -0.1318   19.4978 C   0  0  0  0  0  0
    4.6058   -7.3637   23.4380 C   0  0  0  0  0  0
    8.8370   -4.4148   22.9146 C   0  0  0  0  0  0
    8.1803   -8.2128   24.2873 C   0  0  0  0  0  0
    9.3137   -8.0560   23.2700 C   0  0  0  0  0  0
   11.0996   -7.3621   23.1439 H   0  0  0  0  0  0
    2.6275   -3.0135   17.5557 H   0  0  0  0  0  0
    6.7836   -4.0104   21.1391 H   0  0  0  0  0  0
    3.9163   -6.2239   20.7203 H   0  0  0  0  0  0
    5.7170   -2.3886   21.9155 H   0  0  0  0  0  0
    3.6673   -0.4561   17.8380 H   0  0  0  0  0  0
    6.7509   -7.0818   25.4380 H   0  0  0  0  0  0
    8.2463   -6.2590   25.2167 H   0  0  0  0  0  0
    6.2583   -0.1009   21.2350 H   0  0  0  0  0  0
    5.2380    0.8816   19.2095 H   0  0  0  0  0  0
    3.6380   -7.2540   22.9542 H   0  0  0  0  0  0
    4.9662   -8.3790   23.2728 H   0  0  0  0  0  0
    4.4380   -7.2861   24.5111 H   0  0  0  0  0  0
    9.4415   -4.8203   23.7255 H   0  0  0  0  0  0
    9.4206   -4.5337   22.0010 H   0  0  0  0  0  0
    8.7430   -3.3448   23.0990 H   0  0  0  0  0  0
    7.4320   -8.8685   23.8407 H   0  0  0  0  0  0
    8.5615   -8.7331   25.1663 H   0  0  0  0  0  0
  1 10  2  0  0  0
  2 23  2  0  0  0
  3 23  1  0  0  0
  3 24  1  0  0  0
  4  9  1  0  0  0
  4 10  1  0  0  0
  4 25  1  0  0  0
  5  8  1  0  0  0
  5 14  1  0  0  0
  5 26  1  0  0  0
  6  7  1  0  0  0
  6 10  1  0  0  0
  6 12  2  3  0  0
  7  9  1  0  0  0
  7 15  2  0  0  0
  8 11  2  0  0  0
  8 12  1  0  0  0
  9 16  2  0  0  0
 11 13  1  0  0  0
 11 20  1  0  0  0
 12 27  1  0  0  0
 13 14  2  0  0  0
 13 17  1  0  0  0
 14 21  1  0  0  0
 15 18  1  0  0  0
 15 28  1  0  0  0
 16 19  1  0  0  0
 16 29  1  0  0  0
 17 22  1  0  0  0
 17 30  1  0  0  0
 17 31  1  0  0  0
 18 19  2  0  0  0
 18 32  1  0  0  0
 19 33  1  0  0  0
 20 34  1  0  0  0
 20 35  1  0  0  0
 20 36  1  0  0  0
 21 37  1  0  0  0
 21 38  1  0  0  0
 21 39  1  0  0  0
 22 23  1  0  0  0
 22 40  1  0  0  0
 22 41  1  0  0  0
M  END
> <s_m_entry_id>
5638

> <s_m_entry_name>
dock_pv.33

> <s_m_Source_Path>
/home/csk/Desktop/cluster/DUD-E-result/igf1r

> <s_m_Source_File>
dock_pv.maegz

> <i_m_Source_File_Index>
33

> <chembl_id>
CHEMBL2007064

> <chembl_pref_name>
None

> <i_lp_mmshare_version>
53161

> <r_lp_tautomer_probability>
1

> <s_lp_Force_Field>
OPLS_2005

> <r_lp_Energy>
28.688211

> <b_lp_Chiralities_Consistent>
1

> <s_lp_Variant>
CHEMBL1957_lig3338-2

> <s_i_glide_gridfile>
glide-grid_2oj9

> <i_i_glide_lignum>
4694

> <i_i_glide_rotatable_bonds>
5

> <r_i_docking_score>
-8.50970438977924

> <r_i_glide_ligand_efficiency>
-0.369987147381706

> <r_i_glide_ligand_efficiency_sa>
-1.05219423030859

> <r_i_glide_ligand_efficiency_ln>
-2.05772368318192

> <r_i_glide_gscore>
-8.50970438977924

> <r_i_glide_lipo>
-2.5045216981192

> <r_i_glide_hbond>
-0.413334575449709

> <r_i_glide_metal>
0

> <r_i_glide_rewards>
-2.89642115151515

> <r_i_glide_evdw>
-33.8178482055664

> <r_i_glide_ecoul>
-10.0464477539062

> <r_i_glide_erotb>
0.538672750219072

> <r_i_glide_esite>
-0.0362401415499909

> <r_i_glide_emodel>
-57.8852522976196

> <r_i_glide_energy>
-43.8642959594727

> <r_i_glide_einternal>
3.90855193138123

> <i_i_glide_confnum>
58

> <i_i_glide_posenum>
329

> <r_i_glide_eff_state_penalty>
0

> <s_user_duplicate_titles>
CHEMBL1957_lig3338

> <i_f3d_flags>
0

> <s_m_subgroup_title>
dock_pv

> <s_m_subgroupid>
dock_pv

> <b_m_subgroup_collapsed>
1

$$$$
CHEMBL1957_lig3340
                    3D
 Schrodinger Suite 2021-1.
 49 52  0  0  1  0            999 V2000
    5.7512   -9.8602   20.6614 Cl  0  0  0  0  0  0
    4.0380   -7.1822   20.9715 Cl  0  0  0  0  0  0
    8.9006   -5.8887   23.4627 O   0  0  0  0  0  0
    3.6389   -1.2538   18.3387 N   0  0  0  0  0  0
    3.1104   -2.4554   18.0675 N   0  0  0  0  0  0
    8.1760   -2.4545   24.6384 N   0  0  0  0  0  0
   10.0382   -8.5223   23.2982 N   0  0  0  0  0  0
    4.3092   -2.8543   19.8764 C   0  0  0  0  0  0
    4.4067   -1.4997   19.4375 C   0  0  0  0  0  0
    5.9668   -2.4136   21.5814 C   0  0  0  0  0  0
    5.0502   -3.2867   20.9867 C   0  0  0  0  0  0
    3.4527   -3.4694   18.9251 C   0  0  0  0  0  0
    6.9043   -2.9037   22.6290 C   0  0  0  0  0  0
    5.2572   -0.6035   20.0927 C   0  0  0  0  0  0
    6.0379   -1.0866   21.1402 C   0  0  0  0  0  0
    7.4864   -4.1829   22.5779 C   0  0  0  0  0  0
    8.3958   -4.6052   23.5555 C   0  0  0  0  0  0
    7.2797   -2.0850   23.6972 C   0  0  0  0  0  0
    8.7216   -3.6906   24.5632 C   0  0  0  0  0  0
    3.0066   -4.8938   18.7151 C   0  0  0  0  0  0
    7.1380   -8.2684   24.0676 C   0  0  0  0  0  0
    5.9663   -8.8017   22.0142 C   0  0  0  0  0  0
    5.1981   -7.6399   22.1598 C   0  0  0  0  0  0
    6.9316   -9.1114   22.9715 C   0  0  0  0  0  0
    9.6577   -7.9569   24.5818 C   0  0  2  0  0  0
    8.2870   -8.5304   25.0340 C   0  0  0  0  0  0
    9.7205   -6.4106   24.5166 C   0  0  0  0  0  0
    6.3205   -7.1482   24.2381 C   0  0  0  0  0  0
    5.3582   -6.8329   23.2838 C   0  0  0  0  0  0
    2.5135   -2.5921   17.2575 H   0  0  0  0  0  0
    9.3460   -8.2112   22.6323 H   0  0  0  0  0  0
   10.9051   -8.0984   22.9671 H   0  0  0  0  0  0
    4.9910   -4.3186   21.3014 H   0  0  0  0  0  0
    5.3620    0.4181   19.7530 H   0  0  0  0  0  0
    6.7495   -0.4109   21.5903 H   0  0  0  0  0  0
    7.2456   -4.8618   21.7721 H   0  0  0  0  0  0
    6.8786   -1.0894   23.8096 H   0  0  0  0  0  0
    9.4414   -3.9095   25.3342 H   0  0  0  0  0  0
    3.8518   -5.5657   18.5717 H   0  0  0  0  0  0
    2.4394   -5.2650   19.5681 H   0  0  0  0  0  0
    2.3897   -4.9990   17.8278 H   0  0  0  0  0  0
    7.5473   -9.9900   22.8431 H   0  0  0  0  0  0
   10.4050   -8.2876   25.3037 H   0  0  0  0  0  0
    8.0272   -8.1309   26.0160 H   0  0  0  0  0  0
    8.3723   -9.6073   25.1873 H   0  0  0  0  0  0
    9.4155   -6.0425   25.4967 H   0  0  0  0  0  0
   10.7470   -6.0785   24.3485 H   0  0  0  0  0  0
    6.4661   -6.4921   25.0835 H   0  0  0  0  0  0
    4.7594   -5.9431   23.4068 H   0  0  0  0  0  0
  1 22  1  0  0  0
  2 23  1  0  0  0
  3 17  1  0  0  0
  3 27  1  0  0  0
  4  5  1  0  0  0
  4  9  2  0  0  0
  5 30  1  0  0  0
  5 12  1  0  0  0
  6 18  1  0  0  0
  6 19  2  0  0  0
  7 25  1  0  0  0
  7 31  1  0  0  0
  7 32  1  0  0  0
  8 11  1  0  0  0
  8  9  1  0  0  0
  8 12  2  0  0  0
  9 14  1  0  0  0
 10 15  1  0  0  0
 10 13  1  0  0  0
 10 11  2  0  0  0
 11 33  1  0  0  0
 12 20  1  0  0  0
 13 16  1  0  0  0
 13 18  2  0  0  0
 14 34  1  0  0  0
 14 15  2  0  0  0
 15 35  1  0  0  0
 16 17  2  0  0  0
 16 36  1  0  0  0
 17 19  1  0  0  0
 18 37  1  0  0  0
 19 38  1  0  0  0
 20 39  1  0  0  0
 20 40  1  0  0  0
 20 41  1  0  0  0
 21 24  1  0  0  0
 21 26  1  0  0  0
 21 28  2  0  0  0
 22 23  1  0  0  0
 22 24  2  0  0  0
 23 29  2  0  0  0
 24 42  1  0  0  0
 25 26  1  0  0  0
 25 27  1  0  0  0
 25 43  1  0  0  0
 26 44  1  0  0  0
 26 45  1  0  0  0
 27 46  1  0  0  0
 27 47  1  0  0  0
 28 29  1  0  0  0
 28 48  1  0  0  0
 29 49  1  0  0  0
M  END
> <s_m_entry_id>
5639

> <s_m_entry_name>
dock_pv.34

> <s_m_Source_Path>
/home/csk/Desktop/cluster/DUD-E-result/igf1r

> <s_m_Source_File>
dock_pv.maegz

> <i_m_Source_File_Index>
34

> <chembl_id>
CHEMBL1991063

> <chembl_pref_name>
None

> <i_lp_mmshare_version>
53161

> <r_lp_tautomer_probability>
0.0196078431372549

> <s_lp_Force_Field>
OPLS_2005

> <r_lp_Energy>
41.185656

> <b_lp_Chiralities_Consistent>
1

> <s_lp_Variant>
CHEMBL1957_lig3340-3

> <s_i_glide_gridfile>
glide-grid_2oj9

> <i_i_glide_lignum>
4701

> <i_i_glide_rotatable_bonds>
6

> <r_i_docking_score>
-8.48801893659151

> <r_i_glide_ligand_efficiency>
-0.292690308158328

> <r_i_glide_ligand_efficiency_sa>
-0.899237357460674

> <r_i_glide_ligand_efficiency_ln>
-1.94354109889043

> <r_i_glide_gscore>
-8.48801893659151

> <r_i_glide_lipo>
-4.19224228810339

> <r_i_glide_hbond>
-0.456

> <r_i_glide_metal>
0

> <r_i_glide_rewards>
-1.52016154966777

> <r_i_glide_evdw>
-45.8467216491699

> <r_i_glide_ecoul>
-3.80601453781128

> <r_i_glide_erotb>
0.543623164309835

> <r_i_glide_esite>
0

> <r_i_glide_emodel>
-72.4664990386642

> <r_i_glide_energy>
-49.6527361869812

> <r_i_glide_einternal>
2.56987929344177

> <i_i_glide_confnum>
26

> <i_i_glide_posenum>
316

> <r_i_glide_eff_state_penalty>
0

> <s_user_duplicate_titles>
CHEMBL1957_lig3340,CHEMBL1957_lig3340

> <i_f3d_flags>
0

> <s_m_subgroup_title>
dock_pv

> <s_m_subgroupid>
dock_pv

> <b_m_subgroup_collapsed>
1

$$$$
CHEMBL1957_lig1338
                    3D
 Schrodinger Suite 2021-1.
 43 45  0  0  1  0            999 V2000
    3.6538   -2.7864   19.1478 C   0  0  0  0  0  0
    3.2380   -3.7075   18.1891 C   0  0  0  0  0  0
    3.2358   -5.0465   18.4090 N   0  0  0  0  0  0
    3.6380   -5.4641   19.6329 C   0  0  0  0  0  0
    4.0212   -4.6374   20.6380 N   0  0  0  0  0  0
    4.0579   -3.2992   20.3872 C   0  0  0  0  0  0
    4.6696   -2.4540   21.3272 N   0  0  0  0  0  0
    3.9438   -6.8290   19.6984 N   0  0  0  0  0  0
    5.7550   -2.7770   22.1084 C   0  0  0  0  0  0
    6.5414   -3.9382   22.1052 C   0  0  0  0  0  0
    7.5001   -3.8075   23.0890 C   0  0  0  0  0  0
    7.2515   -2.5476   23.5748 N   0  0  0  0  0  0
    6.2098   -1.9276   23.0010 N   0  0  0  0  0  0
    4.5429   -7.6626   20.6536 C   0  0  0  0  0  0
    4.8381   -8.9626   20.2380 C   0  0  0  0  0  0
    5.4417   -8.1702   22.8406 C   0  0  0  0  0  0
    4.8380   -7.2698   21.9662 C   0  0  0  0  0  0
    5.7640   -9.4518   22.4015 C   0  0  0  0  0  0
    5.4583   -9.8562   21.1054 C   0  0  0  0  0  0
    3.7894   -0.9402   18.6919 Br  0  0  0  0  0  0
    8.5952   -4.7577   23.5720 C   0  0  0  0  0  0
    9.3155   -4.2213   24.8258 C   0  0  0  0  0  0
    9.6115   -4.9861   22.4335 C   0  0  0  0  0  0
    7.9664   -6.1163   23.9381 C   0  0  0  0  0  0
    2.9541   -3.3812   17.2012 H   0  0  0  0  0  0
    4.5204   -1.4827   21.1069 H   0  0  0  0  0  0
    3.8097   -7.2883   18.8072 H   0  0  0  0  0  0
    6.4256   -4.7984   21.4651 H   0  0  0  0  0  0
    7.8029   -2.1056   24.2961 H   0  0  0  0  0  0
    4.6036   -9.2865   19.2338 H   0  0  0  0  0  0
    5.6527   -7.8791   23.8592 H   0  0  0  0  0  0
    4.5933   -6.2900   22.3414 H   0  0  0  0  0  0
    6.2297  -10.1488   23.0833 H   0  0  0  0  0  0
    5.6933  -10.8581   20.7766 H   0  0  0  0  0  0
   10.0380   -4.9464   25.1941 H   0  0  0  0  0  0
    8.6176   -4.0540   25.6408 H   0  0  0  0  0  0
    9.8361   -3.2828   24.6380 H   0  0  0  0  0  0
    9.1529   -5.4788   21.5749 H   0  0  0  0  0  0
   10.0324   -4.0542   22.0601 H   0  0  0  0  0  0
   10.4380   -5.6121   22.7661 H   0  0  0  0  0  0
    7.5342   -6.5865   23.0571 H   0  0  0  0  0  0
    8.7027   -6.8114   24.3443 H   0  0  0  0  0  0
    7.1727   -6.0077   24.6792 H   0  0  0  0  0  0
  1  2  2  0  0  0
  1  6  1  0  0  0
  1 20  1  0  0  0
  2  3  1  0  0  0
  2 25  1  0  0  0
  3  4  2  0  0  0
  4  5  1  0  0  0
  4  8  1  0  0  0
  5  6  2  0  0  0
  6  7  1  0  0  0
  7  9  1  0  0  0
  7 26  1  0  0  0
  8 14  1  0  0  0
  8 27  1  0  0  0
  9 10  1  0  0  0
  9 13  2  0  0  0
 10 11  2  0  0  0
 10 28  1  0  0  0
 11 12  1  0  0  0
 11 21  1  0  0  0
 12 13  1  0  0  0
 12 29  1  0  0  0
 14 15  2  0  0  0
 14 17  1  0  0  0
 15 19  1  0  0  0
 15 30  1  0  0  0
 16 18  1  0  0  0
 16 17  2  0  0  0
 16 31  1  0  0  0
 17 32  1  0  0  0
 18 19  2  0  0  0
 18 33  1  0  0  0
 19 34  1  0  0  0
 21 22  1  0  0  0
 21 23  1  0  0  0
 21 24  1  0  0  0
 22 35  1  0  0  0
 22 36  1  0  0  0
 22 37  1  0  0  0
 23 38  1  0  0  0
 23 39  1  0  0  0
 23 40  1  0  0  0
 24 41  1  0  0  0
 24 42  1  0  0  0
 24 43  1  0  0  0
M  END
> <s_m_entry_id>
5640

> <s_m_entry_name>
dock_pv.35

> <s_m_Source_Path>
/home/csk/Desktop/cluster/DUD-E-result/igf1r

> <s_m_Source_File>
dock_pv.maegz

> <i_m_Source_File_Index>
35

> <chembl_id>
CHEMBL3938067

> <chembl_pref_name>
None

> <i_lp_mmshare_version>
53161

> <r_lp_tautomer_probability>
0.842599732729633

> <s_lp_Force_Field>
OPLS_2005

> <r_lp_Energy>
8.333878

> <b_lp_Chiralities_Consistent>
1

> <s_lp_Variant>
CHEMBL1957_lig1338-1

> <s_i_glide_gridfile>
glide-grid_2oj9

> <i_i_glide_lignum>
1809

> <i_i_glide_rotatable_bonds>
5

> <r_i_docking_score>
-8.47721526387057

> <r_i_glide_ligand_efficiency>
-0.353217302661274

> <r_i_glide_ligand_efficiency_sa>
-1.0188550048974

> <r_i_glide_ligand_efficiency_ln>
-2.0289866067055

> <r_i_glide_gscore>
-8.47721526387057

> <r_i_glide_lipo>
-3.59076396688887

> <r_i_glide_hbond>
-0.338007972768966

> <r_i_glide_metal>
0

> <r_i_glide_rewards>
-2.26455386622222

> <r_i_glide_evdw>
-37.2809066772461

> <r_i_glide_ecoul>
-5.2224178314209

> <r_i_glide_erotb>
0.363518550584919

> <r_i_glide_esite>
0

> <r_i_glide_emodel>
-62.9741519140195

> <r_i_glide_energy>
-42.503324508667

> <r_i_glide_einternal>
2.22123742103577

> <i_i_glide_confnum>
4

> <i_i_glide_posenum>
370

> <r_i_glide_eff_state_penalty>
0

> <s_user_duplicate_titles>
CHEMBL1957_lig1338

> <i_f3d_flags>
0

> <s_m_subgroup_title>
dock_pv

> <s_m_subgroupid>
dock_pv

> <b_m_subgroup_collapsed>
1

$$$$
CHEMBL1957_lig2223
                    3D
 Schrodinger Suite 2021-1.
 52 56  0  0  1  0            999 V2000
    5.5595   -6.9512   24.4305 C   0  0  0  0  0  0
    6.3289   -7.7456   23.3624 C   0  0  0  0  0  0
    5.5758   -7.8713   22.1176 N   0  0  0  0  0  0
    5.4456   -8.9906   21.3401 C   0  0  0  0  0  0
    4.6989   -8.5850   20.2540 C   0  0  0  0  0  0
    4.4026   -7.2331   20.4654 C   0  0  0  0  0  0
    3.6406   -6.4539   19.6239 N   0  0  0  0  0  0
    3.5226   -5.0623   19.5180 C   0  0  0  0  0  0
    3.0870   -4.6666   18.2999 N   0  0  0  0  0  0
    3.2381   -3.3554   17.9981 C   0  0  0  0  0  0
    3.8306   -2.4334   18.8516 C   0  0  0  0  0  0
    4.0102   -0.9590   18.5029 C   0  0  0  0  0  0
    5.3352   -0.3487   19.0104 C   0  0  0  0  0  0
    5.5217   -0.7779   20.4568 C   0  0  0  0  0  0
    6.0373   -0.0516   21.4172 N   0  0  0  0  0  0
    6.1135   -0.8831   22.4606 N   0  0  0  0  0  0
    6.6504   -0.4066   23.7308 C   0  0  0  0  0  0
    5.6819   -2.1496   22.1568 C   0  0  0  0  0  0
    5.8432   -3.3077   23.0918 C   0  0  0  0  0  0
    7.2141   -3.9462   23.0431 C   0  0  0  0  0  0
    8.0381   -3.8881   24.1659 C   0  0  0  0  0  0
    9.2511   -4.5591   24.1731 C   0  0  0  0  0  0
    9.6486   -5.2569   23.0389 C   0  0  0  0  0  0
    8.8420   -5.3018   21.9022 C   0  0  0  0  0  0
    7.6168   -4.6454   21.9044 C   0  0  0  0  0  0
    5.0855   -2.0286   20.9168 C   0  0  0  0  0  0
    4.2625   -2.9440   20.0842 C   0  0  0  0  0  0
    4.0386   -4.2317   20.4656 N   0  0  0  0  0  0
    4.9654   -6.8044   21.5763 N   0  0  0  0  0  0
    6.1188   -6.8991   25.3632 H   0  0  0  0  0  0
    5.3723   -5.9274   24.1186 H   0  0  0  0  0  0
    4.5924   -7.4105   24.6349 H   0  0  0  0  0  0
    6.5480   -8.7465   23.7350 H   0  0  0  0  0  0
    7.2839   -7.2733   23.1368 H   0  0  0  0  0  0
    5.8896   -9.9346   21.6224 H   0  0  0  0  0  0
    4.3885   -9.1927   19.4173 H   0  0  0  0  0  0
    3.2895   -6.8987   18.7906 H   0  0  0  0  0  0
    2.8833   -3.0358   17.0382 H   0  0  0  0  0  0
    3.2385   -0.4560   19.0378 H   0  0  0  0  0  0
    3.8015   -0.7323   17.4597 H   0  0  0  0  0  0
    5.3164    0.7392   18.9229 H   0  0  0  0  0  0
    6.1727   -0.6777   18.3953 H   0  0  0  0  0  0
    5.9351   -0.6183   24.5258 H   0  0  0  0  0  0
    7.5861   -0.9234   23.9427 H   0  0  0  0  0  0
    6.8320    0.6696   23.7020 H   0  0  0  0  0  0
    5.1419   -4.0941   22.8197 H   0  0  0  0  0  0
    5.6383   -2.9822   24.1096 H   0  0  0  0  0  0
    7.7419   -3.3262   25.0317 H   0  0  0  0  0  0
    9.8903   -4.5227   25.0410 H   0  0  0  0  0  0
   10.6088   -5.7482   23.0417 H   0  0  0  0  0  0
    9.1697   -5.8476   21.0300 H   0  0  0  0  0  0
    6.9719   -4.6925   21.0382 H   0  0  0  0  0  0
  1  2  1  0  0  0
  1 30  1  0  0  0
  1 31  1  0  0  0
  1 32  1  0  0  0
  2  3  1  0  0  0
  2 33  1  0  0  0
  2 34  1  0  0  0
  3  4  1  0  0  0
  3 29  1  0  0  0
  4  5  2  0  0  0
  4 35  1  0  0  0
  5  6  1  0  0  0
  5 36  1  0  0  0
  6  7  1  0  0  0
  6 29  2  0  0  0
  7  8  1  0  0  0
  7 37  1  0  0  0
  8  9  2  0  0  0
  8 28  1  0  0  0
  9 10  1  0  0  0
 10 11  2  0  0  0
 10 38  1  0  0  0
 11 12  1  0  0  0
 11 27  1  0  0  0
 12 13  1  0  0  0
 12 39  1  0  0  0
 12 40  1  0  0  0
 13 14  1  0  0  0
 13 41  1  0  0  0
 13 42  1  0  0  0
 14 15  2  0  0  0
 14 26  1  0  0  0
 15 16  1  0  0  0
 16 17  1  0  0  0
 16 18  1  0  0  0
 17 43  1  0  0  0
 17 44  1  0  0  0
 17 45  1  0  0  0
 18 19  1  0  0  0
 18 26  2  0  0  0
 19 20  1  0  0  0
 19 46  1  0  0  0
 19 47  1  0  0  0
 20 21  2  0  0  0
 20 25  1  0  0  0
 21 22  1  0  0  0
 21 48  1  0  0  0
 22 23  2  0  0  0
 22 49  1  0  0  0
 23 24  1  0  0  0
 23 50  1  0  0  0
 24 25  2  0  0  0
 24 51  1  0  0  0
 25 52  1  0  0  0
 26 27  1  0  0  0
 27 28  2  0  0  0
M  END
> <s_m_entry_id>
5641

> <s_m_entry_name>
dock_pv.36

> <s_m_Source_Path>
/home/csk/Desktop/cluster/DUD-E-result/igf1r

> <s_m_Source_File>
dock_pv.maegz

> <i_m_Source_File_Index>
36

> <chembl_id>
CHEMBL3656665

> <chembl_pref_name>
None

> <i_lp_mmshare_version>
53161

> <r_lp_tautomer_probability>
0.999999987636

> <s_lp_Force_Field>
OPLS_2005

> <r_lp_Energy>
9.351645

> <b_lp_Chiralities_Consistent>
1

> <s_lp_Variant>
CHEMBL1957_lig2223-1

> <s_i_glide_gridfile>
glide-grid_2oj9

> <i_i_glide_lignum>
3200

> <i_i_glide_rotatable_bonds>
5

> <r_i_docking_score>
-8.42873195060489

> <r_i_glide_ligand_efficiency>
-0.290645929331203

> <r_i_glide_ligand_efficiency_sa>
-0.892956377999073

> <r_i_glide_ligand_efficiency_ln>
-1.92996588248774

> <r_i_glide_gscore>
-8.42873195060489

> <r_i_glide_lipo>
-3.8008716189845

> <r_i_glide_hbond>
-0.020441578717587

> <r_i_glide_metal>
0

> <r_i_glide_rewards>
-2.90017396153796

> <r_i_glide_evdw>
-35.5428924560547

> <r_i_glide_ecoul>
-3.02534079551697

> <r_i_glide_erotb>
0.523700950765435

> <r_i_glide_esite>
0

> <r_i_glide_emodel>
-49.519379579382

> <r_i_glide_energy>
-38.5682332515717

> <r_i_glide_einternal>
4.93106603622437

> <i_i_glide_confnum>
7

> <i_i_glide_posenum>
103

> <r_i_glide_eff_state_penalty>
0

> <s_user_duplicate_titles>
CHEMBL1957_lig2223

> <i_f3d_flags>
0

> <s_m_subgroup_title>
dock_pv

> <s_m_subgroupid>
dock_pv

> <b_m_subgroup_collapsed>
1

$$$$
CHEMBL1957_lig3188
                    3D
 Schrodinger Suite 2021-1.
 49 52  0  0  1  0            999 V2000
    5.2379   -9.5138   20.6371 Cl  0  0  0  0  0  0
    8.9383   -5.8288   23.3509 O   0  0  0  0  0  0
    3.6379   -1.2542   18.2913 N   0  0  0  0  0  0
    3.1151   -2.4635   18.0327 N   0  0  0  0  0  0
    8.1197   -2.4539   24.6382 N   0  0  0  0  0  0
    9.9711   -8.4943   23.1407 N   0  0  0  0  0  0
    4.3188   -2.8360   19.8400 C   0  0  0  0  0  0
    4.4059   -1.4831   19.3931 C   0  0  0  0  0  0
    5.9708   -2.3691   21.5410 C   0  0  0  0  0  0
    5.0656   -3.2557   20.9485 C   0  0  0  0  0  0
    3.4607   -3.4695   18.9034 C   0  0  0  0  0  0
    6.9084   -2.8560   22.5867 C   0  0  0  0  0  0
    5.2479   -0.5733   20.0440 C   0  0  0  0  0  0
    6.0274   -1.0415   21.0993 C   0  0  0  0  0  0
    7.5250   -4.1162   22.4973 C   0  0  0  0  0  0
    8.4170   -4.5560   23.4799 C   0  0  0  0  0  0
    7.2399   -2.0662   23.6889 C   0  0  0  0  0  0
    8.6936   -3.6751   24.5320 C   0  0  0  0  0  0
    3.0198   -4.9057   18.7329 C   0  0  0  0  0  0
    9.7081   -6.4014   24.4152 C   0  0  0  0  0  0
    9.5801   -7.9443   24.4277 C   0  0  1  0  0  0
    7.0164   -8.0871   23.9333 C   0  0  0  0  0  0
    8.1790   -8.4684   24.8482 C   0  0  0  0  0  0
    6.6876   -8.8841   22.8313 C   0  0  0  0  0  0
    5.6417   -8.5144   21.9815 C   0  0  0  0  0  0
    6.2655   -6.9356   24.1918 C   0  0  0  0  0  0
    4.9279   -7.3393   22.2219 C   0  0  0  0  0  0
    5.2363   -6.5575   23.3321 C   0  0  0  0  0  0
    2.5158   -2.6109   17.2283 H   0  0  0  0  0  0
    9.3132   -8.1338   22.4640 H   0  0  0  0  0  0
   10.8678   -8.0962   22.8515 H   0  0  0  0  0  0
    5.0135   -4.2842   21.2735 H   0  0  0  0  0  0
    5.3439    0.4469   19.6988 H   0  0  0  0  0  0
    6.7318   -0.3617   21.5525 H   0  0  0  0  0  0
    7.3137   -4.7734   21.6662 H   0  0  0  0  0  0
    6.8091   -1.0874   23.8283 H   0  0  0  0  0  0
    9.3936   -3.9156   25.3154 H   0  0  0  0  0  0
    3.8668   -5.5851   18.6329 H   0  0  0  0  0  0
    2.4395   -5.2545   19.5867 H   0  0  0  0  0  0
    2.4170   -5.0415   17.8385 H   0  0  0  0  0  0
    9.3940   -6.0513   25.3985 H   0  0  0  0  0  0
   10.7499   -6.1058   24.2850 H   0  0  0  0  0  0
   10.2995   -8.3233   25.1574 H   0  0  0  0  0  0
    7.9528   -8.1203   25.8574 H   0  0  0  0  0  0
    8.2097   -9.5557   24.9359 H   0  0  0  0  0  0
    7.2467   -9.7861   22.6305 H   0  0  0  0  0  0
    6.5018   -6.3128   25.0419 H   0  0  0  0  0  0
    4.1266   -7.0473   21.5589 H   0  0  0  0  0  0
    4.6784   -5.6541   23.5220 H   0  0  0  0  0  0
  1 25  1  0  0  0
  2 16  1  0  0  0
  2 20  1  0  0  0
  3  4  1  0  0  0
  3  8  2  0  0  0
  4 29  1  0  0  0
  4 11  1  0  0  0
  5 17  1  0  0  0
  5 18  2  0  0  0
  6 21  1  0  0  0
  6 30  1  0  0  0
  6 31  1  0  0  0
  7 10  1  0  0  0
  7  8  1  0  0  0
  7 11  2  0  0  0
  8 13  1  0  0  0
  9 14  1  0  0  0
  9 12  1  0  0  0
  9 10  2  0  0  0
 10 32  1  0  0  0
 11 19  1  0  0  0
 12 15  1  0  0  0
 12 17  2  0  0  0
 13 33  1  0  0  0
 13 14  2  0  0  0
 14 34  1  0  0  0
 15 16  2  0  0  0
 15 35  1  0  0  0
 16 18  1  0  0  0
 17 36  1  0  0  0
 18 37  1  0  0  0
 19 38  1  0  0  0
 19 39  1  0  0  0
 19 40  1  0  0  0
 20 21  1  0  0  0
 20 41  1  0  0  0
 20 42  1  0  0  0
 21 23  1  0  0  0
 21 43  1  0  0  0
 22 23  1  0  0  0
 22 24  1  0  0  0
 22 26  2  0  0  0
 23 44  1  0  0  0
 23 45  1  0  0  0
 24 25  2  0  0  0
 24 46  1  0  0  0
 25 27  1  0  0  0
 26 28  1  0  0  0
 26 47  1  0  0  0
 27 28  2  0  0  0
 27 48  1  0  0  0
 28 49  1  0  0  0
M  END
> <s_m_entry_id>
5642

> <s_m_entry_name>
dock_pv.37

> <s_m_Source_Path>
/home/csk/Desktop/cluster/DUD-E-result/igf1r

> <s_m_Source_File>
dock_pv.maegz

> <i_m_Source_File_Index>
37

> <chembl_id>
CHEMBL1974870

> <chembl_pref_name>
None

> <i_lp_mmshare_version>
53161

> <r_lp_tautomer_probability>
0.0196078431372549

> <s_lp_Force_Field>
OPLS_2005

> <r_lp_Energy>
39.137534

> <b_lp_Chiralities_Consistent>
1

> <s_lp_Variant>
CHEMBL1957_lig3188-4

> <s_i_glide_gridfile>
glide-grid_2oj9

> <i_i_glide_lignum>
4433

> <i_i_glide_rotatable_bonds>
6

> <r_i_docking_score>
-8.39491881661258

> <r_i_glide_ligand_efficiency>
-0.299818529164735

> <r_i_glide_ligand_efficiency_sa>
-0.910425638214374

> <r_i_glide_ligand_efficiency_ln>
-1.9377937484011

> <r_i_glide_gscore>
-8.39491881661258

> <r_i_glide_lipo>
-4.04086114121491

> <r_i_glide_hbond>
-0.456

> <r_i_glide_metal>
0

> <r_i_glide_rewards>
-1.75453164028328

> <r_i_glide_evdw>
-45.2378158569336

> <r_i_glide_ecoul>
-3.42827105522156

> <r_i_glide_erotb>
0.632605416015526

> <r_i_glide_esite>
0

> <r_i_glide_emodel>
-70.5059951172015

> <r_i_glide_energy>
-48.6660869121552

> <r_i_glide_einternal>
2.65444946289062

> <i_i_glide_confnum>
1

> <i_i_glide_posenum>
46

> <r_i_glide_eff_state_penalty>
0

> <s_user_duplicate_titles>
CHEMBL1957_lig3188

> <i_f3d_flags>
0

> <s_m_subgroup_title>
dock_pv

> <s_m_subgroupid>
dock_pv

> <b_m_subgroup_collapsed>
1

$$$$
CHEMBL1957_lig2314
                    3D
 Schrodinger Suite 2021-1.
 53 57  0  0  1  0            999 V2000
    7.1181   -9.6928   22.3678 C   0  0  0  0  0  0
    6.0458   -9.1739   21.4384 C   0  0  0  0  0  0
    5.6382   -7.8966   21.0801 C   0  0  0  0  0  0
    4.6049   -8.0469   20.1505 C   0  0  0  0  0  0
    3.8705   -7.1359   19.4382 N   0  0  0  0  0  0
    3.6380   -5.7760   19.6383 C   0  0  0  0  0  0
    3.0768   -5.1600   18.5717 N   0  0  0  0  0  0
    3.0658   -3.8051   18.5878 C   0  0  0  0  0  0
    3.6372   -3.0549   19.6151 C   0  0  0  0  0  0
    3.6003   -1.5322   19.6528 C   0  0  0  0  0  0
    4.9512   -0.9176   20.0767 C   0  0  0  0  0  0
    5.4735   -1.6646   21.2951 C   0  0  0  0  0  0
    6.2288   -1.1337   22.2168 N   0  0  0  0  0  0
    6.5957   -2.1623   22.9800 N   0  0  0  0  0  0
    7.5267   -1.8804   24.0635 C   0  0  0  0  0  0
    6.0982   -3.3805   22.5488 C   0  0  0  0  0  0
    6.5427   -4.6880   23.1329 C   0  0  0  0  0  0
    7.9162   -4.9347   23.2426 C   0  0  0  0  0  0
    8.3778   -6.0876   23.8671 C   0  0  0  0  0  0
    7.4649   -7.0063   24.3979 C   0  0  0  0  0  0
    7.8443   -8.1385   25.0850 O   0  0  0  0  0  0
    9.0358   -8.0797   25.8657 C   0  0  0  0  0  0
   10.0908   -8.4568   25.1436 F   0  0  0  0  0  0
    8.9066   -8.8922   26.9140 F   0  0  0  0  0  0
    6.0991   -6.7971   24.2264 C   0  0  0  0  0  0
    5.6392   -5.6537   23.5827 C   0  0  0  0  0  0
    5.2033   -3.0266   21.5262 C   0  0  0  0  0  0
    4.2673   -3.7879   20.6387 C   0  0  0  0  0  0
    4.1850   -5.1443   20.7113 N   0  0  0  0  0  0
    4.4383   -9.3118   19.8647 N   0  0  0  0  0  0
    5.2393   -9.9916   20.6885 N   0  0  0  0  0  0
    5.2344  -11.4442   20.6339 C   0  0  0  0  0  0
    7.9149   -8.9628   22.5069 H   0  0  0  0  0  0
    6.7134   -9.9346   23.3510 H   0  0  0  0  0  0
    7.5968  -10.5944   21.9848 H   0  0  0  0  0  0
    6.0570   -6.9660   21.4220 H   0  0  0  0  0  0
    3.5316   -7.4498   18.5395 H   0  0  0  0  0  0
    2.5804   -3.3188   17.7548 H   0  0  0  0  0  0
    2.8370   -1.2547   20.3773 H   0  0  0  0  0  0
    3.2845   -1.1231   18.6919 H   0  0  0  0  0  0
    4.8446    0.1502   20.2679 H   0  0  0  0  0  0
    5.6688   -0.9940   19.2582 H   0  0  0  0  0  0
    7.5313   -2.6985   24.7796 H   0  0  0  0  0  0
    8.5275   -1.7593   23.6528 H   0  0  0  0  0  0
    7.2373   -0.9635   24.5807 H   0  0  0  0  0  0
    8.6360   -4.2229   22.8635 H   0  0  0  0  0  0
    9.4428   -6.2492   23.9477 H   0  0  0  0  0  0
    9.2402   -7.0899   26.2798 H   0  0  0  0  0  0
    5.3916   -7.5198   24.6041 H   0  0  0  0  0  0
    4.5774   -5.5154   23.4514 H   0  0  0  0  0  0
    6.1223  -11.7814   20.1001 H   0  0  0  0  0  0
    5.2383  -11.8459   21.6476 H   0  0  0  0  0  0
    4.3474  -11.8059   20.1077 H   0  0  0  0  0  0
  1  2  1  0  0  0
  1 33  1  0  0  0
  1 34  1  0  0  0
  1 35  1  0  0  0
  2  3  2  0  0  0
  2 31  1  0  0  0
  3  4  1  0  0  0
  3 36  1  0  0  0
  4  5  1  0  0  0
  4 30  2  0  0  0
  5  6  1  0  0  0
  5 37  1  0  0  0
  6  7  2  0  0  0
  6 29  1  0  0  0
  7  8  1  0  0  0
  8  9  2  0  0  0
  8 38  1  0  0  0
  9 10  1  0  0  0
  9 28  1  0  0  0
 10 11  1  0  0  0
 10 39  1  0  0  0
 10 40  1  0  0  0
 11 12  1  0  0  0
 11 41  1  0  0  0
 11 42  1  0  0  0
 12 13  2  0  0  0
 12 27  1  0  0  0
 13 14  1  0  0  0
 14 15  1  0  0  0
 14 16  1  0  0  0
 15 43  1  0  0  0
 15 44  1  0  0  0
 15 45  1  0  0  0
 16 17  1  0  0  0
 16 27  2  0  0  0
 17 18  2  0  0  0
 17 26  1  0  0  0
 18 19  1  0  0  0
 18 46  1  0  0  0
 19 20  2  0  0  0
 19 47  1  0  0  0
 20 21  1  0  0  0
 20 25  1  0  0  0
 21 22  1  0  0  0
 22 23  1  0  0  0
 22 24  1  0  0  0
 22 48  1  0  0  0
 25 26  2  0  0  0
 25 49  1  0  0  0
 26 50  1  0  0  0
 27 28  1  0  0  0
 28 29  2  0  0  0
 30 31  1  0  0  0
 31 32  1  0  0  0
 32 51  1  0  0  0
 32 52  1  0  0  0
 32 53  1  0  0  0
M  END
> <s_m_entry_id>
5643

> <s_m_entry_name>
dock_pv.38

> <s_m_Source_Path>
/home/csk/Desktop/cluster/DUD-E-result/igf1r

> <s_m_Source_File>
dock_pv.maegz

> <i_m_Source_File_Index>
38

> <chembl_id>
CHEMBL3656755

> <chembl_pref_name>
None

> <i_lp_mmshare_version>
53161

> <r_lp_tautomer_probability>
0.999999987636

> <s_lp_Force_Field>
OPLS_2005

> <r_lp_Energy>
10.461469

> <b_lp_Chiralities_Consistent>
1

> <s_lp_Variant>
CHEMBL1957_lig2314-1

> <s_i_glide_gridfile>
glide-grid_2oj9

> <i_i_glide_lignum>
3297

> <i_i_glide_rotatable_bonds>
5

> <r_i_docking_score>
-8.3717721438934

> <r_i_glide_ligand_efficiency>
-0.261617879496669

> <r_i_glide_ligand_efficiency_sa>
-0.830584993293874

> <r_i_glide_ligand_efficiency_ln>
-1.87466798890746

> <r_i_glide_gscore>
-8.3717721438934

> <r_i_glide_lipo>
-3.35303950295806

> <r_i_glide_hbond>
-0.186931821729043

> <r_i_glide_metal>
0

> <r_i_glide_rewards>
-2.47924363550667

> <r_i_glide_evdw>
-37.9195251464844

> <r_i_glide_ecoul>
-5.82279825210571

> <r_i_glide_erotb>
0.416838811440442

> <r_i_glide_esite>
0

> <r_i_glide_emodel>
-61.4451332287279

> <r_i_glide_energy>
-43.7423233985901

> <r_i_glide_einternal>
9.06318473815918

> <i_i_glide_confnum>
13

> <i_i_glide_posenum>
29

> <r_i_glide_eff_state_penalty>
0

> <s_user_duplicate_titles>
CHEMBL1957_lig2314

> <i_f3d_flags>
0

> <s_m_subgroup_title>
dock_pv

> <s_m_subgroupid>
dock_pv

> <b_m_subgroup_collapsed>
1

$$$$
CHEMBL1957_lig2733
                    3D
 Schrodinger Suite 2021-1.
 29 31  0  0  1  0            999 V2000
    2.8223   -6.0507   18.6380 O   0  0  0  0  0  0
    6.0380   -0.4064   21.8494 O   0  0  0  0  0  0
    3.1641   -3.7900   18.5584 N   0  0  0  0  0  0
    6.2976   -5.3173   22.4525 N   0  0  0  0  0  0
    6.0380   -6.6120   24.2380 N   0  0  0  0  0  0
    4.3368   -3.3940   20.4219 C   0  0  0  0  0  0
    3.9972   -4.8230   20.3624 C   0  0  0  0  0  0
    3.8167   -2.8196   19.2829 C   0  0  0  0  0  0
    3.2380   -5.0039   19.1319 C   0  0  0  0  0  0
    5.0682   -2.6079   21.3159 C   0  0  0  0  0  0
    4.3072   -5.8977   21.1311 C   0  0  0  0  0  0
    4.0380   -1.4792   18.9733 C   0  0  0  0  0  0
    5.3320   -1.2583   21.0211 C   0  0  0  0  0  0
    5.1651   -5.9965   22.3025 C   0  0  0  0  0  0
    4.8220   -0.7109   19.8380 C   0  0  0  0  0  0
    4.9941   -6.8540   23.3892 C   0  0  0  0  0  0
    6.7971   -5.6675   23.6121 C   0  0  0  0  0  0
    6.4203   -0.8599   23.1458 C   0  0  0  0  0  0
    2.7233   -3.6349   17.6621 H   0  0  0  0  0  0
    6.2162   -7.0397   25.1370 H   0  0  0  0  0  0
    5.4456   -3.0352   22.2266 H   0  0  0  0  0  0
    3.8852   -6.8597   20.8717 H   0  0  0  0  0  0
    3.6494   -1.0400   18.0662 H   0  0  0  0  0  0
    5.0259    0.3229   19.5966 H   0  0  0  0  0  0
    4.2306   -7.5767   23.6387 H   0  0  0  0  0  0
    7.7062   -5.3034   24.0694 H   0  0  0  0  0  0
    6.8380   -0.0285   23.7134 H   0  0  0  0  0  0
    5.5667   -1.2358   23.7125 H   0  0  0  0  0  0
    7.1804   -1.6406   23.0847 H   0  0  0  0  0  0
  1  9  2  0  0  0
  2 13  1  0  0  0
  2 18  1  0  0  0
  3  8  1  0  0  0
  3  9  1  0  0  0
  3 19  1  0  0  0
  4 14  1  0  0  0
  4 17  2  0  0  0
  5 16  1  0  0  0
  5 17  1  0  0  0
  5 20  1  0  0  0
  6  7  1  0  0  0
  6  8  1  0  0  0
  6 10  2  0  0  0
  7  9  1  0  0  0
  7 11  2  3  0  0
  8 12  2  0  0  0
 10 13  1  0  0  0
 10 21  1  0  0  0
 11 14  1  0  0  0
 11 22  1  0  0  0
 12 15  1  0  0  0
 12 23  1  0  0  0
 13 15  2  0  0  0
 14 16  2  0  0  0
 15 24  1  0  0  0
 16 25  1  0  0  0
 17 26  1  0  0  0
 18 27  1  0  0  0
 18 28  1  0  0  0
 18 29  1  0  0  0
M  END
> <s_m_entry_id>
5644

> <s_m_entry_name>
dock_pv.39

> <s_m_Source_Path>
/home/csk/Desktop/cluster/DUD-E-result/igf1r

> <s_m_Source_File>
dock_pv.maegz

> <i_m_Source_File_Index>
39

> <chembl_id>
CHEMBL2002649

> <chembl_pref_name>
None

> <i_lp_mmshare_version>
53161

> <r_lp_tautomer_probability>
1

> <s_lp_Force_Field>
OPLS_2005

> <r_lp_Energy>
35.508875

> <b_lp_Chiralities_Consistent>
1

> <s_lp_Variant>
CHEMBL1957_lig2733-2

> <s_i_glide_gridfile>
glide-grid_2oj9

> <i_i_glide_lignum>
3781

> <i_i_glide_rotatable_bonds>
2

> <r_i_docking_score>
-8.33912780400105

> <r_i_glide_ligand_efficiency>
-0.463284878000058

> <r_i_glide_ligand_efficiency_sa>
-1.21414985591599

> <r_i_glide_ligand_efficiency_ln>
-2.14352980202352

> <r_i_glide_gscore>
-8.33912780400105

> <r_i_glide_lipo>
-2.48270412820262

> <r_i_glide_hbond>
-0.291802664000191

> <r_i_glide_metal>
0

> <r_i_glide_rewards>
-3.34880699354873

> <r_i_glide_evdw>
-30.1726245880127

> <r_i_glide_ecoul>
-4.71455192565918

> <r_i_glide_erotb>
0

> <r_i_glide_esite>
0

> <r_i_glide_emodel>
-49.7027803281411

> <r_i_glide_energy>
-34.8871765136719

> <r_i_glide_einternal>
4.24052095413208

> <i_i_glide_confnum>
1

> <i_i_glide_posenum>
353

> <r_i_glide_eff_state_penalty>
0

> <s_user_duplicate_titles>
CHEMBL1957_lig2733

> <i_f3d_flags>
0

> <s_m_subgroup_title>
dock_pv

> <s_m_subgroupid>
dock_pv

> <b_m_subgroup_collapsed>
1

$$$$
CHEMBL1957_lig1054
                    3D
 Schrodinger Suite 2021-1.
 49 53  0  0  1  0            999 V2000
    5.5154  -11.2358   21.0378 C   0  0  0  0  0  0
    5.0413  -10.0696   20.1674 C   0  0  0  0  0  0
    6.4677  -10.6428   22.0767 C   0  0  0  0  0  0
    6.1391   -6.9889   22.7943 C   0  0  0  0  0  0
    3.6524   -4.6526   20.2469 C   0  0  0  0  0  0
    4.8573   -7.5133   20.9084 C   0  0  0  0  0  0
    6.5123   -8.2799   23.0095 N   0  0  0  0  0  0
    3.3546   -3.6097   19.4053 C   0  0  0  0  0  0
    5.2384   -8.8556   21.0409 C   0  0  0  0  0  0
    4.0382   -7.1073   19.8377 N   0  0  0  0  0  0
    6.6394   -6.0089   23.6509 N   0  0  0  0  0  0
    6.0708   -9.1867   22.1086 C   0  0  0  0  0  0
    3.6114   -5.8383   19.5059 C   0  0  0  0  0  0
    3.0206   -4.2428   18.2382 N   0  0  0  0  0  0
    3.1415   -5.5805   18.3040 N   0  0  0  0  0  0
    3.4515   -2.1196   19.6120 C   0  0  0  0  0  0
    5.3058   -6.5860   21.7970 N   0  0  0  0  0  0
    4.7859   -1.5741   20.0790 C   0  0  0  0  0  0
    4.2659   -1.2456   18.6969 C   0  0  0  0  0  0
    7.7023   -6.2802   24.6352 C   0  0  0  0  0  0
    9.0877   -6.0807   23.9799 C   0  0  0  0  0  0
    9.2274   -4.6262   23.4883 C   0  0  0  0  0  0
    8.0330   -4.2823   22.5693 C   0  0  0  0  0  0
    6.6915   -4.5786   23.2858 C   0  0  0  0  0  0
    9.2370   -3.7083   24.6450 C   0  0  0  0  0  0
    9.2419   -2.9865   25.5490 N   0  0  0  0  0  0
    5.9728  -12.0344   20.4518 H   0  0  0  0  0  0
    4.6539  -11.6712   21.5490 H   0  0  0  0  0  0
    4.0402  -10.2228   19.8019 H   0  0  0  0  0  0
    5.6381   -9.9974   19.2663 H   0  0  0  0  0  0
    7.5061  -10.7569   21.7633 H   0  0  0  0  0  0
    6.3535  -11.1379   23.0422 H   0  0  0  0  0  0
    4.0382   -4.5345   21.2437 H   0  0  0  0  0  0
    3.8725   -7.8532   19.1784 H   0  0  0  0  0  0
    2.7169   -3.7684   17.3957 H   0  0  0  0  0  0
    2.5538   -1.6759   20.0434 H   0  0  0  0  0  0
    4.8385   -0.7775   20.8171 H   0  0  0  0  0  0
    5.6262   -2.2639   20.1756 H   0  0  0  0  0  0
    4.7750   -1.6787   17.8384 H   0  0  0  0  0  0
    3.9191   -0.2351   18.5046 H   0  0  0  0  0  0
    7.6007   -7.2604   25.1030 H   0  0  0  0  0  0
    7.5769   -5.5563   25.4379 H   0  0  0  0  0  0
    9.1889   -6.7750   23.1433 H   0  0  0  0  0  0
    9.8760   -6.3241   24.6935 H   0  0  0  0  0  0
   10.1613   -4.5144   22.9361 H   0  0  0  0  0  0
    8.0717   -3.2327   22.2746 H   0  0  0  0  0  0
    8.0757   -4.8696   21.6499 H   0  0  0  0  0  0
    5.8396   -4.2790   22.6761 H   0  0  0  0  0  0
    6.6114   -3.9853   24.1983 H   0  0  0  0  0  0
  1  3  1  0  0  0
  1  2  1  0  0  0
  1 27  1  0  0  0
  1 28  1  0  0  0
  2  9  1  0  0  0
  2 29  1  0  0  0
  2 30  1  0  0  0
  3 12  1  0  0  0
  3 31  1  0  0  0
  3 32  1  0  0  0
  4  7  1  0  0  0
  4 11  1  0  0  0
  4 17  2  0  0  0
  5  8  2  0  0  0
  5 13  1  0  0  0
  5 33  1  0  0  0
  6  9  2  0  0  0
  6 10  1  0  0  0
  6 17  1  0  0  0
  7 12  2  0  0  0
  8 16  1  0  0  0
  8 14  1  0  0  0
  9 12  1  0  0  0
 10 13  1  0  0  0
 10 34  1  0  0  0
 11 20  1  0  0  0
 11 24  1  0  0  0
 13 15  2  0  0  0
 14 15  1  0  0  0
 14 35  1  0  0  0
 16 18  1  0  0  0
 16 19  1  0  0  0
 16 36  1  0  0  0
 18 19  1  0  0  0
 18 37  1  0  0  0
 18 38  1  0  0  0
 19 39  1  0  0  0
 19 40  1  0  0  0
 20 21  1  0  0  0
 20 41  1  0  0  0
 20 42  1  0  0  0
 21 22  1  0  0  0
 21 43  1  0  0  0
 21 44  1  0  0  0
 22 23  1  0  0  0
 22 25  1  0  0  0
 22 45  1  0  0  0
 23 24  1  0  0  0
 23 46  1  0  0  0
 23 47  1  0  0  0
 24 48  1  0  0  0
 24 49  1  0  0  0
 25 26  3  0  0  0
M  END
> <s_m_entry_id>
5645

> <s_m_entry_name>
dock_pv.40

> <s_m_Source_Path>
/home/csk/Desktop/cluster/DUD-E-result/igf1r

> <s_m_Source_File>
dock_pv.maegz

> <i_m_Source_File_Index>
40

> <chembl_id>
CHEMBL3409719

> <chembl_pref_name>
None

> <i_lp_mmshare_version>
53161

> <r_lp_tautomer_probability>
0.842599982216935

> <s_lp_Force_Field>
OPLS_2005

> <r_lp_Energy>
29.193536

> <b_lp_Chiralities_Consistent>
1

> <s_lp_Variant>
CHEMBL1957_lig1054-1

> <s_i_glide_gridfile>
glide-grid_2oj9

> <i_i_glide_lignum>
1357

> <i_i_glide_rotatable_bonds>
4

> <r_i_docking_score>
-8.33029149846159

> <r_i_glide_ligand_efficiency>
-0.320395826863907

> <r_i_glide_ligand_efficiency_sa>
-0.949171376387624

> <r_i_glide_ligand_efficiency_ln>
-1.95634162449784

> <r_i_glide_gscore>
-8.33029149846159

> <r_i_glide_lipo>
-2.99214963305467

> <r_i_glide_hbond>
-0.572886495009732

> <r_i_glide_metal>
0

> <r_i_glide_rewards>
-2.48850818355566

> <r_i_glide_evdw>
-36.2062072753906

> <r_i_glide_ecoul>
-6.02166604995728

> <r_i_glide_erotb>
0.436813084421585

> <r_i_glide_esite>
0

> <r_i_glide_emodel>
-60.1263452713882

> <r_i_glide_energy>
-42.2278733253479

> <r_i_glide_einternal>
4.80404853820801

> <i_i_glide_confnum>
4

> <i_i_glide_posenum>
19

> <r_i_glide_eff_state_penalty>
0

> <s_user_duplicate_titles>
CHEMBL1957_lig1054

> <i_f3d_flags>
0

> <s_m_subgroup_title>
dock_pv

> <s_m_subgroupid>
dock_pv

> <b_m_subgroup_collapsed>
1

$$$$
CHEMBL1957_lig3337
                    3D
 Schrodinger Suite 2021-1.
 47 52  0  0  1  0            999 V2000
    4.5959   -5.7686   21.0806 N   0  0  0  0  0  0
    4.9454   -3.5326   21.3012 C   0  0  0  0  0  0
    5.8002   -4.1936   22.2093 C   0  0  0  0  0  0
    4.7936   -2.1813   20.9319 C   0  0  0  0  0  0
    3.8900   -1.8373   19.9337 C   0  0  0  0  0  0
    4.1686   -4.5131   20.6381 C   0  0  0  0  0  0
    3.1269   -2.8075   19.3070 C   0  0  0  0  0  0
    3.2381   -4.1535   19.6448 C   0  0  0  0  0  0
    7.6253   -4.5755   23.7503 C   0  0  0  0  0  0
    7.5331   -5.9560   23.5557 C   0  0  0  0  0  0
    6.7454   -3.7106   23.1349 C   0  0  0  0  0  0
    6.5321   -6.5068   22.7084 C   0  0  0  0  0  0
    5.6489   -5.6072   22.0127 C   0  0  0  0  0  0
    6.6895   -7.9144   22.7680 N   0  0  0  0  0  0
    8.3063   -6.9948   24.0800 C   0  0  0  0  0  0
    9.4178   -6.9851   24.9429 C   0  0  0  0  0  0
    9.9947   -8.1897   25.3165 C   0  0  0  0  0  0
    9.4921   -9.3897   24.8450 C   0  0  0  0  0  0
    7.7867   -8.2223   23.5966 C   0  0  0  0  0  0
    8.3945   -9.4377   23.9909 C   0  0  0  0  0  0
    8.5988   -3.7993   24.5846 C   0  0  0  0  0  0
    8.0872   -2.4505   24.4392 N   0  0  0  0  0  0
    7.0226   -2.3218   23.6395 C   0  0  0  0  0  0
    6.4432   -1.2635   23.4160 O   0  0  0  0  0  0
    4.0786   -6.9790   20.4547 C   0  0  0  0  0  0
    5.8409   -8.8947   22.0857 C   0  0  0  0  0  0
    6.1185  -10.3889   22.3085 C   0  0  0  0  0  0
    5.1755  -11.2631   21.5983 C   0  0  0  0  0  0
    4.4379  -11.9536   21.0382 N   0  0  0  0  0  0
    5.3973   -1.4012   21.3575 H   0  0  0  0  0  0
    3.7929   -0.8052   19.6305 H   0  0  0  0  0  0
    2.4407   -2.5157   18.5245 H   0  0  0  0  0  0
    2.6481   -4.8749   19.1042 H   0  0  0  0  0  0
    9.8289   -6.0650   25.3242 H   0  0  0  0  0  0
   10.8437   -8.1960   25.9819 H   0  0  0  0  0  0
    9.9639  -10.3136   25.1468 H   0  0  0  0  0  0
    8.0828  -10.4171   23.6835 H   0  0  0  0  0  0
    9.6241   -3.8643   24.2174 H   0  0  0  0  0  0
    8.6089   -4.1132   25.6268 H   0  0  0  0  0  0
    8.5660   -1.6417   24.8193 H   0  0  0  0  0  0
    3.2771   -6.7531   19.7582 H   0  0  0  0  0  0
    4.8536   -7.4414   19.8491 H   0  0  0  0  0  0
    3.6435   -7.6350   21.1983 H   0  0  0  0  0  0
    4.8380   -8.7112   22.4416 H   0  0  0  0  0  0
    5.9242   -8.7183   21.0208 H   0  0  0  0  0  0
    7.1014  -10.6597   21.9237 H   0  0  0  0  0  0
    6.0383  -10.6535   23.3620 H   0  0  0  0  0  0
  1  6  1  0  0  0
  1 13  1  0  0  0
  1 25  1  0  0  0
  2  6  1  0  0  0
  2  3  1  0  0  0
  2  4  2  0  0  0
  3 13  2  0  0  0
  3 11  1  0  0  0
  4  5  1  0  0  0
  4 30  1  0  0  0
  5  7  2  0  0  0
  5 31  1  0  0  0
  6  8  2  0  0  0
  7  8  1  0  0  0
  7 32  1  0  0  0
  8 33  1  0  0  0
  9 10  1  0  0  0
  9 11  2  0  0  0
  9 21  1  0  0  0
 10 12  2  0  0  0
 10 15  1  0  0  0
 11 23  1  0  0  0
 12 13  1  0  0  0
 12 14  1  0  0  0
 14 19  1  0  0  0
 14 26  1  0  0  0
 15 19  2  0  0  0
 15 16  1  0  0  0
 16 17  2  0  0  0
 16 34  1  0  0  0
 17 18  1  0  0  0
 17 35  1  0  0  0
 18 20  2  0  0  0
 18 36  1  0  0  0
 19 20  1  0  0  0
 20 37  1  0  0  0
 21 22  1  0  0  0
 21 38  1  0  0  0
 21 39  1  0  0  0
 22 23  1  0  0  0
 22 40  1  0  0  0
 23 24  2  0  0  0
 25 41  1  0  0  0
 25 42  1  0  0  0
 25 43  1  0  0  0
 26 27  1  0  0  0
 26 44  1  0  0  0
 26 45  1  0  0  0
 27 28  1  0  0  0
 27 46  1  0  0  0
 27 47  1  0  0  0
 28 29  3  0  0  0
M  END
> <s_m_entry_id>
5646

> <s_m_entry_name>
dock_pv.41

> <s_m_Source_Path>
/home/csk/Desktop/cluster/DUD-E-result/igf1r

> <s_m_Source_File>
dock_pv.maegz

> <i_m_Source_File_Index>
41

> <chembl_id>
CHEMBL302449

> <chembl_pref_name>
GO-6976

> <i_lp_mmshare_version>
53161

> <r_lp_tautomer_probability>
1

> <s_lp_Force_Field>
OPLS_2005

> <r_lp_Energy>
91.344719

> <b_lp_Chiralities_Consistent>
1

> <s_lp_Variant>
CHEMBL1957_lig3337-1

> <s_i_glide_gridfile>
glide-grid_2oj9

> <i_i_glide_lignum>
4692

> <i_i_glide_rotatable_bonds>
2

> <r_i_docking_score>
-8.32297694184741

> <r_i_glide_ligand_efficiency>
-0.28699920489129

> <r_i_glide_ligand_efficiency_sa>
-0.881752485156263

> <r_i_glide_ligand_efficiency_ln>
-1.90575066719792

> <r_i_glide_gscore>
-8.32297694184741

> <r_i_glide_lipo>
-3.19240079653105

> <r_i_glide_hbond>
-0.32

> <r_i_glide_metal>
0

> <r_i_glide_rewards>
-2.51459710967194

> <r_i_glide_evdw>
-38.2734031677246

> <r_i_glide_ecoul>
-3.26702690124512

> <r_i_glide_erotb>
0.135322654470873

> <r_i_glide_esite>
-0.0275774965422948

> <r_i_glide_emodel>
-59.4212152534597

> <r_i_glide_energy>
-41.5404300689697

> <r_i_glide_einternal>
0.79731285572052

> <i_i_glide_confnum>
3

> <i_i_glide_posenum>
203

> <r_i_glide_eff_state_penalty>
0

> <s_user_duplicate_titles>
CHEMBL1957_lig3337

> <i_f3d_flags>
0

> <s_m_subgroup_title>
dock_pv

> <s_m_subgroupid>
dock_pv

> <b_m_subgroup_collapsed>
1

$$$$
CHEMBL1957_lig2966
                    3D
 Schrodinger Suite 2021-1.
 35 38  0  0  1  0            999 V2000
    4.4731   -5.2739   21.0380 C   0  0  0  0  0  0
    3.6376   -5.7333   20.0630 N   0  0  0  0  0  0
    3.1557   -4.9455   19.0958 N   0  0  0  0  0  0
    4.8413   -3.8976   21.1023 C   0  0  0  0  0  0
    4.2925   -3.0578   20.0981 C   0  0  0  0  0  0
    3.4593   -3.6545   19.1316 C   0  0  0  0  0  0
    3.0932   -2.6714   18.2392 N   0  0  0  0  0  0
    3.6396   -1.4904   18.5832 N   0  0  0  0  0  0
    4.3789   -1.6949   19.6473 C   0  0  0  0  0  0
    5.1844   -0.7270   20.1750 N   0  0  0  0  0  0
    5.0420   -6.3838   21.8907 C   0  0  0  0  0  0
    5.2784   -7.6551   21.3327 C   0  0  0  0  0  0
    5.8178   -8.6919   22.0879 C   0  0  0  0  0  0
    6.1381   -8.4741   23.4225 C   0  0  0  0  0  0
    5.9186   -7.2306   24.0023 C   0  0  0  0  0  0
    5.3676   -6.2028   23.2436 C   0  0  0  0  0  0
    5.8433   -3.3496   22.0563 C   0  0  0  0  0  0
    5.5184   -2.2818   22.9004 C   0  0  0  0  0  0
    6.4378   -1.8065   23.8310 C   0  0  0  0  0  0
    7.6914   -2.4033   23.9158 C   0  0  0  0  0  0
    8.0385   -3.4455   23.0631 C   0  0  0  0  0  0
    7.1255   -3.9026   22.1218 C   0  0  0  0  0  0
    2.5204   -2.7606   17.4052 H   0  0  0  0  0  0
    6.0383   -1.0110   20.6333 H   0  0  0  0  0  0
    5.2269    0.1849   19.7411 H   0  0  0  0  0  0
    5.0538   -7.8506   20.2941 H   0  0  0  0  0  0
    5.9900   -9.6595   21.6398 H   0  0  0  0  0  0
    6.5603   -9.2760   24.0102 H   0  0  0  0  0  0
    6.1733   -7.0593   25.0383 H   0  0  0  0  0  0
    5.2333   -5.2540   23.7301 H   0  0  0  0  0  0
    4.5339   -1.8409   22.8527 H   0  0  0  0  0  0
    6.1778   -0.9916   24.4897 H   0  0  0  0  0  0
    8.4124   -2.0532   24.6402 H   0  0  0  0  0  0
    9.0203   -3.8934   23.1268 H   0  0  0  0  0  0
    7.4044   -4.7140   21.4648 H   0  0  0  0  0  0
  1  2  2  0  0  0
  1 11  1  0  0  0
  1  4  1  0  0  0
  2  3  1  0  0  0
  3  6  2  0  0  0
  4  5  2  0  0  0
  4 17  1  0  0  0
  5  6  1  0  0  0
  5  9  1  0  0  0
  6  7  1  0  0  0
  7  8  1  0  0  0
  7 23  1  0  0  0
  8  9  2  0  0  0
  9 10  1  0  0  0
 10 24  1  0  0  0
 10 25  1  0  0  0
 11 12  2  0  0  0
 11 16  1  0  0  0
 12 13  1  0  0  0
 12 26  1  0  0  0
 13 14  2  0  0  0
 13 27  1  0  0  0
 14 15  1  0  0  0
 14 28  1  0  0  0
 15 16  2  0  0  0
 15 29  1  0  0  0
 16 30  1  0  0  0
 17 18  2  0  0  0
 17 22  1  0  0  0
 18 19  1  0  0  0
 18 31  1  0  0  0
 19 20  2  0  0  0
 19 32  1  0  0  0
 20 21  1  0  0  0
 20 33  1  0  0  0
 21 22  2  0  0  0
 21 34  1  0  0  0
 22 35  1  0  0  0
M  END
> <s_m_entry_id>
5647

> <s_m_entry_name>
dock_pv.42

> <s_m_Source_Path>
/home/csk/Desktop/cluster/DUD-E-result/igf1r

> <s_m_Source_File>
dock_pv.maegz

> <i_m_Source_File_Index>
42

> <chembl_id>
CHEMBL260135

> <chembl_pref_name>
None

> <i_lp_mmshare_version>
53161

> <r_lp_tautomer_probability>
1

> <s_lp_Force_Field>
OPLS_2005

> <r_lp_Energy>
34.465984

> <b_lp_Chiralities_Consistent>
1

> <s_lp_Variant>
CHEMBL1957_lig2966-1

> <s_i_glide_gridfile>
glide-grid_2oj9

> <i_i_glide_lignum>
4101

> <i_i_glide_rotatable_bonds>
2

> <r_i_docking_score>
-8.31168463832763

> <r_i_glide_ligand_efficiency>
-0.37780384719671

> <r_i_glide_ligand_efficiency_sa>
-1.05862123802735

> <r_i_glide_ligand_efficiency_ln>
-2.0316789016708

> <r_i_glide_gscore>
-8.31168463832763

> <r_i_glide_lipo>
-3.18028887920458

> <r_i_glide_hbond>
-0.32

> <r_i_glide_metal>
0

> <r_i_glide_rewards>
-2.77510031818182

> <r_i_glide_evdw>
-36.0821914672852

> <r_i_glide_ecoul>
-4.48334217071533

> <r_i_glide_erotb>
0.440315458030332

> <r_i_glide_esite>
0

> <r_i_glide_emodel>
-58.0792103073428

> <r_i_glide_energy>
-40.5655336380005

> <r_i_glide_einternal>
0.973893940448761

> <i_i_glide_confnum>
1

> <i_i_glide_posenum>
374

> <r_i_glide_eff_state_penalty>
0

> <s_user_duplicate_titles>
CHEMBL1957_lig2966

> <i_f3d_flags>
0

> <s_m_subgroup_title>
dock_pv

> <s_m_subgroupid>
dock_pv

> <b_m_subgroup_collapsed>
1

$$$$
CHEMBL1957_lig1549
                    3D
 Schrodinger Suite 2021-1.
 40 43  0  0  1  0            999 V2000
    3.8271   -7.0079   19.4402 N   0  0  0  0  0  0
    4.7994   -9.0034   20.1432 N   0  0  0  0  0  0
    4.7510   -7.6542   20.2830 C   0  0  0  0  0  0
    5.5264   -6.9467   21.1503 N   0  0  0  0  0  0
    6.4000   -7.6432   21.9367 C   0  0  0  0  0  0
    7.2726   -6.9662   22.8099 N   0  0  0  0  0  0
    5.6381   -9.6849   20.9606 C   0  0  0  0  0  0
    6.4695   -9.0424   21.8760 C   0  0  0  0  0  0
    7.6568  -10.0688   22.9619 Br  0  0  0  0  0  0
    7.3735   -5.6231   23.2089 C   0  0  0  0  0  0
    3.4922   -5.6835   19.3383 C   0  0  0  0  0  0
    6.3104   -4.7358   23.0602 C   0  0  0  0  0  0
    6.4366   -3.4089   23.4384 C   0  0  0  0  0  0
    7.5973   -2.9728   24.0468 C   0  0  0  0  0  0
    8.6653   -3.8505   24.2375 C   0  0  0  0  0  0
    8.5576   -5.1741   23.8027 C   0  0  0  0  0  0
    3.6381   -4.6296   20.2383 C   0  0  0  0  0  0
    3.4128   -3.4596   19.5461 C   0  0  0  0  0  0
    2.9645   -3.9033   18.3327 N   0  0  0  0  0  0
    2.9593   -5.2389   18.2322 N   0  0  0  0  0  0
    7.6377   -1.6553   24.4860 N   0  0  0  0  0  0
    3.6357   -2.0153   19.9110 C   0  0  0  0  0  0
    5.0361   -1.5874   20.2920 C   0  0  0  0  0  0
    4.4105   -1.0947   19.0039 C   0  0  0  0  0  0
    3.4907   -7.6469   18.7341 H   0  0  0  0  0  0
    7.9453   -7.5778   23.2482 H   0  0  0  0  0  0
    5.6510  -10.7607   20.8540 H   0  0  0  0  0  0
    5.3615   -5.0724   22.6954 H   0  0  0  0  0  0
    5.6015   -2.7382   23.3048 H   0  0  0  0  0  0
    9.5773   -3.5117   24.7064 H   0  0  0  0  0  0
    9.3933   -5.8460   23.9380 H   0  0  0  0  0  0
    4.0375   -4.6972   21.2307 H   0  0  0  0  0  0
    2.6549   -3.3068   17.5752 H   0  0  0  0  0  0
    8.5601   -1.2586   24.6510 H   0  0  0  0  0  0
    6.9233   -1.0402   24.1317 H   0  0  0  0  0  0
    2.8138   -1.5750   20.4748 H   0  0  0  0  0  0
    5.8388   -2.3255   20.2417 H   0  0  0  0  0  0
    5.1929   -0.8776   21.1031 H   0  0  0  0  0  0
    4.1005   -0.0540   18.9363 H   0  0  0  0  0  0
    4.7889   -1.4786   18.0568 H   0  0  0  0  0  0
  1 11  1  0  0  0
  1  3  1  0  0  0
  1 25  1  0  0  0
  2  7  1  0  0  0
  2  3  2  0  0  0
  3  4  1  0  0  0
  4  5  2  0  0  0
  5  8  1  0  0  0
  5  6  1  0  0  0
  6 10  1  0  0  0
  6 26  1  0  0  0
  7  8  2  0  0  0
  7 27  1  0  0  0
  8  9  1  0  0  0
 10 12  2  0  0  0
 10 16  1  0  0  0
 11 20  2  0  0  0
 11 17  1  0  0  0
 12 13  1  0  0  0
 12 28  1  0  0  0
 13 14  2  0  0  0
 13 29  1  0  0  0
 14 15  1  0  0  0
 14 21  1  0  0  0
 15 16  2  0  0  0
 15 30  1  0  0  0
 16 31  1  0  0  0
 17 18  2  0  0  0
 17 32  1  0  0  0
 18 22  1  0  0  0
 18 19  1  0  0  0
 19 33  1  0  0  0
 19 20  1  0  0  0
 21 34  1  0  0  0
 21 35  1  0  0  0
 22 23  1  0  0  0
 22 24  1  0  0  0
 22 36  1  0  0  0
 23 24  1  0  0  0
 23 37  1  0  0  0
 23 38  1  0  0  0
 24 39  1  0  0  0
 24 40  1  0  0  0
M  END
> <s_m_entry_id>
5648

> <s_m_entry_name>
dock_pv.43

> <s_m_Source_Path>
/home/csk/Desktop/cluster/DUD-E-result/igf1r

> <s_m_Source_File>
dock_pv.maegz

> <i_m_Source_File_Index>
43

> <chembl_id>
CHEMBL3959430

> <chembl_pref_name>
None

> <i_lp_mmshare_version>
53161

> <r_lp_tautomer_probability>
0.842599949391031

> <s_lp_Force_Field>
OPLS_2005

> <r_lp_Energy>
17.492372

> <b_lp_Chiralities_Consistent>
1

> <s_lp_Variant>
CHEMBL1957_lig1549-1

> <s_i_glide_gridfile>
glide-grid_2oj9

> <i_i_glide_lignum>
2215

> <i_i_glide_rotatable_bonds>
5

> <r_i_docking_score>
-8.30084373017201

> <r_i_glide_ligand_efficiency>
-0.345868488757167

> <r_i_glide_ligand_efficiency_sa>
-0.997657357528924

> <r_i_glide_ligand_efficiency_ln>
-1.9867728055291

> <r_i_glide_gscore>
-8.30084373017201

> <r_i_glide_lipo>
-3.03398882098277

> <r_i_glide_hbond>
-0.812862836438537

> <r_i_glide_metal>
0

> <r_i_glide_rewards>
-1.95265793457488

> <r_i_glide_evdw>
-32.878246307373

> <r_i_glide_ecoul>
-8.55839252471924

> <r_i_glide_erotb>
0.45657040503698

> <r_i_glide_esite>
-0.0302333491362558

> <r_i_glide_emodel>
-58.6118882821959

> <r_i_glide_energy>
-41.4366388320923

> <r_i_glide_einternal>
6.69276428222656

> <i_i_glide_confnum>
23

> <i_i_glide_posenum>
88

> <r_i_glide_eff_state_penalty>
0

> <s_user_duplicate_titles>
CHEMBL1957_lig1549

> <i_f3d_flags>
0

> <s_m_subgroup_title>
dock_pv

> <s_m_subgroupid>
dock_pv

> <b_m_subgroup_collapsed>
1

$$$$
CHEMBL1957_lig564
                    3D
 Schrodinger Suite 2021-1.
 60 64  0  0  1  0            999 V2000
    6.7893   -8.7562   23.4793 C   0  0  0  0  0  0
    6.4818   -9.6151   22.4057 C   0  0  0  0  0  0
    5.6649   -9.2579   21.3222 C   0  0  0  0  0  0
    6.2268   -7.4678   23.4807 C   0  0  0  0  0  0
    5.4369   -7.0625   22.4016 C   0  0  0  0  0  0
    5.1837   -7.9468   21.3398 C   0  0  0  0  0  0
    4.4382   -7.1878   20.4652 N   0  0  0  0  0  0
    4.3000   -5.9125   20.9830 C   0  0  0  0  0  0
    4.8450   -5.8521   22.1802 N   0  0  0  0  0  0
    5.3695  -10.2819   20.2437 C   0  0  0  0  0  0
    3.7239   -4.7329   20.2380 C   0  0  0  0  0  0
    3.8194   -3.4379   20.6942 C   0  0  0  0  0  0
    3.4816   -2.3339   19.8036 C   0  0  0  0  0  0
    3.2391   -2.6227   18.5172 C   0  0  0  0  0  0
    3.1726   -3.8952   18.0459 N   0  0  0  0  0  0
    3.2380   -4.9808   18.8607 C   0  0  0  0  0  0
    2.8381   -6.0540   18.4199 O   0  0  0  0  0  0
    7.6876   -9.1480   24.4844 N   0  0  0  0  0  0
    7.7804  -10.5624   24.9144 C   0  0  0  0  0  0
    8.9596  -10.8983   25.8520 C   0  0  0  0  0  0
    9.0059   -9.9916   26.9403 O   0  0  0  0  0  0
    9.2227   -8.6688   26.4788 C   0  0  0  0  0  0
    8.0429   -8.2332   25.5947 C   0  0  0  0  0  0
    4.4371   -3.1607   21.8904 N   0  0  0  0  0  0
    5.3346   -2.0732   22.2498 C   0  0  0  0  0  0
    6.8189   -2.3519   21.9477 C   0  0  1  0  0  0
    7.6040   -3.2219   22.9431 C   0  0  0  0  0  0
    6.8378   -2.8540   20.6381 O   0  0  0  0  0  0
    8.1121   -4.4740   22.5554 C   0  0  0  0  0  0
    8.9526   -5.1997   23.3965 C   0  0  0  0  0  0
    9.3168   -4.6742   24.6322 C   0  0  0  0  0  0
    8.8370   -3.4289   25.0284 C   0  0  0  0  0  0
    7.9376   -2.7264   24.2153 C   0  0  0  0  0  0
    7.2373   -1.2534   24.8052 Cl  0  0  0  0  0  0
    6.8958  -10.6092   22.3857 H   0  0  0  0  0  0
    6.4139   -6.7676   24.2793 H   0  0  0  0  0  0
    4.0765   -7.4393   19.5535 H   0  0  0  0  0  0
    6.1647  -11.0243   20.1534 H   0  0  0  0  0  0
    4.4394  -10.8050   20.4689 H   0  0  0  0  0  0
    5.2479   -9.7947   19.2753 H   0  0  0  0  0  0
    3.4394   -1.3170   20.1595 H   0  0  0  0  0  0
    2.9455   -1.8956   17.7716 H   0  0  0  0  0  0
    2.7990   -4.0760   17.1240 H   0  0  0  0  0  0
    6.8426  -10.8639   25.3750 H   0  0  0  0  0  0
    7.9090  -11.2032   24.0468 H   0  0  0  0  0  0
    9.9036  -10.8904   25.3045 H   0  0  0  0  0  0
    8.8438  -11.9099   26.2443 H   0  0  0  0  0  0
   10.1683   -8.5893   25.9427 H   0  0  0  0  0  0
    9.3009   -7.9989   27.3355 H   0  0  0  0  0  0
    8.3118   -7.2642   25.1808 H   0  0  0  0  0  0
    7.1702   -8.0730   26.2237 H   0  0  0  0  0  0
    4.6382   -3.9962   22.4318 H   0  0  0  0  0  0
    5.1749   -1.8214   23.2974 H   0  0  0  0  0  0
    5.0534   -1.1843   21.6917 H   0  0  0  0  0  0
    7.3162   -1.3841   21.9088 H   0  0  0  0  0  0
    5.9793   -3.2600   20.4910 H   0  0  0  0  0  0
    7.8837   -4.8881   21.5848 H   0  0  0  0  0  0
    9.3443   -6.1560   23.0786 H   0  0  0  0  0  0
    9.9728   -5.2321   25.2825 H   0  0  0  0  0  0
    9.1299   -3.0289   25.9875 H   0  0  0  0  0  0
  1 18  1  0  0  0
  1  4  1  0  0  0
  1  2  2  0  0  0
  2  3  1  0  0  0
  2 35  1  0  0  0
  3 10  1  0  0  0
  3  6  2  0  0  0
  4  5  2  0  0  0
  4 36  1  0  0  0
  5  9  1  0  0  0
  5  6  1  0  0  0
  6  7  1  0  0  0
  7  8  1  0  0  0
  7 37  1  0  0  0
  8  9  2  0  0  0
  8 11  1  0  0  0
 10 38  1  0  0  0
 10 39  1  0  0  0
 10 40  1  0  0  0
 11 16  1  0  0  0
 11 12  2  0  0  0
 12 24  1  0  0  0
 12 13  1  0  0  0
 13 14  2  0  0  0
 13 41  1  0  0  0
 14 15  1  0  0  0
 14 42  1  0  0  0
 15 16  1  0  0  0
 15 43  1  0  0  0
 16 17  2  0  0  0
 18 19  1  0  0  0
 18 23  1  0  0  0
 19 20  1  0  0  0
 19 44  1  0  0  0
 19 45  1  0  0  0
 20 21  1  0  0  0
 20 46  1  0  0  0
 20 47  1  0  0  0
 21 22  1  0  0  0
 22 23  1  0  0  0
 22 48  1  0  0  0
 22 49  1  0  0  0
 23 50  1  0  0  0
 23 51  1  0  0  0
 24 25  1  0  0  0
 24 52  1  0  0  0
 25 26  1  0  0  0
 25 53  1  0  0  0
 25 54  1  0  0  0
 26 27  1  0  0  0
 26 28  1  0  0  0
 26 55  1  0  0  0
 27 29  2  0  0  0
 27 33  1  0  0  0
 28 56  1  0  0  0
 29 30  1  0  0  0
 29 57  1  0  0  0
 30 31  2  0  0  0
 30 58  1  0  0  0
 31 32  1  0  0  0
 31 59  1  0  0  0
 32 33  2  0  0  0
 32 60  1  0  0  0
 33 34  1  0  0  0
M  END
> <s_m_entry_id>
5649

> <s_m_entry_name>
dock_pv.44

> <s_m_Source_Path>
/home/csk/Desktop/cluster/DUD-E-result/igf1r

> <s_m_Source_File>
dock_pv.maegz

> <i_m_Source_File_Index>
44

> <chembl_id>
CHEMBL551523

> <chembl_pref_name>
None

> <i_lp_mmshare_version>
53161

> <r_lp_tautomer_probability>
0.999206294981429

> <s_lp_Force_Field>
OPLS_2005

> <r_lp_Energy>
55.11245

> <b_lp_Chiralities_Consistent>
1

> <s_lp_Variant>
CHEMBL1957_lig564-1

> <s_i_glide_gridfile>
glide-grid_2oj9

> <i_i_glide_lignum>
757

> <i_i_glide_rotatable_bonds>
7

> <r_i_docking_score>
-8.29352035905162

> <r_i_glide_ligand_efficiency>
-0.243927069383871

> <r_i_glide_ligand_efficiency_sa>
-0.790229011698143

> <r_i_glide_ligand_efficiency_ln>
-1.83227127268103

> <r_i_glide_gscore>
-8.29352035905162

> <r_i_glide_lipo>
-3.8774413277669

> <r_i_glide_hbond>
-0.469690429169966

> <r_i_glide_metal>
0

> <r_i_glide_rewards>
-1.43951100307211

> <r_i_glide_evdw>
-42.282154083252

> <r_i_glide_ecoul>
-4.67219209671021

> <r_i_glide_erotb>
0.308058919626486

> <r_i_glide_esite>
0

> <r_i_glide_emodel>
-63.7126699257918

> <r_i_glide_energy>
-46.9543461799622

> <r_i_glide_einternal>
8.1661434173584

> <i_i_glide_confnum>
26

> <i_i_glide_posenum>
374

> <r_i_glide_eff_state_penalty>
0

> <s_user_duplicate_titles>
CHEMBL1957_lig564

> <i_f3d_flags>
0

> <s_m_subgroup_title>
dock_pv

> <s_m_subgroupid>
dock_pv

> <b_m_subgroup_collapsed>
1

$$$$
CHEMBL1957_lig1617
                    3D
 Schrodinger Suite 2021-1.
 56 60  0  0  1  0            999 V2000
    3.7098   -2.6994   19.1936 C   0  0  0  0  0  0
    3.2380   -3.5947   18.2319 C   0  0  0  0  0  0
    3.2270   -4.9416   18.4226 N   0  0  0  0  0  0
    3.6373   -5.3893   19.6343 C   0  0  0  0  0  0
    4.0379   -4.5812   20.6394 N   0  0  0  0  0  0
    4.1193   -3.2453   20.4147 C   0  0  0  0  0  0
    4.7964   -2.4601   21.3648 N   0  0  0  0  0  0
    3.8820   -6.7670   19.7246 N   0  0  0  0  0  0
    5.8890   -2.8247   22.1759 C   0  0  0  0  0  0
    4.5859   -7.5778   20.6359 C   0  0  0  0  0  0
    3.9290   -0.8553   18.7636 Br  0  0  0  0  0  0
    4.8385   -8.8894   20.2381 C   0  0  0  0  0  0
    5.6035   -9.7370   21.0336 C   0  0  0  0  0  0
    6.1472   -9.2887   22.2448 C   0  0  0  0  0  0
    5.8290   -7.9936   22.6730 C   0  0  0  0  0  0
    5.0550   -7.1479   21.8829 C   0  0  0  0  0  0
    6.2166   -2.0602   23.2952 C   0  0  0  0  0  0
    7.2802   -2.4419   24.1169 C   0  0  0  0  0  0
    6.6871   -3.9301   21.8724 C   0  0  0  0  0  0
    7.7511   -4.3236   22.6765 C   0  0  0  0  0  0
    8.0376   -3.5873   23.8382 C   0  0  0  0  0  0
    9.1464   -4.0717   24.7734 C   0  0  0  0  0  0
   10.0379   -5.1795   24.1573 C   0  0  0  0  0  0
    9.2611   -6.1599   23.4095 N   0  0  1  0  0  0
    8.6281   -5.5051   22.2729 C   0  0  0  0  0  0
    6.9731  -10.1015   23.0230 N   0  0  0  0  0  0
    7.2245  -11.5245   22.7367 C   0  0  0  0  0  0
    8.3855  -11.6801   21.7223 C   0  0  0  0  0  0
    9.5650  -11.0584   22.2312 O   0  0  0  0  0  0
    9.3793   -9.6899   22.5949 C   0  0  0  0  0  0
    8.2171   -9.5743   23.6122 C   0  0  0  0  0  0
    2.9409   -3.2394   17.2582 H   0  0  0  0  0  0
    4.6483   -1.4684   21.2670 H   0  0  0  0  0  0
    3.6909   -7.2396   18.8515 H   0  0  0  0  0  0
    4.4692   -9.2555   19.2901 H   0  0  0  0  0  0
    5.7944  -10.7345   20.6684 H   0  0  0  0  0  0
    6.1874   -7.6231   23.6220 H   0  0  0  0  0  0
    4.8505   -6.1630   22.2677 H   0  0  0  0  0  0
    5.6367   -1.1853   23.5469 H   0  0  0  0  0  0
    7.5092   -1.8523   24.9920 H   0  0  0  0  0  0
    6.4923   -4.5177   20.9960 H   0  0  0  0  0  0
    8.6828   -4.4712   25.6754 H   0  0  0  0  0  0
    9.7657   -3.2350   25.0981 H   0  0  0  0  0  0
   10.8184   -4.7447   23.5292 H   0  0  0  0  0  0
   10.5574   -5.7085   24.9555 H   0  0  0  0  0  0
    9.9094   -6.8527   23.0512 H   0  0  0  0  0  0
    9.3798   -5.1693   21.5568 H   0  0  0  0  0  0
    8.0274   -6.2617   21.7659 H   0  0  0  0  0  0
    7.4789  -12.0386   23.6650 H   0  0  0  0  0  0
    6.3158  -12.0145   22.3862 H   0  0  0  0  0  0
    8.1301  -11.2642   20.7469 H   0  0  0  0  0  0
    8.5954  -12.7374   21.5611 H   0  0  0  0  0  0
    9.1933   -9.0814   21.7080 H   0  0  0  0  0  0
   10.3050   -9.3199   23.0377 H   0  0  0  0  0  0
    8.1006   -8.5466   23.9518 H   0  0  0  0  0  0
    8.4608  -10.1406   24.5128 H   0  0  0  0  0  0
  1  2  2  0  0  0
  1  6  1  0  0  0
  1 11  1  0  0  0
  2  3  1  0  0  0
  2 32  1  0  0  0
  3  4  2  0  0  0
  4  5  1  0  0  0
  4  8  1  0  0  0
  5  6  2  0  0  0
  6  7  1  0  0  0
  7  9  1  0  0  0
  7 33  1  0  0  0
  8 10  1  0  0  0
  8 34  1  0  0  0
  9 17  2  0  0  0
  9 19  1  0  0  0
 10 12  2  0  0  0
 10 16  1  0  0  0
 12 13  1  0  0  0
 12 35  1  0  0  0
 13 14  2  0  0  0
 13 36  1  0  0  0
 14 15  1  0  0  0
 14 26  1  0  0  0
 15 16  2  0  0  0
 15 37  1  0  0  0
 16 38  1  0  0  0
 17 18  1  0  0  0
 17 39  1  0  0  0
 18 21  2  0  0  0
 18 40  1  0  0  0
 19 20  2  0  0  0
 19 41  1  0  0  0
 20 21  1  0  0  0
 20 25  1  0  0  0
 21 22  1  0  0  0
 22 23  1  0  0  0
 22 42  1  0  0  0
 22 43  1  0  0  0
 23 24  1  0  0  0
 23 44  1  0  0  0
 23 45  1  0  0  0
 24 25  1  0  0  0
 24 46  1  0  0  0
 25 47  1  0  0  0
 25 48  1  0  0  0
 26 27  1  0  0  0
 26 31  1  0  0  0
 27 28  1  0  0  0
 27 49  1  0  0  0
 27 50  1  0  0  0
 28 29  1  0  0  0
 28 51  1  0  0  0
 28 52  1  0  0  0
 29 30  1  0  0  0
 30 31  1  0  0  0
 30 53  1  0  0  0
 30 54  1  0  0  0
 31 55  1  0  0  0
 31 56  1  0  0  0
M  END
> <s_m_entry_id>
5650

> <s_m_entry_name>
dock_pv.45

> <s_m_Source_Path>
/home/csk/Desktop/cluster/DUD-E-result/igf1r

> <s_m_Source_File>
dock_pv.maegz

> <i_m_Source_File_Index>
45

> <chembl_id>
CHEMBL3904134

> <chembl_pref_name>
None

> <i_lp_mmshare_version>
53161

> <r_lp_tautomer_probability>
0.999999624730965

> <s_lp_Force_Field>
OPLS_2005

> <r_lp_Energy>
40.707822

> <b_lp_Chiralities_Consistent>
1

> <s_lp_Variant>
CHEMBL1957_lig1617-1

> <s_i_glide_gridfile>
glide-grid_2oj9

> <i_i_glide_lignum>
2342

> <i_i_glide_rotatable_bonds>
5

> <r_i_docking_score>
-8.26702184779723

> <r_i_glide_ligand_efficiency>
-0.266678124122491

> <r_i_glide_ligand_efficiency_sa>
-0.837737498575498

> <r_i_glide_ligand_efficiency_ln>
-1.86446678047127

> <r_i_glide_gscore>
-8.26702184779723

> <r_i_glide_lipo>
-3.98144049043701

> <r_i_glide_hbond>
-0.242565286860224

> <r_i_glide_metal>
0

> <r_i_glide_rewards>
-1.65743741091409

> <r_i_glide_evdw>
-48.1633491516113

> <r_i_glide_ecoul>
-2.76739382743835

> <r_i_glide_erotb>
0.437697872110402

> <r_i_glide_esite>
0

> <r_i_glide_emodel>
-68.3137903106196

> <r_i_glide_energy>
-50.9307429790497

> <r_i_glide_einternal>
7.83224821090698

> <i_i_glide_confnum>
7

> <i_i_glide_posenum>
163

> <r_i_glide_eff_state_penalty>
0

> <s_user_duplicate_titles>
CHEMBL1957_lig1617

> <i_f3d_flags>
0

> <s_m_subgroup_title>
dock_pv

> <s_m_subgroupid>
dock_pv

> <b_m_subgroup_collapsed>
1

$$$$
CHEMBL1957_lig1429
                    3D
 Schrodinger Suite 2021-1.
 48 51  0  0  1  0            999 V2000
    4.8378   -8.6113   20.2382 C   0  0  0  0  0  0
    5.5562   -9.2110   21.2782 C   0  0  0  0  0  0
    5.7916   -8.5807   22.4588 N   0  0  0  0  0  0
    5.2715   -7.3298   22.5832 C   0  0  0  0  0  0
    4.5637   -6.6836   21.6371 N   0  0  0  0  0  0
    4.3619   -7.3156   20.4571 C   0  0  0  0  0  0
    3.6428   -6.6679   19.4379 N   0  0  0  0  0  0
    5.4408   -6.5891   23.7522 N   0  0  0  0  0  0
    3.3717   -5.3251   19.3144 C   0  0  0  0  0  0
    3.6379   -4.2648   20.1966 C   0  0  0  0  0  0
    3.4406   -3.0970   19.5028 C   0  0  0  0  0  0
    2.9692   -3.5199   18.2896 N   0  0  0  0  0  0
    2.9057   -4.8545   18.1795 N   0  0  0  0  0  0
    3.6959   -1.6698   19.8953 C   0  0  0  0  0  0
    5.0977   -1.3033   20.3320 C   0  0  0  0  0  0
    4.5303   -0.7362   19.0497 C   0  0  0  0  0  0
    6.3240   -6.9888   24.8330 C   0  0  0  0  0  0
    7.7755   -6.6445   24.5406 C   0  0  0  0  0  0
    8.7204   -7.6721   24.6009 C   0  0  0  0  0  0
   10.0728   -7.3897   24.4496 C   0  0  0  0  0  0
   10.4856   -6.0792   24.2380 C   0  0  0  0  0  0
    9.5524   -5.0521   24.1466 C   0  0  0  0  0  0
    8.1817   -5.3166   24.2972 C   0  0  0  0  0  0
    7.2094   -4.3303   24.2365 O   0  0  0  0  0  0
    7.5908   -2.9959   23.9144 C   0  0  0  0  0  0
    6.1179  -10.6124   21.1495 C   0  0  0  0  0  0
    4.6648   -9.1289   19.3080 H   0  0  0  0  0  0
    3.6058   -7.2384   18.6026 H   0  0  0  0  0  0
    5.0925   -5.6423   23.7567 H   0  0  0  0  0  0
    4.0414   -4.3198   21.1936 H   0  0  0  0  0  0
    2.6851   -2.9102   17.5328 H   0  0  0  0  0  0
    2.8773   -1.2511   20.4745 H   0  0  0  0  0  0
    5.2380   -0.6454   21.1882 H   0  0  0  0  0  0
    5.8849   -2.0556   20.2654 H   0  0  0  0  0  0
    4.9301   -1.0882   18.0994 H   0  0  0  0  0  0
    4.3120    0.3307   19.0392 H   0  0  0  0  0  0
    6.2147   -8.0534   25.0377 H   0  0  0  0  0  0
    6.0232   -6.4539   25.7308 H   0  0  0  0  0  0
    8.4101   -8.6915   24.7820 H   0  0  0  0  0  0
   10.8025   -8.1837   24.4933 H   0  0  0  0  0  0
   11.5374   -5.8661   24.1085 H   0  0  0  0  0  0
    9.9191   -4.0549   23.9624 H   0  0  0  0  0  0
    6.7036   -2.3645   23.8894 H   0  0  0  0  0  0
    8.2705   -2.5782   24.6580 H   0  0  0  0  0  0
    8.0591   -2.9420   22.9312 H   0  0  0  0  0  0
    5.7655  -11.1037   20.2408 H   0  0  0  0  0  0
    7.2066  -10.5808   21.1181 H   0  0  0  0  0  0
    5.8164  -11.2230   22.0023 H   0  0  0  0  0  0
  1  2  2  0  0  0
  1  6  1  0  0  0
  1 27  1  0  0  0
  2  3  1  0  0  0
  2 26  1  0  0  0
  3  4  2  0  0  0
  4  5  1  0  0  0
  4  8  1  0  0  0
  5  6  2  0  0  0
  6  7  1  0  0  0
  7  9  1  0  0  0
  7 28  1  0  0  0
  8 17  1  0  0  0
  8 29  1  0  0  0
  9 10  1  0  0  0
  9 13  2  0  0  0
 10 11  2  0  0  0
 10 30  1  0  0  0
 11 12  1  0  0  0
 11 14  1  0  0  0
 12 13  1  0  0  0
 12 31  1  0  0  0
 14 15  1  0  0  0
 14 16  1  0  0  0
 14 32  1  0  0  0
 15 16  1  0  0  0
 15 33  1  0  0  0
 15 34  1  0  0  0
 16 35  1  0  0  0
 16 36  1  0  0  0
 17 18  1  0  0  0
 17 37  1  0  0  0
 17 38  1  0  0  0
 18 19  2  0  0  0
 18 23  1  0  0  0
 19 20  1  0  0  0
 19 39  1  0  0  0
 20 21  2  0  0  0
 20 40  1  0  0  0
 21 22  1  0  0  0
 21 41  1  0  0  0
 22 23  2  0  0  0
 22 42  1  0  0  0
 23 24  1  0  0  0
 24 25  1  0  0  0
 25 43  1  0  0  0
 25 44  1  0  0  0
 25 45  1  0  0  0
 26 46  1  0  0  0
 26 47  1  0  0  0
 26 48  1  0  0  0
M  END
> <s_m_entry_id>
5651

> <s_m_entry_name>
dock_pv.46

> <s_m_Source_Path>
/home/csk/Desktop/cluster/DUD-E-result/igf1r

> <s_m_Source_File>
dock_pv.maegz

> <i_m_Source_File_Index>
46

> <chembl_id>
CHEMBL3910986

> <chembl_pref_name>
None

> <i_lp_mmshare_version>
53161

> <r_lp_tautomer_probability>
0.842599732729633

> <s_lp_Force_Field>
OPLS_2005

> <r_lp_Energy>
11.71681

> <b_lp_Chiralities_Consistent>
1

> <s_lp_Variant>
CHEMBL1957_lig1429-1

> <s_i_glide_gridfile>
glide-grid_2oj9

> <i_i_glide_lignum>
1993

> <i_i_glide_rotatable_bonds>
7

> <r_i_docking_score>
-8.24035681578127

> <r_i_glide_ligand_efficiency>
-0.316936800606972

> <r_i_glide_ligand_efficiency_sa>
-0.938924024712064

> <r_i_glide_ligand_efficiency_ln>
-1.93522075937013

> <r_i_glide_gscore>
-8.24035681578127

> <r_i_glide_lipo>
-2.96620208340081

> <r_i_glide_hbond>
-0.551397134673033

> <r_i_glide_metal>
0

> <r_i_glide_rewards>
-2.61995435555007

> <r_i_glide_evdw>
-38.4445152282715

> <r_i_glide_ecoul>
-5.55018186569214

> <r_i_glide_erotb>
0.651949799110038

> <r_i_glide_esite>
0

> <r_i_glide_emodel>
-60.5689891111328

> <r_i_glide_energy>
-43.9946970939636

> <r_i_glide_einternal>
4.91227102279663

> <i_i_glide_confnum>
26

> <i_i_glide_posenum>
176

> <r_i_glide_eff_state_penalty>
0

> <s_user_duplicate_titles>
CHEMBL1957_lig1429

> <i_f3d_flags>
0

> <s_m_subgroup_title>
dock_pv

> <s_m_subgroupid>
dock_pv

> <b_m_subgroup_collapsed>
1

$$$$
CHEMBL1957_lig1432
                    3D
 Schrodinger Suite 2021-1.
 41 45  0  0  1  0            999 V2000
    3.3154   -4.6298   19.5706 N   0  0  0  0  0  0
    4.0380   -5.0652   20.6380 C   0  0  0  0  0  0
    4.8377   -4.3097   21.4377 N   0  0  0  0  0  0
    4.9878   -2.9937   21.1533 C   0  0  0  0  0  0
    5.8197   -2.1945   21.9488 N   0  0  0  0  0  0
    4.0382   -6.4493   20.8373 N   0  0  0  0  0  0
    6.7524   -2.6137   22.8637 C   0  0  0  0  0  0
    7.3579   -3.8698   23.0209 C   0  0  0  0  0  0
    8.2652   -3.7627   24.0558 C   0  0  0  0  0  0
    8.1408   -2.4540   24.4350 N   0  0  0  0  0  0
    7.2377   -1.7606   23.7331 N   0  0  0  0  0  0
    9.2377   -4.7316   24.6905 C   0  0  0  0  0  0
    9.1081   -6.2119   24.4231 C   0  0  0  0  0  0
   10.2648   -5.4365   23.8382 C   0  0  0  0  0  0
    4.7796   -7.2542   21.7236 C   0  0  0  0  0  0
    5.2381   -8.5178   21.3074 C   0  0  0  0  0  0
    6.0213   -9.2995   22.1590 C   0  0  0  0  0  0
    6.3398   -8.8448   23.4361 C   0  0  0  0  0  0
    5.8639   -7.6099   23.8689 C   0  0  0  0  0  0
    5.0900   -6.8227   23.0208 C   0  0  0  0  0  0
    4.8380   -9.1667   19.7545 Cl  0  0  0  0  0  0
    3.5309   -3.3383   19.2953 C   0  0  0  0  0  0
    4.3410   -2.4486   20.0382 C   0  0  0  0  0  0
    4.3660   -1.1982   19.4777 N   0  0  0  0  0  0
    3.6380   -1.3323   18.3991 C   0  0  0  0  0  0
    3.0853   -2.5850   18.2383 N   0  0  0  0  0  0
    5.8211   -1.2333   21.6477 H   0  0  0  0  0  0
    3.6073   -6.9475   20.0740 H   0  0  0  0  0  0
    7.1736   -4.7560   22.4330 H   0  0  0  0  0  0
    8.7275   -2.0031   25.1233 H   0  0  0  0  0  0
    9.5493   -4.4503   25.6975 H   0  0  0  0  0  0
    8.3403   -6.5708   23.7409 H   0  0  0  0  0  0
    9.2869   -6.9012   25.2492 H   0  0  0  0  0  0
   11.2607   -5.6327   24.2368 H   0  0  0  0  0  0
   10.2896   -5.2267   22.7674 H   0  0  0  0  0  0
    6.3712  -10.2681   21.8335 H   0  0  0  0  0  0
    6.9394   -9.4559   24.0951 H   0  0  0  0  0  0
    6.0982   -7.2550   24.8628 H   0  0  0  0  0  0
    4.7343   -5.8728   23.3888 H   0  0  0  0  0  0
    3.4383   -0.5606   17.6706 H   0  0  0  0  0  0
    2.4969   -2.8547   17.4588 H   0  0  0  0  0  0
  1 22  1  0  0  0
  1  2  2  0  0  0
  2  3  1  0  0  0
  2  6  1  0  0  0
  3  4  2  0  0  0
  4 23  1  0  0  0
  4  5  1  0  0  0
  5  7  1  0  0  0
  5 27  1  0  0  0
  6 15  1  0  0  0
  6 28  1  0  0  0
  7 11  2  0  0  0
  7  8  1  0  0  0
  8  9  2  0  0  0
  8 29  1  0  0  0
  9 12  1  0  0  0
  9 10  1  0  0  0
 10 30  1  0  0  0
 10 11  1  0  0  0
 12 13  1  0  0  0
 12 14  1  0  0  0
 12 31  1  0  0  0
 13 14  1  0  0  0
 13 32  1  0  0  0
 13 33  1  0  0  0
 14 34  1  0  0  0
 14 35  1  0  0  0
 15 16  2  0  0  0
 15 20  1  0  0  0
 16 17  1  0  0  0
 16 21  1  0  0  0
 17 18  2  0  0  0
 17 36  1  0  0  0
 18 19  1  0  0  0
 18 37  1  0  0  0
 19 20  2  0  0  0
 19 38  1  0  0  0
 20 39  1  0  0  0
 22 23  2  0  0  0
 22 26  1  0  0  0
 23 24  1  0  0  0
 24 25  2  0  0  0
 25 26  1  0  0  0
 25 40  1  0  0  0
 26 41  1  0  0  0
M  END
> <s_m_entry_id>
5652

> <s_m_entry_name>
dock_pv.47

> <s_m_Source_Path>
/home/csk/Desktop/cluster/DUD-E-result/igf1r

> <s_m_Source_File>
dock_pv.maegz

> <i_m_Source_File_Index>
47

> <chembl_id>
CHEMBL3958220

> <chembl_pref_name>
None

> <i_lp_mmshare_version>
53161

> <r_lp_tautomer_probability>
0.842599999161192

> <s_lp_Force_Field>
OPLS_2005

> <r_lp_Energy>
19.991576

> <b_lp_Chiralities_Consistent>
1

> <s_lp_Variant>
CHEMBL1957_lig1432-1

> <s_i_glide_gridfile>
glide-grid_2oj9

> <i_i_glide_lignum>
1999

> <i_i_glide_rotatable_bonds>
5

> <r_i_docking_score>
-8.22736990887251

> <r_i_glide_ligand_efficiency>
-0.316437304187404

> <r_i_glide_ligand_efficiency_sa>
-0.937444268534518

> <r_i_glide_ligand_efficiency_ln>
-1.93217082689613

> <r_i_glide_gscore>
-8.22736990887251

> <r_i_glide_lipo>
-3.00369708677584

> <r_i_glide_hbond>
-0.417800770607521

> <r_i_glide_metal>
0

> <r_i_glide_rewards>
-2.63156425637596

> <r_i_glide_evdw>
-45.2566413879395

> <r_i_glide_ecoul>
-4.029137134552

> <r_i_glide_erotb>
0.715419015875778

> <r_i_glide_esite>
-0.0225241714092

> <r_i_glide_emodel>
-70.5160535497058

> <r_i_glide_energy>
-49.2857785224915

> <r_i_glide_einternal>
2.63697791099548

> <i_i_glide_confnum>
19

> <i_i_glide_posenum>
219

> <r_i_glide_eff_state_penalty>
0

> <s_user_duplicate_titles>
CHEMBL1957_lig1432,CHEMBL1957_lig1432

> <i_f3d_flags>
0

> <s_m_subgroup_title>
dock_pv

> <s_m_subgroupid>
dock_pv

> <b_m_subgroup_collapsed>
1

$$$$
CHEMBL1957_lig2261
                    3D
 Schrodinger Suite 2021-1.
 52 56  0  0  1  0            999 V2000
    9.0252   -6.7963   21.4589 C   0  0  0  0  0  0
    8.7094   -5.6639   22.4005 C   0  0  0  0  0  0
    9.5683   -5.3750   23.4616 C   0  0  0  0  0  0
    9.2382   -4.3676   24.3658 C   0  0  0  0  0  0
    8.0597   -3.6416   24.2039 C   0  0  0  0  0  0
    7.1947   -3.9367   23.1461 C   0  0  0  0  0  0
    5.8218   -3.3069   23.0751 C   0  0  0  0  0  0
    5.5497   -2.3960   21.9001 C   0  0  0  0  0  0
    4.8191   -2.5374   20.7191 C   0  0  0  0  0  0
    5.0163   -1.3209   20.0456 C   0  0  0  0  0  0
    4.4985   -1.0926   18.6329 C   0  0  0  0  0  0
    3.2376   -1.9538   18.3994 C   0  0  0  0  0  0
    3.3901   -3.3863   18.8851 C   0  0  0  0  0  0
    2.9198   -4.5015   18.1877 C   0  0  0  0  0  0
    3.0542   -5.7745   18.6382 N   0  0  0  0  0  0
    3.6379   -5.9246   19.8503 C   0  0  0  0  0  0
    4.0380   -7.2313   20.1714 N   0  0  0  0  0  0
    4.7987   -7.6381   21.2442 C   0  0  0  0  0  0
    5.6382   -8.7584   21.3293 C   0  0  0  0  0  0
    6.2910   -8.8452   22.4676 N   0  0  0  0  0  0
    5.8366   -7.8153   23.1872 N   0  0  0  0  0  0
    6.4103   -7.5292   24.4871 C   0  0  0  0  0  0
    4.9070   -7.0806   22.5085 C   0  0  0  0  0  0
    4.0537   -4.8975   20.6384 N   0  0  0  0  0  0
    4.0215   -3.6504   20.1094 C   0  0  0  0  0  0
    5.6381   -0.4286   20.7797 N   0  0  0  0  0  0
    5.9396   -1.0775   21.9111 N   0  0  0  0  0  0
    6.4259   -0.3226   23.0597 C   0  0  0  0  0  0
    7.5346   -4.9334   22.2340 C   0  0  0  0  0  0
    8.3020   -6.8536   20.6475 H   0  0  0  0  0  0
   10.0107   -6.6265   21.0381 H   0  0  0  0  0  0
    9.0494   -7.7475   21.9912 H   0  0  0  0  0  0
   10.4823   -5.9379   23.5897 H   0  0  0  0  0  0
    9.8989   -4.1439   25.1882 H   0  0  0  0  0  0
    7.8156   -2.8718   24.9192 H   0  0  0  0  0  0
    5.6381   -2.7919   24.0169 H   0  0  0  0  0  0
    5.1531   -4.1571   23.0347 H   0  0  0  0  0  0
    5.2459   -1.2856   17.8644 H   0  0  0  0  0  0
    4.2393   -0.0540   18.5072 H   0  0  0  0  0  0
    2.9197   -1.9160   17.3561 H   0  0  0  0  0  0
    2.4378   -1.5251   18.9928 H   0  0  0  0  0  0
    2.4388   -4.3944   17.2281 H   0  0  0  0  0  0
    3.8626   -7.8642   19.4034 H   0  0  0  0  0  0
    5.7991   -9.4806   20.5422 H   0  0  0  0  0  0
    7.3781   -7.0478   24.3606 H   0  0  0  0  0  0
    5.7534   -6.8574   25.0409 H   0  0  0  0  0  0
    6.5527   -8.4544   25.0379 H   0  0  0  0  0  0
    4.4442   -6.2188   22.9604 H   0  0  0  0  0  0
    5.6360   -0.2506   23.8017 H   0  0  0  0  0  0
    7.2491   -0.8542   23.5272 H   0  0  0  0  0  0
    6.7144    0.6911   22.7825 H   0  0  0  0  0  0
    6.8527   -5.1808   21.4331 H   0  0  0  0  0  0
  1  2  1  0  0  0
  1 30  1  0  0  0
  1 31  1  0  0  0
  1 32  1  0  0  0
  2  3  2  0  0  0
  2 29  1  0  0  0
  3  4  1  0  0  0
  3 33  1  0  0  0
  4  5  2  0  0  0
  4 34  1  0  0  0
  5  6  1  0  0  0
  5 35  1  0  0  0
  6  7  1  0  0  0
  6 29  2  0  0  0
  7  8  1  0  0  0
  7 36  1  0  0  0
  7 37  1  0  0  0
  8  9  2  0  0  0
  8 27  1  0  0  0
  9 10  1  0  0  0
  9 25  1  0  0  0
 10 11  1  0  0  0
 10 26  2  0  0  0
 11 12  1  0  0  0
 11 38  1  0  0  0
 11 39  1  0  0  0
 12 13  1  0  0  0
 12 40  1  0  0  0
 12 41  1  0  0  0
 13 14  2  0  0  0
 13 25  1  0  0  0
 14 15  1  0  0  0
 14 42  1  0  0  0
 15 16  2  0  0  0
 16 17  1  0  0  0
 16 24  1  0  0  0
 17 18  1  0  0  0
 17 43  1  0  0  0
 18 19  1  0  0  0
 18 23  2  0  0  0
 19 20  2  0  0  0
 19 44  1  0  0  0
 20 21  1  0  0  0
 21 22  1  0  0  0
 21 23  1  0  0  0
 22 45  1  0  0  0
 22 46  1  0  0  0
 22 47  1  0  0  0
 23 48  1  0  0  0
 24 25  2  0  0  0
 26 27  1  0  0  0
 27 28  1  0  0  0
 28 49  1  0  0  0
 28 50  1  0  0  0
 28 51  1  0  0  0
 29 52  1  0  0  0
M  END
> <s_m_entry_id>
5653

> <s_m_entry_name>
dock_pv.48

> <s_m_Source_Path>
/home/csk/Desktop/cluster/DUD-E-result/igf1r

> <s_m_Source_File>
dock_pv.maegz

> <i_m_Source_File_Index>
48

> <chembl_id>
CHEMBL3656703

> <chembl_pref_name>
None

> <i_lp_mmshare_version>
53161

> <r_lp_tautomer_probability>
0.999999987636

> <s_lp_Force_Field>
OPLS_2005

> <r_lp_Energy>
6.002345

> <b_lp_Chiralities_Consistent>
1

> <s_lp_Variant>
CHEMBL1957_lig2261-1

> <s_i_glide_gridfile>
glide-grid_2oj9

> <i_i_glide_lignum>
3241

> <i_i_glide_rotatable_bonds>
4

> <r_i_docking_score>
-8.22317183023932

> <r_i_glide_ligand_efficiency>
-0.283557649318597

> <r_i_glide_ligand_efficiency_sa>
-0.871178936075614

> <r_i_glide_ligand_efficiency_ln>
-1.88289782747893

> <r_i_glide_gscore>
-8.22317183023932

> <r_i_glide_lipo>
-3.53277339730364

> <r_i_glide_hbond>
-0.16725071598068

> <r_i_glide_metal>
0

> <r_i_glide_rewards>
-2.90312153557175

> <r_i_glide_evdw>
-37.3090667724609

> <r_i_glide_ecoul>
-0.807756721973419

> <r_i_glide_erotb>
0.366590665535805

> <r_i_glide_esite>
0

> <r_i_glide_emodel>
-42.1666090494501

> <r_i_glide_energy>
-38.1168234944344

> <r_i_glide_einternal>
2.39644646644592

> <i_i_glide_confnum>
4

> <i_i_glide_posenum>
6

> <r_i_glide_eff_state_penalty>
0

> <s_user_duplicate_titles>
CHEMBL1957_lig2261

> <i_f3d_flags>
0

> <s_m_subgroup_title>
dock_pv

> <s_m_subgroupid>
dock_pv

> <b_m_subgroup_collapsed>
1

$$$$
CHEMBL1957_lig493
                    3D
 Schrodinger Suite 2021-1.
 40 41  0  0  1  0            999 V2000
    5.2380   -1.4595   21.0381 C   0  0  0  0  0  0
    4.8282   -0.8232   19.8565 C   0  0  0  0  0  0
    4.0795   -1.5283   18.9093 C   0  0  0  0  0  0
    4.9413   -2.8030   21.2607 C   0  0  0  0  0  0
    4.2390   -3.5113   20.2903 C   0  0  0  0  0  0
    3.8109   -2.8758   19.1442 C   0  0  0  0  0  0
    3.2104   -3.8069   18.3326 N   0  0  0  0  0  0
    3.2380   -5.0408   18.8635 C   0  0  0  0  0  0
    3.8643   -4.9148   20.1661 C   0  0  0  0  0  0
    2.8254   -6.0541   18.3086 O   0  0  0  0  0  0
    4.0952   -5.9966   20.9376 C   0  0  0  0  0  0
    4.8219   -6.0538   22.1027 N   0  0  0  0  0  0
    5.2801   -7.2814   22.7321 C   0  0  0  0  0  0
    6.3337   -8.0303   21.8922 C   0  0  0  0  0  0
    6.9531   -9.2539   22.5946 C   0  0  0  0  0  0
    7.9102   -8.9224   23.7621 C   0  0  0  0  0  0
    9.1796   -8.1196   23.3658 C   0  0  2  0  0  0
   10.0377   -8.8540   22.4154 N   0  0  0  0  0  0
   10.0383   -7.7107   24.5871 C   0  0  0  0  0  0
   11.0939   -6.9143   24.2380 O   0  0  0  0  0  0
    9.7666   -8.0544   25.7374 O   0  0  0  0  0  0
    6.0380   -0.4661   22.4400 Br  0  0  0  0  0  0
    5.0587    0.2198   19.6940 H   0  0  0  0  0  0
    3.7608   -1.0407   17.9992 H   0  0  0  0  0  0
    5.2631   -3.2719   22.1773 H   0  0  0  0  0  0
    2.8211   -3.6119   17.4195 H   0  0  0  0  0  0
    3.7218   -6.9733   20.6557 H   0  0  0  0  0  0
    5.3531   -5.2396   22.3749 H   0  0  0  0  0  0
    4.4385   -7.9428   22.9353 H   0  0  0  0  0  0
    5.6777   -7.0322   23.7159 H   0  0  0  0  0  0
    7.1157   -7.3432   21.5684 H   0  0  0  0  0  0
    5.8593   -8.3671   20.9702 H   0  0  0  0  0  0
    7.4886   -9.8542   21.8573 H   0  0  0  0  0  0
    6.1512   -9.8989   22.9603 H   0  0  0  0  0  0
    8.2094   -9.8609   24.2331 H   0  0  0  0  0  0
    7.3528   -8.3823   24.5293 H   0  0  0  0  0  0
    8.8627   -7.1782   22.9174 H   0  0  0  0  0  0
   10.9010   -8.3414   22.2110 H   0  0  0  0  0  0
   10.3111   -9.7599   22.7736 H   0  0  0  0  0  0
   11.2740   -6.8539   23.2841 H   0  0  0  0  0  0
  1  2  2  0  0  0
  1 22  1  0  0  0
  1  4  1  0  0  0
  2  3  1  0  0  0
  2 23  1  0  0  0
  3  6  2  0  0  0
  3 24  1  0  0  0
  4  5  2  0  0  0
  4 25  1  0  0  0
  5  6  1  0  0  0
  5  9  1  0  0  0
  6  7  1  0  0  0
  7  8  1  0  0  0
  7 26  1  0  0  0
  8  9  1  0  0  0
  8 10  2  0  0  0
  9 11  2  0  0  0
 11 12  1  0  0  0
 11 27  1  0  0  0
 12 13  1  0  0  0
 12 28  1  0  0  0
 13 14  1  0  0  0
 13 29  1  0  0  0
 13 30  1  0  0  0
 14 15  1  0  0  0
 14 31  1  0  0  0
 14 32  1  0  0  0
 15 16  1  0  0  0
 15 33  1  0  0  0
 15 34  1  0  0  0
 16 17  1  0  0  0
 16 35  1  0  0  0
 16 36  1  0  0  0
 17 18  1  0  0  0
 17 19  1  0  0  0
 17 37  1  0  0  0
 18 38  1  0  0  0
 18 39  1  0  0  0
 19 20  1  0  0  0
 19 21  2  0  0  0
 20 40  1  0  0  0
M  END
> <s_m_entry_id>
5654

> <s_m_entry_name>
dock_pv.49

> <s_m_Source_Path>
/home/csk/Desktop/cluster/DUD-E-result/igf1r

> <s_m_Source_File>
dock_pv.maegz

> <i_m_Source_File_Index>
49

> <chembl_id>
CHEMBL458441

> <chembl_pref_name>
None

> <i_lp_mmshare_version>
53161

> <r_lp_tautomer_probability>
0.499999999999422

> <s_lp_Force_Field>
OPLS_2005

> <r_lp_Energy>
25.449048

> <b_lp_Chiralities_Consistent>
1

> <s_lp_Variant>
CHEMBL1957_lig493-2

> <s_i_glide_gridfile>
glide-grid_2oj9

> <i_i_glide_lignum>
684

> <i_i_glide_rotatable_bonds>
8

> <r_i_docking_score>
-8.21070988300171

> <r_i_glide_ligand_efficiency>
-0.373214085590987

> <r_i_glide_ligand_efficiency_sa>
-1.04576054550303

> <r_i_glide_ligand_efficiency_ln>
-2.00699698832545

> <r_i_glide_gscore>
-8.21070988300171

> <r_i_glide_lipo>
-2.47812359839912

> <r_i_glide_hbond>
-0.557120768177325

> <r_i_glide_metal>
0

> <r_i_glide_rewards>
-2.46012766666667

> <r_i_glide_evdw>
-26.6349430084229

> <r_i_glide_ecoul>
-13.7646484375

> <r_i_glide_erotb>
0.696294200991348

> <r_i_glide_esite>
-0.0151876347038113

> <r_i_glide_emodel>
-58.1986336308395

> <r_i_glide_energy>
-40.3995914459229

> <r_i_glide_einternal>
6.47340965270996

> <i_i_glide_confnum>
99

> <i_i_glide_posenum>
381

> <r_i_glide_eff_state_penalty>
0

> <s_user_duplicate_titles>
CHEMBL1957_lig493

> <i_f3d_flags>
0

> <s_m_subgroup_title>
dock_pv

> <s_m_subgroupid>
dock_pv

> <b_m_subgroup_collapsed>
1

$$$$
CHEMBL1957_lig3201
                    3D
 Schrodinger Suite 2021-1.
 44 48  0  0  1  0            999 V2000
   10.0380   -4.8540   22.7274 O   0  0  0  0  0  0
    9.6085   -5.2562   24.0106 C   0  0  0  0  0  0
    9.0546   -4.0669   24.8275 C   0  0  0  0  0  0
    8.0380   -3.2598   24.1473 N   0  0  0  0  0  0
    7.3083   -3.5376   23.0241 C   0  0  0  0  0  0
    6.5729   -2.3959   22.7408 C   0  0  0  0  0  0
    6.8833   -1.5311   23.7914 C   0  0  0  0  0  0
    7.7376   -2.0540   24.6380 N   0  0  0  0  0  0
    5.6724   -2.1960   21.5902 C   0  0  0  0  0  0
    5.6285   -1.0526   20.7775 C   0  0  0  0  0  0
    4.8225   -0.9795   19.6745 N   0  0  0  0  0  0
    4.1128   -2.0883   19.4065 C   0  0  0  0  0  0
    3.2877   -2.3682   18.3602 N   0  0  0  0  0  0
    2.8720   -3.6796   18.5131 N   0  0  0  0  0  0
    3.4081   -4.1984   19.6442 N   0  0  0  0  0  0
    3.0224   -5.5427   20.1033 C   0  0  0  0  0  0
    4.0884   -6.4720   20.7186 C   0  0  0  0  0  0
    4.4076   -7.6632   20.0630 C   0  0  0  0  0  0
    5.2380   -8.6208   20.6382 C   0  0  0  0  0  0
    5.8253   -8.3852   21.8992 C   0  0  0  0  0  0
    6.6583   -9.3241   22.4288 N   0  0  0  0  0  0
    7.2061   -9.0821   23.6455 C   0  0  0  0  0  0
    6.9566   -7.9291   24.3853 C   0  0  0  0  0  0
    6.1063   -6.9605   23.8573 C   0  0  0  0  0  0
    5.5233   -7.1713   22.5829 C   0  0  0  0  0  0
    4.6518   -6.2366   21.9804 C   0  0  0  0  0  0
    4.1897   -3.2284   20.2380 C   0  0  0  0  0  0
    4.9309   -3.2990   21.3326 N   0  0  0  0  0  0
   10.4380   -3.9703   22.7850 H   0  0  0  0  0  0
    8.8318   -5.9977   23.8343 H   0  0  0  0  0  0
   10.4380   -5.7372   24.5306 H   0  0  0  0  0  0
    8.6222   -4.4540   25.7500 H   0  0  0  0  0  0
    9.8747   -3.4245   25.1523 H   0  0  0  0  0  0
    7.4129   -4.4769   22.5007 H   0  0  0  0  0  0
    6.4927   -0.5342   23.9306 H   0  0  0  0  0  0
    6.2560   -0.1966   20.9758 H   0  0  0  0  0  0
    2.2116   -5.4239   20.8189 H   0  0  0  0  0  0
    2.5677   -6.0540   19.2532 H   0  0  0  0  0  0
    3.9566   -7.8804   19.1065 H   0  0  0  0  0  0
    5.4481   -9.5447   20.1171 H   0  0  0  0  0  0
    7.8619   -9.8489   24.0312 H   0  0  0  0  0  0
    7.4142   -7.7842   25.3542 H   0  0  0  0  0  0
    5.8919   -6.0562   24.4095 H   0  0  0  0  0  0
    4.4380   -5.3494   22.5503 H   0  0  0  0  0  0
  1  2  1  0  0  0
  1 29  1  0  0  0
  2  3  1  0  0  0
  2 30  1  0  0  0
  2 31  1  0  0  0
  3  4  1  0  0  0
  3 32  1  0  0  0
  3 33  1  0  0  0
  4  5  1  0  0  0
  4  8  1  0  0  0
  5  6  2  0  0  0
  5 34  1  0  0  0
  6  7  1  0  0  0
  6  9  1  0  0  0
  7  8  2  0  0  0
  7 35  1  0  0  0
  9 10  2  0  0  0
  9 28  1  0  0  0
 10 11  1  0  0  0
 10 36  1  0  0  0
 11 12  2  0  0  0
 12 13  1  0  0  0
 12 27  1  0  0  0
 13 14  2  0  0  0
 14 15  1  0  0  0
 15 16  1  0  0  0
 15 27  1  0  0  0
 16 17  1  0  0  0
 16 37  1  0  0  0
 16 38  1  0  0  0
 17 18  2  0  0  0
 17 26  1  0  0  0
 18 19  1  0  0  0
 18 39  1  0  0  0
 19 20  2  0  0  0
 19 40  1  0  0  0
 20 21  1  0  0  0
 20 25  1  0  0  0
 21 22  2  0  0  0
 22 23  1  0  0  0
 22 41  1  0  0  0
 23 24  2  0  0  0
 23 42  1  0  0  0
 24 25  1  0  0  0
 24 43  1  0  0  0
 25 26  2  0  0  0
 26 44  1  0  0  0
 27 28  2  0  0  0
M  END
> <s_m_entry_id>
5655

> <s_m_entry_name>
dock_pv.50

> <s_m_Source_Path>
/home/csk/Desktop/cluster/DUD-E-result/igf1r

> <s_m_Source_File>
dock_pv.maegz

> <i_m_Source_File_Index>
50

> <chembl_id>
CHEMBL2001019

> <chembl_pref_name>
PF-04217903

> <i_lp_mmshare_version>
53161

> <r_lp_tautomer_probability>
1

> <s_lp_Force_Field>
OPLS_2005

> <r_lp_Energy>
24.225802

> <b_lp_Chiralities_Consistent>
1

> <s_lp_Variant>
CHEMBL1957_lig3201-1

> <s_i_glide_gridfile>
glide-grid_2oj9

> <i_i_glide_lignum>
4459

> <i_i_glide_rotatable_bonds>
6

> <r_i_docking_score>
-8.21050947486402

> <r_i_glide_ligand_efficiency>
-0.293232481245144

> <r_i_glide_ligand_efficiency_sa>
-0.890426517755712

> <r_i_glide_ligand_efficiency_ln>
-1.89522665783199

> <r_i_glide_gscore>
-8.21050947486402

> <r_i_glide_lipo>
-3.38620383030657

> <r_i_glide_hbond>
-0.32

> <r_i_glide_metal>
0

> <r_i_glide_rewards>
-1.99518371071423

> <r_i_glide_evdw>
-46.0114517211914

> <r_i_glide_ecoul>
-6.0329155921936

> <r_i_glide_erotb>
0.696387991045396

> <r_i_glide_esite>
0

> <r_i_glide_emodel>
-72.6743328477195

> <r_i_glide_energy>
-52.044367313385

> <r_i_glide_einternal>
8.76148414611816

> <i_i_glide_confnum>
37

> <i_i_glide_posenum>
78

> <r_i_glide_eff_state_penalty>
0

> <s_user_duplicate_titles>
CHEMBL1957_lig3201

> <i_f3d_flags>
0

> <s_m_subgroup_title>
dock_pv

> <s_m_subgroupid>
dock_pv

> <b_m_subgroup_collapsed>
1

$$$$
CHEMBL1957_lig3347
                    3D
 Schrodinger Suite 2021-1.
 49 52  0  0  1  0            999 V2000
    8.8527   -5.9165   23.5228 O   0  0  0  0  0  0
    3.6380   -1.2541   18.3862 N   0  0  0  0  0  0
    3.1098   -2.4581   18.1198 N   0  0  0  0  0  0
    8.2275   -2.4540   24.6536 N   0  0  0  0  0  0
   10.0376   -8.5486   23.4108 N   0  0  0  0  0  0
    4.3146   -2.8530   19.9237 C   0  0  0  0  0  0
    4.4097   -1.4983   19.4826 C   0  0  0  0  0  0
    5.9736   -2.4095   21.6272 C   0  0  0  0  0  0
    5.0602   -3.2853   21.0312 C   0  0  0  0  0  0
    3.4583   -3.4736   18.9758 C   0  0  0  0  0  0
    6.9176   -2.9019   22.6686 C   0  0  0  0  0  0
    5.2590   -0.6002   20.1369 C   0  0  0  0  0  0
    6.0359   -1.0804   21.1888 C   0  0  0  0  0  0
    7.4742   -4.1919   22.6244 C   0  0  0  0  0  0
    8.3800   -4.6225   23.6003 C   0  0  0  0  0  0
    7.3243   -2.0779   23.7221 C   0  0  0  0  0  0
    8.7396   -3.7030   24.5926 C   0  0  0  0  0  0
    3.0265   -4.9071   18.7744 C   0  0  0  0  0  0
    9.6096   -6.4516   24.6155 C   0  0  0  0  0  0
    9.5299   -7.9939   24.6537 C   0  0  1  0  0  0
    7.0380   -8.2479   23.9319 C   0  0  0  0  0  0
    8.1153   -8.5548   24.9693 C   0  0  0  0  0  0
    6.9333   -9.0334   22.7809 C   0  0  0  0  0  0
    6.1723   -7.1669   24.1240 C   0  0  0  0  0  0
    5.9966   -8.7131   21.8036 C   0  0  0  0  0  0
    5.2377   -6.8449   23.1444 C   0  0  0  0  0  0
    5.1658   -7.6098   21.9821 C   0  0  0  0  0  0
    2.5097   -2.5951   17.3138 H   0  0  0  0  0  0
    9.4042   -8.2581   22.6799 H   0  0  0  0  0  0
   10.9203   -8.1080   23.1581 H   0  0  0  0  0  0
    4.9993   -4.3154   21.3491 H   0  0  0  0  0  0
    5.3610    0.4210   19.7988 H   0  0  0  0  0  0
    6.7457   -0.4041   21.6374 H   0  0  0  0  0  0
    7.2103   -4.8768   21.8327 H   0  0  0  0  0  0
    6.9442   -1.0737   23.8322 H   0  0  0  0  0  0
    9.4599   -3.9367   25.3600 H   0  0  0  0  0  0
    2.4490   -5.2769   19.6224 H   0  0  0  0  0  0
    2.4278   -5.0309   17.8730 H   0  0  0  0  0  0
    3.8799   -5.5761   18.6643 H   0  0  0  0  0  0
    9.2449   -6.0914   25.5782 H   0  0  0  0  0  0
   10.6461   -6.1237   24.5154 H   0  0  0  0  0  0
   10.2014   -8.3351   25.4442 H   0  0  0  0  0  0
    7.7876   -8.1768   25.9392 H   0  0  0  0  0  0
    8.1717   -9.6362   25.0995 H   0  0  0  0  0  0
    7.5886   -9.8799   22.6363 H   0  0  0  0  0  0
    6.2455   -6.5583   25.0147 H   0  0  0  0  0  0
    5.9203   -9.3118   20.9077 H   0  0  0  0  0  0
    4.5814   -5.9980   23.2813 H   0  0  0  0  0  0
    4.4437   -7.3573   21.2202 H   0  0  0  0  0  0
  1 15  1  0  0  0
  1 19  1  0  0  0
  2  3  1  0  0  0
  2  7  2  0  0  0
  3 28  1  0  0  0
  3 10  1  0  0  0
  4 16  1  0  0  0
  4 17  2  0  0  0
  5 20  1  0  0  0
  5 29  1  0  0  0
  5 30  1  0  0  0
  6  9  1  0  0  0
  6  7  1  0  0  0
  6 10  2  0  0  0
  7 12  1  0  0  0
  8 13  1  0  0  0
  8 11  1  0  0  0
  8  9  2  0  0  0
  9 31  1  0  0  0
 10 18  1  0  0  0
 11 14  1  0  0  0
 11 16  2  0  0  0
 12 32  1  0  0  0
 12 13  2  0  0  0
 13 33  1  0  0  0
 14 15  2  0  0  0
 14 34  1  0  0  0
 15 17  1  0  0  0
 16 35  1  0  0  0
 17 36  1  0  0  0
 18 37  1  0  0  0
 18 38  1  0  0  0
 18 39  1  0  0  0
 19 20  1  0  0  0
 19 40  1  0  0  0
 19 41  1  0  0  0
 20 22  1  0  0  0
 20 42  1  0  0  0
 21 22  1  0  0  0
 21 23  2  0  0  0
 21 24  1  0  0  0
 22 43  1  0  0  0
 22 44  1  0  0  0
 23 25  1  0  0  0
 23 45  1  0  0  0
 24 26  2  0  0  0
 24 46  1  0  0  0
 25 27  2  0  0  0
 25 47  1  0  0  0
 26 27  1  0  0  0
 26 48  1  0  0  0
 27 49  1  0  0  0
M  END
> <s_m_entry_id>
5656

> <s_m_entry_name>
dock_pv.51

> <s_m_Source_Path>
/home/csk/Desktop/cluster/DUD-E-result/igf1r

> <s_m_Source_File>
dock_pv.maegz

> <i_m_Source_File_Index>
51

> <chembl_id>
CHEMBL2002726

> <chembl_pref_name>
None

> <i_lp_mmshare_version>
53161

> <r_lp_tautomer_probability>
0.0196078431372549

> <s_lp_Force_Field>
OPLS_2005

> <r_lp_Energy>
40.37

> <b_lp_Chiralities_Consistent>
1

> <s_lp_Variant>
CHEMBL1957_lig3347-4

> <s_i_glide_gridfile>
glide-grid_2oj9

> <i_i_glide_lignum>
4713

> <i_i_glide_rotatable_bonds>
6

> <r_i_docking_score>
-8.20978261800237

> <r_i_glide_ligand_efficiency>
-0.304066022888977

> <r_i_glide_ligand_efficiency_sa>
-0.912198067664778

> <r_i_glide_ligand_efficiency_ln>
-1.91110204462641

> <r_i_glide_gscore>
-8.20978261800237

> <r_i_glide_lipo>
-3.89492710950077

> <r_i_glide_hbond>
-0.439397010827994

> <r_i_glide_metal>
0

> <r_i_glide_rewards>
-1.9885283492281

> <r_i_glide_evdw>
-43.2594680786133

> <r_i_glide_ecoul>
-3.12968301773071

> <r_i_glide_erotb>
0.745495708144768

> <r_i_glide_esite>
0

> <r_i_glide_emodel>
-64.8360703477773

> <r_i_glide_energy>
-46.389151096344

> <r_i_glide_einternal>
5.17100381851196

> <i_i_glide_confnum>
31

> <i_i_glide_posenum>
9

> <r_i_glide_eff_state_penalty>
0

> <s_user_duplicate_titles>
CHEMBL1957_lig3347,CHEMBL1957_lig3347

> <i_f3d_flags>
0

> <s_m_subgroup_title>
dock_pv

> <s_m_subgroupid>
dock_pv

> <b_m_subgroup_collapsed>
1

$$$$
CHEMBL1957_lig3086
                    3D
 Schrodinger Suite 2021-1.
 61 65  0  0  1  0            999 V2000
    8.7290   -6.0539   21.4380 Cl  0  0  0  0  0  0
    6.4220   -0.4359   23.3289 O   0  0  0  0  0  0
    4.6653   -7.8900   20.8726 O   0  0  0  0  0  0
    6.8403   -7.6539   24.4552 N   0  0  0  0  0  0
    2.7571   -6.0462   18.2838 N   0  0  0  0  0  0
    5.6380    0.7460   20.7457 N   0  0  0  0  0  0
    4.8498  -11.5734   20.6380 N   0  0  0  0  0  0
    5.5108   -1.5990   21.4750 C   0  0  0  0  0  0
    4.0551   -3.0845   20.1892 C   0  0  0  0  0  0
    6.4231   -1.4748   22.6634 C   0  0  0  0  0  0
    3.6380   -4.4812   19.8929 C   0  0  0  0  0  0
    8.1835   -9.2308   23.5855 C   0  0  0  0  0  0
    4.8285   -2.8054   21.3190 C   0  0  0  0  0  0
    5.2380   -0.5679   20.5527 C   0  0  0  0  0  0
    6.9169   -9.3056   22.9049 C   0  0  0  0  0  0
    8.0977   -8.2014   24.5720 C   0  0  0  0  0  0
    7.3568   -2.6105   23.0173 C   0  0  0  0  0  0
    3.8546   -2.0532   19.2628 C   0  0  0  0  0  0
    4.4380   -0.8133   19.4440 C   0  0  0  0  0  0
    4.1162   -5.5746   20.6500 C   0  0  0  0  0  0
    6.1374   -8.3104   23.4753 C   0  0  0  0  0  0
    4.0380   -6.8756   20.1735 C   0  0  0  0  0  0
    2.9794   -4.7914   18.6995 C   0  0  0  0  0  0
    6.5823  -10.3239   21.8253 C   0  0  0  0  0  0
    9.3852   -9.9488   23.4700 C   0  0  0  0  0  0
    7.6380   -3.6691   22.1304 C   0  0  0  0  0  0
    9.1568   -7.9031   25.4374 C   0  0  0  0  0  0
    8.0046   -2.6123   24.2609 C   0  0  0  0  0  0
    5.1419  -10.2916   21.2645 C   0  0  1  0  0  0
    3.2381   -7.0460   19.0380 C   0  0  0  0  0  0
    8.4596   -4.7313   22.5123 C   0  0  0  0  0  0
   10.4425   -9.6459   24.3245 C   0  0  0  0  0  0
   10.3255   -8.6502   25.2887 C   0  0  0  0  0  0
    4.8510   -9.1629   20.2446 C   0  0  0  0  0  0
    8.8380   -3.6668   24.6380 C   0  0  0  0  0  0
    9.0583   -4.7312   23.7682 C   0  0  0  0  0  0
    6.4524   -6.8967   25.0008 H   0  0  0  0  0  0
    6.2899    0.8514   21.5120 H   0  0  0  0  0  0
    5.8574    1.3038   19.9164 H   0  0  0  0  0  0
    5.2380  -11.6540   19.7030 H   0  0  0  0  0  0
    5.2238  -12.3323   21.1894 H   0  0  0  0  0  0
    4.9661   -3.5580   22.0775 H   0  0  0  0  0  0
    3.2829   -2.1822   18.3591 H   0  0  0  0  0  0
    4.2521   -0.0540   18.7059 H   0  0  0  0  0  0
    4.6977   -5.4538   21.5474 H   0  0  0  0  0  0
    5.1154   -8.0212   23.2762 H   0  0  0  0  0  0
    2.6023   -4.0494   18.0145 H   0  0  0  0  0  0
    7.2933  -10.2499   21.0062 H   0  0  0  0  0  0
    6.7629  -11.3059   22.2666 H   0  0  0  0  0  0
    9.4918  -10.7287   22.7313 H   0  0  0  0  0  0
    7.2227   -3.6953   21.1336 H   0  0  0  0  0  0
    9.0832   -7.1304   26.1885 H   0  0  0  0  0  0
    7.8604   -1.8000   24.9599 H   0  0  0  0  0  0
    4.4454  -10.2196   22.0980 H   0  0  0  0  0  0
    3.0001   -8.0165   18.6380 H   0  0  0  0  0  0
   11.3715  -10.1921   24.2379 H   0  0  0  0  0  0
   11.1684   -8.4540   25.9354 H   0  0  0  0  0  0
    5.6380   -9.0963   19.5014 H   0  0  0  0  0  0
    3.9945   -9.4585   19.6582 H   0  0  0  0  0  0
    9.3197   -3.6573   25.6047 H   0  0  0  0  0  0
    9.7097   -5.5434   24.0562 H   0  0  0  0  0  0
  1 31  1  0  0  0
  2 10  2  0  0  0
  3 22  1  0  0  0
  3 34  1  0  0  0
  4 16  1  0  0  0
  4 21  1  0  0  0
  4 37  1  0  0  0
  5 23  2  0  0  0
  5 30  1  0  0  0
  6 14  1  0  0  0
  6 38  1  0  0  0
  6 39  1  0  0  0
  7 29  1  0  0  0
  7 40  1  0  0  0
  7 41  1  0  0  0
  8 10  1  0  0  0
  8 13  2  0  0  0
  8 14  1  0  0  0
  9 11  1  0  0  0
  9 13  1  0  0  0
  9 18  2  0  0  0
 10 17  1  0  0  0
 11 20  2  0  0  0
 11 23  1  0  0  0
 12 15  1  0  0  0
 12 16  1  0  0  0
 12 25  2  0  0  0
 13 42  1  0  0  0
 14 19  2  0  0  0
 15 21  2  0  0  0
 15 24  1  0  0  0
 16 27  2  0  0  0
 17 26  1  0  0  0
 17 28  2  0  0  0
 18 19  1  0  0  0
 18 43  1  0  0  0
 19 44  1  0  0  0
 20 22  1  0  0  0
 20 45  1  0  0  0
 21 46  1  0  0  0
 22 30  2  0  0  0
 23 47  1  0  0  0
 24 29  1  0  0  0
 24 48  1  0  0  0
 24 49  1  0  0  0
 25 32  1  0  0  0
 25 50  1  0  0  0
 26 31  2  0  0  0
 26 51  1  0  0  0
 27 33  1  0  0  0
 27 52  1  0  0  0
 28 35  1  0  0  0
 28 53  1  0  0  0
 29 34  1  0  0  0
 29 54  1  0  0  0
 30 55  1  0  0  0
 31 36  1  0  0  0
 32 33  2  0  0  0
 32 56  1  0  0  0
 33 57  1  0  0  0
 34 58  1  0  0  0
 34 59  1  0  0  0
 35 36  2  0  0  0
 35 60  1  0  0  0
 36 61  1  0  0  0
M  END
> <s_m_entry_id>
5657

> <s_m_entry_name>
dock_pv.52

> <s_m_Source_Path>
/home/csk/Desktop/cluster/DUD-E-result/igf1r

> <s_m_Source_File>
dock_pv.maegz

> <i_m_Source_File_Index>
52

> <chembl_id>
CHEMBL1973348

> <chembl_pref_name>
None

> <i_lp_mmshare_version>
53161

> <r_lp_tautomer_probability>
1

> <s_lp_Force_Field>
OPLS_2005

> <r_lp_Energy>
37.703493

> <b_lp_Chiralities_Consistent>
1

> <s_lp_Variant>
CHEMBL1957_lig3086-2

> <s_i_glide_gridfile>
glide-grid_2oj9

> <i_i_glide_lignum>
4290

> <i_i_glide_rotatable_bonds>
8

> <r_i_docking_score>
-8.19799742586165

> <r_i_glide_ligand_efficiency>
-0.227722150718379

> <r_i_glide_ligand_efficiency_sa>
-0.751921973735729

> <r_i_glide_ligand_efficiency_ln>
-1.78858155402823

> <r_i_glide_gscore>
-8.19799742586165

> <r_i_glide_lipo>
-3.63572712306872

> <r_i_glide_hbond>
-0.669709578624458

> <r_i_glide_metal>
0

> <r_i_glide_rewards>
-1.3141789230272

> <r_i_glide_evdw>
-30.662239074707

> <r_i_glide_ecoul>
-10.1553649902344

> <r_i_glide_erotb>
0.578034901129237

> <r_i_glide_esite>
-0.1

> <r_i_glide_emodel>
-41.8219880856863

> <r_i_glide_energy>
-40.8176040649414

> <r_i_glide_einternal>
5.8799352645874

> <i_i_glide_confnum>
1

> <i_i_glide_posenum>
26

> <r_i_glide_eff_state_penalty>
0

> <s_user_duplicate_titles>
CHEMBL1957_lig3086

> <i_f3d_flags>
0

> <s_m_subgroup_title>
dock_pv

> <s_m_subgroupid>
dock_pv

> <b_m_subgroup_collapsed>
1

$$$$
CHEMBL1957_lig2265
                    3D
 Schrodinger Suite 2021-1.
 52 56  0  0  1  0            999 V2000
    5.9167   -7.2606   24.5199 C   0  0  0  0  0  0
    6.7152   -8.0361   23.4630 C   0  0  0  0  0  0
    5.9371   -8.1859   22.2452 N   0  0  0  0  0  0
    5.6732   -9.3435   21.5653 C   0  0  0  0  0  0
    4.8672   -8.9547   20.5171 C   0  0  0  0  0  0
    4.6940   -7.5720   20.6518 C   0  0  0  0  0  0
    3.9299   -6.8023   19.8232 N   0  0  0  0  0  0
    3.6380   -5.4337   19.7685 C   0  0  0  0  0  0
    3.0104   -5.1060   18.6206 N   0  0  0  0  0  0
    3.0032   -3.7954   18.2957 C   0  0  0  0  0  0
    3.6379   -2.8049   19.0314 C   0  0  0  0  0  0
    3.6773   -1.3459   18.5806 C   0  0  0  0  0  0
    4.9749   -0.5962   18.9816 C   0  0  0  0  0  0
    5.3191   -0.9438   20.4171 C   0  0  0  0  0  0
    5.8985   -0.1390   21.2776 N   0  0  0  0  0  0
    6.0382   -0.8821   22.3811 N   0  0  0  0  0  0
    6.5518   -0.2841   23.6048 C   0  0  0  0  0  0
    5.6324   -2.1796   22.2042 C   0  0  0  0  0  0
    5.8828   -3.2578   23.2207 C   0  0  0  0  0  0
    7.2136   -3.9514   23.0843 C   0  0  0  0  0  0
    7.7532   -4.1721   21.8188 C   0  0  0  0  0  0
    8.8939   -4.9408   21.6711 C   0  0  0  0  0  0
    9.5302   -5.4652   22.7949 C   0  0  0  0  0  0
    8.9763   -5.2801   24.0571 C   0  0  0  0  0  0
    9.6380   -6.0883   25.4208 Cl  0  0  0  0  0  0
    7.8242   -4.5184   24.2025 C   0  0  0  0  0  0
    5.0061   -2.1959   20.9709 C   0  0  0  0  0  0
    4.2342   -3.2331   20.2264 C   0  0  0  0  0  0
    4.1895   -4.5356   20.6380 N   0  0  0  0  0  0
    5.3674   -7.1105   21.6793 N   0  0  0  0  0  0
    6.4380   -7.2538   25.4759 H   0  0  0  0  0  0
    5.7491   -6.2261   24.2262 H   0  0  0  0  0  0
    4.9293   -7.7054   24.6380 H   0  0  0  0  0  0
    6.9692   -9.0286   23.8377 H   0  0  0  0  0  0
    7.6495   -7.5374   23.2125 H   0  0  0  0  0  0
    6.0577  -10.2991   21.8919 H   0  0  0  0  0  0
    4.4394   -9.5904   19.7555 H   0  0  0  0  0  0
    3.5337   -7.2626   19.0178 H   0  0  0  0  0  0
    2.4380   -3.5259   17.4380 H   0  0  0  0  0  0
    2.8380   -0.8541   19.0380 H   0  0  0  0  0  0
    3.5004   -1.2703   17.5084 H   0  0  0  0  0  0
    4.8495    0.4799   18.8761 H   0  0  0  0  0  0
    5.7962   -0.8540   18.3132 H   0  0  0  0  0  0
    7.4188   -0.8536   23.9439 H   0  0  0  0  0  0
    6.8378    0.7565   23.4442 H   0  0  0  0  0  0
    5.7796   -0.3224   24.3725 H   0  0  0  0  0  0
    5.1979   -4.0799   23.0380 H   0  0  0  0  0  0
    5.7397   -2.8827   24.2351 H   0  0  0  0  0  0
    7.2660   -3.7929   20.9334 H   0  0  0  0  0  0
    9.2380   -5.1402   20.6710 H   0  0  0  0  0  0
   10.4246   -6.0540   22.6937 H   0  0  0  0  0  0
    7.3656   -4.4542   25.1728 H   0  0  0  0  0  0
  1  2  1  0  0  0
  1 31  1  0  0  0
  1 32  1  0  0  0
  1 33  1  0  0  0
  2  3  1  0  0  0
  2 34  1  0  0  0
  2 35  1  0  0  0
  3  4  1  0  0  0
  3 30  1  0  0  0
  4  5  2  0  0  0
  4 36  1  0  0  0
  5  6  1  0  0  0
  5 37  1  0  0  0
  6  7  1  0  0  0
  6 30  2  0  0  0
  7  8  1  0  0  0
  7 38  1  0  0  0
  8  9  2  0  0  0
  8 29  1  0  0  0
  9 10  1  0  0  0
 10 11  2  0  0  0
 10 39  1  0  0  0
 11 12  1  0  0  0
 11 28  1  0  0  0
 12 13  1  0  0  0
 12 40  1  0  0  0
 12 41  1  0  0  0
 13 14  1  0  0  0
 13 42  1  0  0  0
 13 43  1  0  0  0
 14 15  2  0  0  0
 14 27  1  0  0  0
 15 16  1  0  0  0
 16 17  1  0  0  0
 16 18  1  0  0  0
 17 44  1  0  0  0
 17 45  1  0  0  0
 17 46  1  0  0  0
 18 19  1  0  0  0
 18 27  2  0  0  0
 19 20  1  0  0  0
 19 47  1  0  0  0
 19 48  1  0  0  0
 20 21  2  0  0  0
 20 26  1  0  0  0
 21 22  1  0  0  0
 21 49  1  0  0  0
 22 23  2  0  0  0
 22 50  1  0  0  0
 23 24  1  0  0  0
 23 51  1  0  0  0
 24 25  1  0  0  0
 24 26  2  0  0  0
 26 52  1  0  0  0
 27 28  1  0  0  0
 28 29  2  0  0  0
M  END
> <s_m_entry_id>
5658

> <s_m_entry_name>
dock_pv.53

> <s_m_Source_Path>
/home/csk/Desktop/cluster/DUD-E-result/igf1r

> <s_m_Source_File>
dock_pv.maegz

> <i_m_Source_File_Index>
53

> <chembl_id>
CHEMBL3656707

> <chembl_pref_name>
None

> <i_lp_mmshare_version>
53161

> <r_lp_tautomer_probability>
0.999999987636

> <s_lp_Force_Field>
OPLS_2005

> <r_lp_Energy>
6.942683

> <b_lp_Chiralities_Consistent>
1

> <s_lp_Variant>
CHEMBL1957_lig2265-1

> <s_i_glide_gridfile>
glide-grid_2oj9

> <i_i_glide_lignum>
3245

> <i_i_glide_rotatable_bonds>
5

> <r_i_docking_score>
-8.18979065078401

> <r_i_glide_ligand_efficiency>
-0.2729930216928

> <r_i_glide_ligand_efficiency_sa>
-0.848252789940745

> <r_i_glide_ligand_efficiency_ln>
-1.86080967077442

> <r_i_glide_gscore>
-8.18979065078401

> <r_i_glide_lipo>
-3.75714698814449

> <r_i_glide_hbond>
-0.0679579520674468

> <r_i_glide_metal>
0

> <r_i_glide_rewards>
-2.6013738316568

> <r_i_glide_evdw>
-33.4271049499512

> <r_i_glide_ecoul>
-3.6056604385376

> <r_i_glide_erotb>
0.448892434362914

> <r_i_glide_esite>
0

> <r_i_glide_emodel>
-49.2872027706801

> <r_i_glide_energy>
-37.0327653884888

> <r_i_glide_einternal>
4.58291530609131

> <i_i_glide_confnum>
1

> <i_i_glide_posenum>
2

> <r_i_glide_eff_state_penalty>
0

> <s_user_duplicate_titles>
CHEMBL1957_lig2265

> <i_f3d_flags>
0

> <s_m_subgroup_title>
dock_pv

> <s_m_subgroupid>
dock_pv

> <b_m_subgroup_collapsed>
1

$$$$
CHEMBL1957_lig1052
                    3D
 Schrodinger Suite 2021-1.
 51 55  0  0  1  0            999 V2000
    5.1607  -10.1159   20.6409 C   0  0  0  0  0  0
    4.6474   -8.8544   19.9366 C   0  0  0  0  0  0
    6.0388   -9.6523   21.8071 C   0  0  0  0  0  0
    5.8813   -6.0522   22.7986 C   0  0  0  0  0  0
    3.8853   -3.3705   19.9669 C   0  0  0  0  0  0
    4.4776   -6.3999   20.9662 C   0  0  0  0  0  0
    6.1459   -7.3830   22.9382 N   0  0  0  0  0  0
    3.7215   -2.4595   18.9293 C   0  0  0  0  0  0
    4.8392   -7.7524   20.9551 C   0  0  0  0  0  0
    3.6380   -5.9089   19.9559 N   0  0  0  0  0  0
    6.4440   -5.1605   23.7412 N   0  0  0  0  0  0
    5.6672   -8.1989   21.9760 C   0  0  0  0  0  0
    3.5279   -4.6331   19.4534 C   0  0  0  0  0  0
    3.2380   -3.2286   17.9106 N   0  0  0  0  0  0
    3.0957   -4.5166   18.2230 N   0  0  0  0  0  0
    3.9945   -0.9824   18.7361 C   0  0  0  0  0  0
    4.9973   -5.5469   21.8888 N   0  0  0  0  0  0
    4.5859   -0.1469   19.8379 C   0  0  0  0  0  0
    5.4068   -0.4539   18.6149 C   0  0  0  0  0  0
    6.6614   -3.7641   23.3404 C   0  0  0  0  0  0
    7.5745   -3.4857   22.1223 C   0  0  0  0  0  0
    7.5437   -5.6294   24.5959 C   0  0  0  0  0  0
    8.7502   -4.4551   21.8689 C   0  0  0  0  0  0
    8.8783   -6.0140   23.9314 C   0  0  0  0  0  0
    9.5441   -4.9007   23.1108 C   0  0  0  0  0  0
    5.6920  -10.7818   19.9601 H   0  0  0  0  0  0
    4.3164  -10.6853   21.0335 H   0  0  0  0  0  0
    3.6369   -8.9535   19.5698 H   0  0  0  0  0  0
    5.2445   -8.6622   19.0494 H   0  0  0  0  0  0
    7.0958   -9.7560   21.5590 H   0  0  0  0  0  0
    5.8473  -10.2414   22.7035 H   0  0  0  0  0  0
    4.2828   -3.1642   20.9484 H   0  0  0  0  0  0
    3.3086   -6.6634   19.3746 H   0  0  0  0  0  0
    2.9639   -2.8729   17.0029 H   0  0  0  0  0  0
    3.2403   -0.4857   18.1222 H   0  0  0  0  0  0
    4.8425   -0.6429   20.7722 H   0  0  0  0  0  0
    4.2165    0.8686   19.9760 H   0  0  0  0  0  0
    5.6144    0.3457   17.9016 H   0  0  0  0  0  0
    6.2532   -1.1243   18.7393 H   0  0  0  0  0  0
    5.6786   -3.3993   23.0395 H   0  0  0  0  0  0
    6.8804   -3.1308   24.2011 H   0  0  0  0  0  0
    6.9660   -3.4396   21.2178 H   0  0  0  0  0  0
    7.9770   -2.4779   22.2382 H   0  0  0  0  0  0
    7.6778   -4.9468   25.4374 H   0  0  0  0  0  0
    7.1800   -6.5366   25.0799 H   0  0  0  0  0  0
    8.3847   -5.3419   21.3489 H   0  0  0  0  0  0
    9.4359   -3.9783   21.1672 H   0  0  0  0  0  0
    9.5691   -6.2846   24.7308 H   0  0  0  0  0  0
    8.7748   -6.9305   23.3492 H   0  0  0  0  0  0
    9.7425   -4.0540   23.7640 H   0  0  0  0  0  0
   10.5233   -5.2524   22.7842 H   0  0  0  0  0  0
  1  3  1  0  0  0
  1  2  1  0  0  0
  1 26  1  0  0  0
  1 27  1  0  0  0
  2  9  1  0  0  0
  2 28  1  0  0  0
  2 29  1  0  0  0
  3 12  1  0  0  0
  3 30  1  0  0  0
  3 31  1  0  0  0
  4  7  1  0  0  0
  4 11  1  0  0  0
  4 17  2  0  0  0
  5  8  2  0  0  0
  5 13  1  0  0  0
  5 32  1  0  0  0
  6  9  2  0  0  0
  6 10  1  0  0  0
  6 17  1  0  0  0
  7 12  2  0  0  0
  8 16  1  0  0  0
  8 14  1  0  0  0
  9 12  1  0  0  0
 10 13  1  0  0  0
 10 33  1  0  0  0
 11 20  1  0  0  0
 11 22  1  0  0  0
 13 15  2  0  0  0
 14 15  1  0  0  0
 14 34  1  0  0  0
 16 18  1  0  0  0
 16 19  1  0  0  0
 16 35  1  0  0  0
 18 19  1  0  0  0
 18 36  1  0  0  0
 18 37  1  0  0  0
 19 38  1  0  0  0
 19 39  1  0  0  0
 20 21  1  0  0  0
 20 40  1  0  0  0
 20 41  1  0  0  0
 21 23  1  0  0  0
 21 42  1  0  0  0
 21 43  1  0  0  0
 22 24  1  0  0  0
 22 44  1  0  0  0
 22 45  1  0  0  0
 23 25  1  0  0  0
 23 46  1  0  0  0
 23 47  1  0  0  0
 24 25  1  0  0  0
 24 48  1  0  0  0
 24 49  1  0  0  0
 25 50  1  0  0  0
 25 51  1  0  0  0
M  END
> <s_m_entry_id>
5659

> <s_m_entry_name>
dock_pv.54

> <s_m_Source_Path>
/home/csk/Desktop/cluster/DUD-E-result/igf1r

> <s_m_Source_File>
dock_pv.maegz

> <i_m_Source_File_Index>
54

> <chembl_id>
CHEMBL3409721

> <chembl_pref_name>
None

> <i_lp_mmshare_version>
53161

> <r_lp_tautomer_probability>
0.842599982216935

> <s_lp_Force_Field>
OPLS_2005

> <r_lp_Energy>
33.281163

> <b_lp_Chiralities_Consistent>
1

> <s_lp_Variant>
CHEMBL1957_lig1052-1

> <s_i_glide_gridfile>
glide-grid_2oj9

> <i_i_glide_lignum>
1353

> <i_i_glide_rotatable_bonds>
4

> <r_i_docking_score>
-8.15770848567686

> <r_i_glide_ligand_efficiency>
-0.326308339427074

> <r_i_glide_ligand_efficiency_sa>
-0.954131371587806

> <r_i_glide_ligand_efficiency_ln>
-1.93362137790147

> <r_i_glide_gscore>
-8.15770848567686

> <r_i_glide_lipo>
-3.46721443235709

> <r_i_glide_hbond>
-0.227338587081889

> <r_i_glide_metal>
0

> <r_i_glide_rewards>
-2.53320284748722

> <r_i_glide_evdw>
-39.8320274353027

> <r_i_glide_ecoul>
-3.99172115325928

> <r_i_glide_erotb>
0.660406926003371

> <r_i_glide_esite>
0

> <r_i_glide_emodel>
-58.6916018096315

> <r_i_glide_energy>
-43.823748588562

> <r_i_glide_einternal>
5.17770004272461

> <i_i_glide_confnum>
103

> <i_i_glide_posenum>
230

> <r_i_glide_eff_state_penalty>
0

> <s_user_duplicate_titles>
CHEMBL1957_lig1052

> <i_f3d_flags>
0

> <s_m_subgroup_title>
dock_pv

> <s_m_subgroupid>
dock_pv

> <b_m_subgroup_collapsed>
1

$$$$
CHEMBL1957_lig2803
                    3D
 Schrodinger Suite 2021-1.
 61 65  0  0  1  0            999 V2000
    4.4381   -7.5604   20.9609 O   0  0  0  0  0  0
    6.4161   -0.3830   23.5345 O   0  0  0  0  0  0
   10.4361  -10.0869   23.0577 N   0  0  0  0  0  0
    2.8381   -5.7020   18.2380 N   0  0  0  0  0  0
    5.7870    0.9504   21.0380 N   0  0  0  0  0  0
    6.3896   -8.0539   24.1137 N   0  0  0  0  0  0
    5.6224   -1.3804   21.5306 C   0  0  0  0  0  0
    4.1295   -2.7197   20.1322 C   0  0  0  0  0  0
    8.2939  -10.7166   23.3845 C   0  0  0  0  0  0
    3.6410   -4.0877   19.8242 C   0  0  0  0  0  0
    8.2898   -9.5650   22.5174 C   0  0  0  0  0  0
    6.4384   -1.3675   22.7916 C   0  0  0  0  0  0
    9.6559  -11.0071   23.7211 C   0  0  0  0  0  0
    4.8508   -2.5073   21.3128 C   0  0  0  0  0  0
    5.4358   -0.3183   20.6395 C   0  0  0  0  0  0
    4.0687   -1.6720   19.2029 C   0  0  0  0  0  0
    7.3560   -2.5371   23.0850 C   0  0  0  0  0  0
    4.7141   -0.4681   19.4620 C   0  0  0  0  0  0
    4.0289   -5.1615   20.6385 C   0  0  0  0  0  0
    9.6193   -9.2190   22.3796 C   0  0  0  0  0  0
    3.9290   -6.4850   20.2391 C   0  0  0  0  0  0
    7.1016   -8.8531   21.8737 C   0  0  0  0  0  0
    7.2866  -11.5328   23.9245 C   0  0  0  0  0  0
    3.0562   -4.4236   18.6044 C   0  0  0  0  0  0
   10.0104  -12.0556   24.5770 C   0  0  0  0  0  0
    5.9128   -8.4669   22.7976 C   0  0  2  0  0  0
    3.2598   -6.6997   19.0380 C   0  0  0  0  0  0
    7.6369  -12.5673   24.7918 C   0  0  0  0  0  0
    7.6200   -3.5442   22.1359 C   0  0  0  0  0  0
    8.0100   -2.6108   24.3228 C   0  0  0  0  0  0
    8.9687  -12.8139   25.1116 C   0  0  0  0  0  0
    5.0895   -7.2944   22.2170 C   0  0  0  0  0  0
    8.4379   -4.6272   22.4483 C   0  0  0  0  0  0
    8.8308   -3.6941   24.6377 C   0  0  0  0  0  0
    9.0296   -4.7083   23.7050 C   0  0  0  0  0  0
   11.4513  -10.0277   23.0375 H   0  0  0  0  0  0
    6.3754    0.9537   21.8615 H   0  0  0  0  0  0
    6.0792    1.5870   20.2850 H   0  0  0  0  0  0
    7.1295   -7.3723   24.0187 H   0  0  0  0  0  0
    5.6509   -7.6071   24.6389 H   0  0  0  0  0  0
    4.8799   -3.2356   22.1035 H   0  0  0  0  0  0
    3.5488   -1.7695   18.2647 H   0  0  0  0  0  0
    4.6343    0.3459   18.7643 H   0  0  0  0  0  0
    4.4859   -5.0022   21.5857 H   0  0  0  0  0  0
   10.0442   -8.3957   21.8301 H   0  0  0  0  0  0
    7.4841   -7.9338   21.4318 H   0  0  0  0  0  0
    6.7162   -9.4395   21.0369 H   0  0  0  0  0  0
    6.2505  -11.3490   23.6901 H   0  0  0  0  0  0
    2.7571   -3.6857   17.8757 H   0  0  0  0  0  0
   11.0411  -12.2610   24.8283 H   0  0  0  0  0  0
    5.2620   -9.3338   22.9326 H   0  0  0  0  0  0
    3.1006   -7.7052   18.6784 H   0  0  0  0  0  0
    6.8623  -13.1824   25.2270 H   0  0  0  0  0  0
    7.2054   -3.5113   21.1387 H   0  0  0  0  0  0
    7.8795   -1.8308   25.0595 H   0  0  0  0  0  0
    9.2030  -13.6144   25.7947 H   0  0  0  0  0  0
    4.3288   -6.9791   22.9365 H   0  0  0  0  0  0
    5.7970   -6.4675   22.1113 H   0  0  0  0  0  0
    8.6241   -5.3969   21.7114 H   0  0  0  0  0  0
    9.3143   -3.7434   25.6018 H   0  0  0  0  0  0
    9.6741   -5.5425   23.9410 H   0  0  0  0  0  0
  1 21  1  0  0  0
  1 32  1  0  0  0
  2 12  2  0  0  0
  3 13  1  0  0  0
  3 20  1  0  0  0
  3 36  1  0  0  0
  4 24  2  0  0  0
  4 27  1  0  0  0
  5 15  1  0  0  0
  5 37  1  0  0  0
  5 38  1  0  0  0
  6 26  1  0  0  0
  6 39  1  0  0  0
  6 40  1  0  0  0
  7 12  1  0  0  0
  7 14  2  0  0  0
  7 15  1  0  0  0
  8 10  1  0  0  0
  8 14  1  0  0  0
  8 16  2  0  0  0
  9 11  1  0  0  0
  9 13  1  0  0  0
  9 23  2  0  0  0
 10 19  2  0  0  0
 10 24  1  0  0  0
 11 20  2  0  0  0
 11 22  1  0  0  0
 12 17  1  0  0  0
 13 25  2  0  0  0
 14 41  1  0  0  0
 15 18  2  0  0  0
 16 18  1  0  0  0
 16 42  1  0  0  0
 17 29  2  0  0  0
 17 30  1  0  0  0
 18 43  1  0  0  0
 19 21  1  0  0  0
 19 44  1  0  0  0
 20 45  1  0  0  0
 21 27  2  0  0  0
 22 26  1  0  0  0
 22 46  1  0  0  0
 22 47  1  0  0  0
 23 28  1  0  0  0
 23 48  1  0  0  0
 24 49  1  0  0  0
 25 31  1  0  0  0
 25 50  1  0  0  0
 26 32  1  0  0  0
 26 51  1  0  0  0
 27 52  1  0  0  0
 28 31  2  0  0  0
 28 53  1  0  0  0
 29 33  1  0  0  0
 29 54  1  0  0  0
 30 34  2  0  0  0
 30 55  1  0  0  0
 31 56  1  0  0  0
 32 57  1  0  0  0
 32 58  1  0  0  0
 33 35  2  0  0  0
 33 59  1  0  0  0
 34 35  1  0  0  0
 34 60  1  0  0  0
 35 61  1  0  0  0
M  END
> <s_m_entry_id>
5660

> <s_m_entry_name>
dock_pv.55

> <s_m_Source_Path>
/home/csk/Desktop/cluster/DUD-E-result/igf1r

> <s_m_Source_File>
dock_pv.maegz

> <i_m_Source_File_Index>
55

> <chembl_id>
CHEMBL1972125

> <chembl_pref_name>
None

> <i_lp_mmshare_version>
53161

> <r_lp_tautomer_probability>
1

> <s_lp_Force_Field>
OPLS_2005

> <r_lp_Energy>
37.690953

> <b_lp_Chiralities_Consistent>
1

> <s_lp_Variant>
CHEMBL1957_lig2803-1

> <s_i_glide_gridfile>
glide-grid_2oj9

> <i_i_glide_lignum>
3882

> <i_i_glide_rotatable_bonds>
8

> <r_i_docking_score>
-8.13096760816328

> <r_i_glide_ligand_efficiency>
-0.232313360233237

> <r_i_glide_ligand_efficiency_sa>
-0.759912405165061

> <r_i_glide_ligand_efficiency_ln>
-1.78492784709513

> <r_i_glide_gscore>
-8.13096760816328

> <r_i_glide_lipo>
-3.25956353103484

> <r_i_glide_hbond>
-0.72

> <r_i_glide_metal>
0

> <r_i_glide_rewards>
-1.76540525348451

> <r_i_glide_evdw>
-22.991283416748

> <r_i_glide_ecoul>
-11.6072959899902

> <r_i_glide_erotb>
0.65910926400975

> <r_i_glide_esite>
-0.154449518317747

> <r_i_glide_emodel>
-28.1734080870329

> <r_i_glide_energy>
-34.5985794067383

> <r_i_glide_einternal>
18.8086433410645

> <i_i_glide_confnum>
13

> <i_i_glide_posenum>
142

> <r_i_glide_eff_state_penalty>
0

> <s_user_duplicate_titles>
CHEMBL1957_lig2803

> <i_f3d_flags>
0

> <s_m_subgroup_title>
dock_pv

> <s_m_subgroupid>
dock_pv

> <b_m_subgroup_collapsed>
1

$$$$
CHEMBL1957_lig3188
                    3D
 Schrodinger Suite 2021-1.
 49 52  0  0  1  0            999 V2000
    4.4381   -6.8539   21.6314 Cl  0  0  0  0  0  0
    8.6507   -5.9412   23.4894 O   0  0  0  0  0  0
    3.6380   -1.2543   18.2609 N   0  0  0  0  0  0
    3.1006   -2.4565   18.0068 N   0  0  0  0  0  0
    8.1004   -2.4544   24.6379 N   0  0  0  0  0  0
   10.5521   -8.4877   25.3768 N   0  0  0  0  0  0
    4.2666   -2.8287   19.8380 C   0  0  0  0  0  0
    4.3905   -1.4850   19.3733 C   0  0  0  0  0  0
    5.9077   -2.3733   21.5562 C   0  0  0  0  0  0
    4.9853   -3.2435   20.9670 C   0  0  0  0  0  0
    3.4175   -3.4571   18.8908 C   0  0  0  0  0  0
    6.8193   -2.8735   22.6236 C   0  0  0  0  0  0
    5.2494   -0.5870   20.0187 C   0  0  0  0  0  0
    6.0106   -1.0589   21.0881 C   0  0  0  0  0  0
    7.3293   -4.1824   22.5982 C   0  0  0  0  0  0
    8.2115   -4.6352   23.5823 C   0  0  0  0  0  0
    7.2367   -2.0542   23.6770 C   0  0  0  0  0  0
    8.5772   -3.7221   24.5817 C   0  0  0  0  0  0
    2.9673   -4.8866   18.7053 C   0  0  0  0  0  0
    9.5083   -6.4649   24.5002 C   0  0  0  0  0  0
    9.5489   -8.0100   24.4375 C   0  0  2  0  0  0
    7.2901   -8.8885   23.5716 C   0  0  0  0  0  0
    8.1989   -8.6936   24.7791 C   0  0  0  0  0  0
    6.3602   -7.9075   23.2174 C   0  0  0  0  0  0
    5.5510   -8.0836   22.0948 C   0  0  0  0  0  0
    7.3825  -10.0571   22.8069 C   0  0  0  0  0  0
    5.6385   -9.2539   21.3428 C   0  0  0  0  0  0
    6.5534  -10.2431   21.6998 C   0  0  0  0  0  0
    2.5073   -2.5995   17.1975 H   0  0  0  0  0  0
   11.4537   -8.1010   25.1330 H   0  0  0  0  0  0
   10.3367   -8.1588   26.3071 H   0  0  0  0  0  0
    4.8969   -4.2589   21.3100 H   0  0  0  0  0  0
    5.3766    0.4234   19.6559 H   0  0  0  0  0  0
    6.7311   -0.3894   21.5291 H   0  0  0  0  0  0
    7.0564   -4.8630   21.8056 H   0  0  0  0  0  0
    6.8905   -1.0359   23.7672 H   0  0  0  0  0  0
    9.2706   -3.9793   25.3659 H   0  0  0  0  0  0
    3.8125   -5.5565   18.5428 H   0  0  0  0  0  0
    2.4382   -5.2609   19.5819 H   0  0  0  0  0  0
    2.3170   -5.0000   17.8379 H   0  0  0  0  0  0
    9.1777   -6.1689   25.4974 H   0  0  0  0  0  0
   10.5072   -6.0481   24.3550 H   0  0  0  0  0  0
    9.8716   -8.3212   23.4404 H   0  0  0  0  0  0
    7.6700   -8.1471   25.5629 H   0  0  0  0  0  0
    8.3645   -9.6865   25.2034 H   0  0  0  0  0  0
    6.2755   -7.0023   23.8012 H   0  0  0  0  0  0
    8.0948  -10.8248   23.0716 H   0  0  0  0  0  0
    5.0039   -9.3938   20.4788 H   0  0  0  0  0  0
    6.6279  -11.1478   21.1135 H   0  0  0  0  0  0
  1 25  1  0  0  0
  2 16  1  0  0  0
  2 20  1  0  0  0
  3  4  1  0  0  0
  3  8  2  0  0  0
  4 29  1  0  0  0
  4 11  1  0  0  0
  5 17  1  0  0  0
  5 18  2  0  0  0
  6 21  1  0  0  0
  6 30  1  0  0  0
  6 31  1  0  0  0
  7 10  1  0  0  0
  7  8  1  0  0  0
  7 11  2  0  0  0
  8 13  1  0  0  0
  9 14  1  0  0  0
  9 12  1  0  0  0
  9 10  2  0  0  0
 10 32  1  0  0  0
 11 19  1  0  0  0
 12 15  1  0  0  0
 12 17  2  0  0  0
 13 33  1  0  0  0
 13 14  2  0  0  0
 14 34  1  0  0  0
 15 16  2  0  0  0
 15 35  1  0  0  0
 16 18  1  0  0  0
 17 36  1  0  0  0
 18 37  1  0  0  0
 19 38  1  0  0  0
 19 39  1  0  0  0
 19 40  1  0  0  0
 20 21  1  0  0  0
 20 41  1  0  0  0
 20 42  1  0  0  0
 21 23  1  0  0  0
 21 43  1  0  0  0
 22 23  1  0  0  0
 22 24  1  0  0  0
 22 26  2  0  0  0
 23 44  1  0  0  0
 23 45  1  0  0  0
 24 25  2  0  0  0
 24 46  1  0  0  0
 25 27  1  0  0  0
 26 28  1  0  0  0
 26 47  1  0  0  0
 27 28  2  0  0  0
 27 48  1  0  0  0
 28 49  1  0  0  0
M  END
> <s_m_entry_id>
5661

> <s_m_entry_name>
dock_pv.56

> <s_m_Source_Path>
/home/csk/Desktop/cluster/DUD-E-result/igf1r

> <s_m_Source_File>
dock_pv.maegz

> <i_m_Source_File_Index>
56

> <chembl_id>
CHEMBL1974870

> <chembl_pref_name>
None

> <i_lp_mmshare_version>
53161

> <r_lp_tautomer_probability>
0.0196078431372549

> <s_lp_Force_Field>
OPLS_2005

> <r_lp_Energy>
40.681387

> <b_lp_Chiralities_Consistent>
1

> <s_lp_Variant>
CHEMBL1957_lig3188-3

> <s_i_glide_gridfile>
glide-grid_2oj9

> <i_i_glide_lignum>
4432

> <i_i_glide_rotatable_bonds>
6

> <r_i_docking_score>
-8.12166274068685

> <r_i_glide_ligand_efficiency>
-0.290059383595959

> <r_i_glide_ligand_efficiency_sa>
-0.880791124438216

> <r_i_glide_ligand_efficiency_ln>
-1.87471822293043

> <r_i_glide_gscore>
-8.12166274068685

> <r_i_glide_lipo>
-3.99263525095635

> <r_i_glide_hbond>
-0.32

> <r_i_glide_metal>
0

> <r_i_glide_rewards>
-1.74701462104372

> <r_i_glide_evdw>
-44.6532821655273

> <r_i_glide_ecoul>
-3.07969450950623

> <r_i_glide_erotb>
0.632605416015526

> <r_i_glide_esite>
0

> <r_i_glide_emodel>
-67.0201044028168

> <r_i_glide_energy>
-47.7329766750336

> <r_i_glide_einternal>
2.63578128814697

> <i_i_glide_confnum>
42

> <i_i_glide_posenum>
266

> <r_i_glide_eff_state_penalty>
0

> <s_user_duplicate_titles>
CHEMBL1957_lig3188

> <i_f3d_flags>
0

> <s_m_subgroup_title>
dock_pv

> <s_m_subgroupid>
dock_pv

> <b_m_subgroup_collapsed>
1

$$$$
CHEMBL1957_lig2777
                    3D
 Schrodinger Suite 2021-1.
 45 48  0  0  1  0            999 V2000
    6.0380    1.1460   23.6098 O   0  0  0  0  0  0
    7.2380   -1.2938   25.4380 O   0  0  0  0  0  0
    7.6744  -10.8890   22.1009 O   0  0  0  0  0  0
    5.6380   -0.8541   21.0500 N   0  0  0  0  0  0
    6.7820   -3.4393   22.9193 N   0  0  0  0  0  0
    2.8380   -4.3378   17.8453 N   0  0  0  0  0  0
    2.8380   -5.4664   18.5822 N   0  0  0  0  0  0
    8.6673   -8.8548   22.4824 N   0  0  0  0  0  0
    6.1017   -1.0689   22.3286 C   0  0  0  0  0  0
    6.5764   -2.0928   23.0920 C   0  0  0  0  0  0
    6.2439   -0.0502   23.4405 C   0  0  0  0  0  0
    6.8047   -1.2068   24.3017 C   0  0  0  0  0  0
    4.7979   -1.6825   20.2889 C   0  0  0  0  0  0
    3.6951   -3.7785   19.8142 C   0  0  0  0  0  0
    3.3528   -3.2704   18.5454 C   0  0  0  0  0  0
    4.3742   -2.9504   20.7198 C   0  0  0  0  0  0
    4.3571   -1.1834   19.0636 C   0  0  0  0  0  0
    7.0305   -4.4399   23.9437 C   0  0  0  0  0  0
    3.5797   -1.9443   18.1922 C   0  0  0  0  0  0
    3.2380   -5.1314   19.7818 C   0  0  0  0  0  0
    6.7747   -5.8101   23.3397 C   0  0  0  0  0  0
    7.8132   -6.7332   23.1779 C   0  0  0  0  0  0
    7.5661   -7.9889   22.6097 C   0  0  0  0  0  0
    5.4827   -6.1469   22.9238 C   0  0  0  0  0  0
    6.2647   -8.3023   22.1814 C   0  0  0  0  0  0
    5.2322   -7.3835   22.3398 C   0  0  0  0  0  0
    8.6704  -10.1821   22.2384 C   0  0  0  0  0  0
   10.0382  -10.8328   22.1359 C   0  0  0  0  0  0
    5.7730    0.0573   20.6330 H   0  0  0  0  0  0
    6.7234   -3.8337   21.9902 H   0  0  0  0  0  0
    2.4962   -4.3221   16.8915 H   0  0  0  0  0  0
    9.5680   -8.4254   22.6382 H   0  0  0  0  0  0
    4.6281   -3.3317   21.6920 H   0  0  0  0  0  0
    4.6372   -0.1845   18.7590 H   0  0  0  0  0  0
    6.3610   -4.2933   24.7927 H   0  0  0  0  0  0
    8.0532   -4.3544   24.3159 H   0  0  0  0  0  0
    3.2380   -1.5551   17.2448 H   0  0  0  0  0  0
    3.3072   -5.8698   20.5653 H   0  0  0  0  0  0
    8.8120   -6.4696   23.4980 H   0  0  0  0  0  0
    4.6731   -5.4417   23.0382 H   0  0  0  0  0  0
    6.0272   -9.2436   21.7118 H   0  0  0  0  0  0
    4.2373   -7.6317   22.0043 H   0  0  0  0  0  0
   10.1595  -11.5820   22.9177 H   0  0  0  0  0  0
   10.8380  -10.0997   22.2380 H   0  0  0  0  0  0
   10.1377  -11.3256   21.1694 H   0  0  0  0  0  0
  1 11  2  0  0  0
  2 12  2  0  0  0
  3 27  2  0  0  0
  4  9  1  0  0  0
  4 13  1  0  0  0
  4 29  1  0  0  0
  5 10  1  0  0  0
  5 18  1  0  0  0
  5 30  1  0  0  0
  6  7  1  0  0  0
  6 15  1  0  0  0
  6 31  1  0  0  0
  7 20  2  0  0  0
  8 23  1  0  0  0
  8 27  1  0  0  0
  8 32  1  0  0  0
  9 10  2  0  0  0
  9 11  1  0  0  0
 10 12  1  0  0  0
 11 12  1  0  0  0
 13 16  1  0  0  0
 13 17  2  0  0  0
 14 15  1  0  0  0
 14 16  2  0  0  0
 14 20  1  0  0  0
 15 19  2  0  0  0
 16 33  1  0  0  0
 17 19  1  0  0  0
 17 34  1  0  0  0
 18 21  1  0  0  0
 18 35  1  0  0  0
 18 36  1  0  0  0
 19 37  1  0  0  0
 20 38  1  0  0  0
 21 22  2  0  0  0
 21 24  1  0  0  0
 22 23  1  0  0  0
 22 39  1  0  0  0
 23 25  2  0  0  0
 24 26  2  0  0  0
 24 40  1  0  0  0
 25 26  1  0  0  0
 25 41  1  0  0  0
 26 42  1  0  0  0
 27 28  1  0  0  0
 28 43  1  0  0  0
 28 44  1  0  0  0
 28 45  1  0  0  0
M  END
> <s_m_entry_id>
5662

> <s_m_entry_name>
dock_pv.57

> <s_m_Source_Path>
/home/csk/Desktop/cluster/DUD-E-result/igf1r

> <s_m_Source_File>
dock_pv.maegz

> <i_m_Source_File_Index>
57

> <chembl_id>
CHEMBL1988608

> <chembl_pref_name>
None

> <i_lp_mmshare_version>
53161

> <r_lp_tautomer_probability>
1

> <s_lp_Force_Field>
OPLS_2005

> <r_lp_Energy>
52.950027

> <b_lp_Chiralities_Consistent>
1

> <s_lp_Variant>
CHEMBL1957_lig2777-1

> <s_i_glide_gridfile>
glide-grid_2oj9

> <i_i_glide_lignum>
3838

> <i_i_glide_rotatable_bonds>
7

> <r_i_docking_score>
-8.10760231634114

> <r_i_glide_ligand_efficiency>
-0.289557225583612

> <r_i_glide_ligand_efficiency_sa>
-0.879266276957478

> <r_i_glide_ligand_efficiency_ln>
-1.87147266415944

> <r_i_glide_gscore>
-8.10760231634114

> <r_i_glide_lipo>
-3.64792694746171

> <r_i_glide_hbond>
-0.721169571789457

> <r_i_glide_metal>
0

> <r_i_glide_rewards>
-1.44911641399264

> <r_i_glide_evdw>
-37.4230537414551

> <r_i_glide_ecoul>
-6.58901166915894

> <r_i_glide_erotb>
0.576636236549081

> <r_i_glide_esite>
-0.00652118219981302

> <r_i_glide_emodel>
-65.4672072075781

> <r_i_glide_energy>
-44.012065410614

> <r_i_glide_einternal>
5.7657995223999

> <i_i_glide_confnum>
37

> <i_i_glide_posenum>
140

> <r_i_glide_eff_state_penalty>
0

> <s_user_duplicate_titles>
CHEMBL1957_lig2777

> <i_f3d_flags>
0

> <s_m_subgroup_title>
dock_pv

> <s_m_subgroupid>
dock_pv

> <b_m_subgroup_collapsed>
1

$$$$
CHEMBL1957_lig3340
                    3D
 Schrodinger Suite 2021-1.
 49 52  0  0  1  0            999 V2000
    5.7370   -9.7901   20.6374 Cl  0  0  0  0  0  0
    4.0380   -7.1239   21.0874 Cl  0  0  0  0  0  0
    8.9912   -5.8148   23.3213 O   0  0  0  0  0  0
    3.6381   -1.2541   18.2941 N   0  0  0  0  0  0
    3.1066   -2.4551   18.0306 N   0  0  0  0  0  0
    8.1274   -2.4540   24.6381 N   0  0  0  0  0  0
   10.9509   -8.4533   25.0106 N   0  0  0  0  0  0
    4.3053   -2.8461   19.8412 C   0  0  0  0  0  0
    4.4056   -1.4935   19.3944 C   0  0  0  0  0  0
    5.9621   -2.3907   21.5457 C   0  0  0  0  0  0
    5.0474   -3.2694   20.9542 C   0  0  0  0  0  0
    3.4397   -3.4646   18.8980 C   0  0  0  0  0  0
    6.9008   -2.8756   22.5939 C   0  0  0  0  0  0
    5.2573   -0.5924   20.0432 C   0  0  0  0  0  0
    6.0340   -1.0659   21.0986 C   0  0  0  0  0  0
    7.5234   -4.1318   22.5049 C   0  0  0  0  0  0
    8.4371   -4.5577   23.4750 C   0  0  0  0  0  0
    7.2376   -2.0791   23.6918 C   0  0  0  0  0  0
    8.7114   -3.6724   24.5271 C   0  0  0  0  0  0
    2.9759   -4.8866   18.6997 C   0  0  0  0  0  0
    7.3099   -8.2485   23.9799 C   0  0  0  0  0  0
    6.0221   -8.7556   21.9932 C   0  0  0  0  0  0
    5.2409   -7.6155   22.2169 C   0  0  0  0  0  0
    7.0594   -9.0630   22.8723 C   0  0  0  0  0  0
    9.8223   -7.9001   24.2777 C   0  0  1  0  0  0
    8.5218   -8.5114   24.8580 C   0  0  0  0  0  0
    9.8635   -6.3505   24.3207 C   0  0  0  0  0  0
    6.4753   -7.1580   24.2383 C   0  0  0  0  0  0
    5.4492   -6.8374   23.3544 C   0  0  0  0  0  0
    2.5058   -2.5934   17.2250 H   0  0  0  0  0  0
   11.8092   -8.1432   24.5716 H   0  0  0  0  0  0
   10.9612   -8.0971   25.9553 H   0  0  0  0  0  0
    4.9854   -4.2961   21.2829 H   0  0  0  0  0  0
    5.3629    0.4262   19.6952 H   0  0  0  0  0  0
    6.7465   -0.3914   21.5466 H   0  0  0  0  0  0
    7.3119   -4.7874   21.6734 H   0  0  0  0  0  0
    6.8039   -1.0995   23.8267 H   0  0  0  0  0  0
    9.4237   -3.9042   25.3025 H   0  0  0  0  0  0
    3.8118   -5.5631   18.5241 H   0  0  0  0  0  0
    2.4417   -5.2588   19.5731 H   0  0  0  0  0  0
    2.3190   -4.9851   17.8375 H   0  0  0  0  0  0
    7.6880   -9.9194   22.6767 H   0  0  0  0  0  0
    9.9356   -8.2210   23.2396 H   0  0  0  0  0  0
    8.3345   -8.1411   25.8681 H   0  0  0  0  0  0
    8.6250   -9.5933   24.9646 H   0  0  0  0  0  0
    9.5993   -6.0352   25.3310 H   0  0  0  0  0  0
   10.8705   -5.9781   24.1220 H   0  0  0  0  0  0
    6.6585   -6.5226   25.0933 H   0  0  0  0  0  0
    4.8403   -5.9644   23.5369 H   0  0  0  0  0  0
  1 22  1  0  0  0
  2 23  1  0  0  0
  3 17  1  0  0  0
  3 27  1  0  0  0
  4  5  1  0  0  0
  4  9  2  0  0  0
  5 30  1  0  0  0
  5 12  1  0  0  0
  6 18  1  0  0  0
  6 19  2  0  0  0
  7 25  1  0  0  0
  7 31  1  0  0  0
  7 32  1  0  0  0
  8 11  1  0  0  0
  8  9  1  0  0  0
  8 12  2  0  0  0
  9 14  1  0  0  0
 10 15  1  0  0  0
 10 13  1  0  0  0
 10 11  2  0  0  0
 11 33  1  0  0  0
 12 20  1  0  0  0
 13 16  1  0  0  0
 13 18  2  0  0  0
 14 34  1  0  0  0
 14 15  2  0  0  0
 15 35  1  0  0  0
 16 17  2  0  0  0
 16 36  1  0  0  0
 17 19  1  0  0  0
 18 37  1  0  0  0
 19 38  1  0  0  0
 20 39  1  0  0  0
 20 40  1  0  0  0
 20 41  1  0  0  0
 21 24  1  0  0  0
 21 26  1  0  0  0
 21 28  2  0  0  0
 22 23  1  0  0  0
 22 24  2  0  0  0
 23 29  2  0  0  0
 24 42  1  0  0  0
 25 26  1  0  0  0
 25 27  1  0  0  0
 25 43  1  0  0  0
 26 44  1  0  0  0
 26 45  1  0  0  0
 27 46  1  0  0  0
 27 47  1  0  0  0
 28 29  1  0  0  0
 28 48  1  0  0  0
 29 49  1  0  0  0
M  END
> <s_m_entry_id>
5663

> <s_m_entry_name>
dock_pv.58

> <s_m_Source_Path>
/home/csk/Desktop/cluster/DUD-E-result/igf1r

> <s_m_Source_File>
dock_pv.maegz

> <i_m_Source_File_Index>
58

> <chembl_id>
CHEMBL1991063

> <chembl_pref_name>
None

> <i_lp_mmshare_version>
53161

> <r_lp_tautomer_probability>
0.0196078431372549

> <s_lp_Force_Field>
OPLS_2005

> <r_lp_Energy>
41.056095

> <b_lp_Chiralities_Consistent>
1

> <s_lp_Variant>
CHEMBL1957_lig3340-4

> <s_i_glide_gridfile>
glide-grid_2oj9

> <i_i_glide_lignum>
4702

> <i_i_glide_rotatable_bonds>
6

> <r_i_docking_score>
-8.10264877356654

> <r_i_glide_ligand_efficiency>
-0.279401681847122

> <r_i_glide_ligand_efficiency_sa>
-0.85841048730033

> <r_i_glide_ligand_efficiency_ln>
-1.85530110370188

> <r_i_glide_gscore>
-8.10264877356654

> <r_i_glide_lipo>
-4.05435261030148

> <r_i_glide_hbond>
-0.32

> <r_i_glide_metal>
0

> <r_i_glide_rewards>
-1.5204520996391

> <r_i_glide_evdw>
-46.5677833557129

> <r_i_glide_ecoul>
-2.82052040100098

> <r_i_glide_erotb>
0.543623164309835

> <r_i_glide_esite>
0

> <r_i_glide_emodel>
-70.9658829351

> <r_i_glide_energy>
-49.3883037567139

> <r_i_glide_einternal>
1.85529828071594

> <i_i_glide_confnum>
59

> <i_i_glide_posenum>
234

> <r_i_glide_eff_state_penalty>
0

> <s_user_duplicate_titles>
CHEMBL1957_lig3340,CHEMBL1957_lig3340

> <i_f3d_flags>
0

> <s_m_subgroup_title>
dock_pv

> <s_m_subgroupid>
dock_pv

> <b_m_subgroup_collapsed>
1

$$$$
CHEMBL1957_lig3382
                    3D
 Schrodinger Suite 2021-1.
 36 39  0  0  1  0            999 V2000
    5.8176   -2.8193   21.7031 C   0  0  0  0  0  0
    6.0380   -1.4828   21.3451 C   0  0  0  0  0  0
    5.3356   -0.8720   20.3004 C   0  0  0  0  0  0
    4.8284   -3.5545   21.0383 C   0  0  0  0  0  0
    4.1526   -2.9890   19.9585 C   0  0  0  0  0  0
    4.3953   -1.6343   19.5900 C   0  0  0  0  0  0
    3.0114   -2.3953   18.1693 N   0  0  0  0  0  0
    3.2378   -3.4632   18.9932 C   0  0  0  0  0  0
    6.6851   -3.5259   22.7090 C   0  0  0  0  0  0
    6.4073   -4.7763   23.0452 N   0  0  0  0  0  0
    7.8438   -3.0414   23.3220 C   0  0  0  0  0  0
    8.6131   -4.3090   24.2382 S   0  0  0  0  0  0
    7.3057   -5.3455   23.7993 C   0  0  0  0  0  0
    6.1554   -7.5759   24.2170 C   0  0  0  0  0  0
    5.7327   -8.0213   22.8191 C   0  0  0  0  0  0
    6.2126   -9.2225   22.2898 C   0  0  0  0  0  0
    5.7778   -9.6552   21.0379 C   0  0  0  0  0  0
    4.8961   -8.8675   20.2988 C   0  0  0  0  0  0
    4.4382   -7.6546   20.8062 C   0  0  0  0  0  0
    4.8356   -7.2495   22.0779 C   0  0  0  0  0  0
    3.6517   -1.2607   18.5050 N   0  0  0  0  0  0
    7.2791   -6.6412   24.2501 N   0  0  0  0  0  0
    6.7999   -0.9110   21.8532 H   0  0  0  0  0  0
    5.5497    0.1491   20.0168 H   0  0  0  0  0  0
    4.6500   -4.5895   21.2707 H   0  0  0  0  0  0
    2.7726   -4.4177   18.8006 H   0  0  0  0  0  0
    8.3141   -2.0743   23.2313 H   0  0  0  0  0  0
    5.3042   -7.1316   24.7339 H   0  0  0  0  0  0
    6.4387   -8.4527   24.7988 H   0  0  0  0  0  0
    6.8999   -9.8341   22.8563 H   0  0  0  0  0  0
    6.1308  -10.5929   20.6342 H   0  0  0  0  0  0
    4.5689   -9.1996   19.3239 H   0  0  0  0  0  0
    3.7545   -7.0495   20.2293 H   0  0  0  0  0  0
    4.4237   -6.3476   22.5029 H   0  0  0  0  0  0
    2.4121   -2.4390   17.3517 H   0  0  0  0  0  0
    7.9400   -6.8843   24.9751 H   0  0  0  0  0  0
  1  2  1  0  0  0
  1  9  1  0  0  0
  1  4  2  0  0  0
  2  3  2  0  0  0
  2 23  1  0  0  0
  3  6  1  0  0  0
  3 24  1  0  0  0
  4 25  1  0  0  0
  4  5  1  0  0  0
  5  6  1  0  0  0
  5  8  2  0  0  0
  6 21  2  0  0  0
  7 35  1  0  0  0
  7 21  1  0  0  0
  7  8  1  0  0  0
  8 26  1  0  0  0
  9 10  1  0  0  0
  9 11  2  0  0  0
 10 13  2  0  0  0
 11 12  1  0  0  0
 11 27  1  0  0  0
 12 13  1  0  0  0
 13 22  1  0  0  0
 14 15  1  0  0  0
 14 22  1  0  0  0
 14 28  1  0  0  0
 14 29  1  0  0  0
 15 16  2  0  0  0
 15 20  1  0  0  0
 16 17  1  0  0  0
 16 30  1  0  0  0
 17 18  2  0  0  0
 17 31  1  0  0  0
 18 19  1  0  0  0
 18 32  1  0  0  0
 19 20  2  0  0  0
 19 33  1  0  0  0
 20 34  1  0  0  0
 22 36  1  0  0  0
M  END
> <s_m_entry_id>
5664

> <s_m_entry_name>
dock_pv.59

> <s_m_Source_Path>
/home/csk/Desktop/cluster/DUD-E-result/igf1r

> <s_m_Source_File>
dock_pv.maegz

> <i_m_Source_File_Index>
59

> <chembl_id>
CHEMBL1682546

> <chembl_pref_name>
None

> <i_lp_mmshare_version>
53161

> <r_lp_tautomer_probability>
0.0196078431372549

> <s_lp_Force_Field>
OPLS_2005

> <r_lp_Energy>
21.464582

> <b_lp_Chiralities_Consistent>
1

> <s_lp_Variant>
CHEMBL1957_lig3382-2

> <s_i_glide_gridfile>
glide-grid_2oj9

> <i_i_glide_lignum>
4764

> <i_i_glide_rotatable_bonds>
4

> <r_i_docking_score>
-8.08455582730228

> <r_i_glide_ligand_efficiency>
-0.367479810331922

> <r_i_glide_ligand_efficiency_sa>
-1.02969288071089

> <r_i_glide_ligand_efficiency_ln>
-1.97616033553152

> <r_i_glide_gscore>
-8.08455582730228

> <r_i_glide_lipo>
-3.71798217377196

> <r_i_glide_hbond>
-0.32

> <r_i_glide_metal>
0

> <r_i_glide_rewards>
-2.33676307575757

> <r_i_glide_evdw>
-39.5634651184082

> <r_i_glide_ecoul>
-3.45752954483032

> <r_i_glide_erotb>
0.787079804184623

> <r_i_glide_esite>
-8.76943124104412e-05

> <r_i_glide_emodel>
-61.7170443938886

> <r_i_glide_energy>
-43.0209946632385

> <r_i_glide_einternal>
0.924998044967651

> <i_i_glide_confnum>
14

> <i_i_glide_posenum>
398

> <r_i_glide_eff_state_penalty>
0

> <s_user_duplicate_titles>
CHEMBL1957_lig3382

> <i_f3d_flags>
0

> <s_m_subgroup_title>
dock_pv

> <s_m_subgroupid>
dock_pv

> <b_m_subgroup_collapsed>
1

$$$$
CHEMBL1957_lig494
                    3D
 Schrodinger Suite 2021-1.
 37 38  0  0  1  0            999 V2000
    8.3054   -9.0510   24.1555 C   0  0  2  0  0  0
    8.3988   -8.4540   25.5068 N   0  0  0  0  0  0
    9.3815   -8.4573   23.2002 C   0  0  0  0  0  0
   10.4957   -7.9942   23.8380 O   0  0  0  0  0  0
    9.2380   -8.4540   21.9775 O   0  0  0  0  0  0
    5.2380   -1.6962   21.3963 C   0  0  0  0  0  0
    4.9143   -0.9745   20.2380 C   0  0  0  0  0  0
    4.1820   -1.5839   19.2152 C   0  0  0  0  0  0
    4.8788   -3.0380   21.5152 C   0  0  0  0  0  0
    4.1979   -3.6540   20.4684 C   0  0  0  0  0  0
    3.8432   -2.9294   19.3506 C   0  0  0  0  0  0
    3.2380   -3.7806   18.4546 N   0  0  0  0  0  0
    3.2380   -5.0542   18.8839 C   0  0  0  0  0  0
    3.8012   -5.0351   20.2203 C   0  0  0  0  0  0
    2.8380   -6.0188   18.2380 O   0  0  0  0  0  0
    3.9605   -6.1742   20.9230 C   0  0  0  0  0  0
    4.5269   -6.3251   22.1640 N   0  0  0  0  0  0
    4.8968   -7.5886   22.7747 C   0  0  0  0  0  0
    6.3252   -7.5689   23.3257 C   0  0  0  0  0  0
    6.8713   -8.9908   23.5780 C   0  0  0  0  0  0
    6.0380   -0.8367   22.8868 Br  0  0  0  0  0  0
    8.5727  -10.1050   24.2411 H   0  0  0  0  0  0
    9.3667   -8.2614   25.7321 H   0  0  0  0  0  0
    7.9018   -7.5759   25.5834 H   0  0  0  0  0  0
   11.1183   -7.6540   23.1732 H   0  0  0  0  0  0
    5.1995    0.0640   20.1487 H   0  0  0  0  0  0
    3.9302   -1.0261   18.3250 H   0  0  0  0  0  0
    5.1534   -3.5821   22.4056 H   0  0  0  0  0  0
    2.8888   -3.5090   17.5464 H   0  0  0  0  0  0
    3.6383   -7.1242   20.5155 H   0  0  0  0  0  0
    4.7200   -5.5150   22.7344 H   0  0  0  0  0  0
    4.8380   -8.3765   22.0217 H   0  0  0  0  0  0
    4.1979   -7.8556   23.5684 H   0  0  0  0  0  0
    6.3492   -6.9758   24.2412 H   0  0  0  0  0  0
    6.9743   -7.0550   22.6144 H   0  0  0  0  0  0
    6.8493   -9.5527   22.6421 H   0  0  0  0  0  0
    6.1975   -9.5337   24.2380 H   0  0  0  0  0  0
  1  2  1  0  0  0
  1  3  1  0  0  0
  1 20  1  0  0  0
  1 22  1  0  0  0
  2 23  1  0  0  0
  2 24  1  0  0  0
  3  4  1  0  0  0
  3  5  2  0  0  0
  4 25  1  0  0  0
  6  7  2  0  0  0
  6  9  1  0  0  0
  6 21  1  0  0  0
  7  8  1  0  0  0
  7 26  1  0  0  0
  8 11  2  0  0  0
  8 27  1  0  0  0
  9 10  2  0  0  0
  9 28  1  0  0  0
 10 14  1  0  0  0
 10 11  1  0  0  0
 11 12  1  0  0  0
 12 13  1  0  0  0
 12 29  1  0  0  0
 13 14  1  0  0  0
 13 15  2  0  0  0
 14 16  2  0  0  0
 16 17  1  0  0  0
 16 30  1  0  0  0
 17 18  1  0  0  0
 17 31  1  0  0  0
 18 19  1  0  0  0
 18 32  1  0  0  0
 18 33  1  0  0  0
 19 20  1  0  0  0
 19 34  1  0  0  0
 19 35  1  0  0  0
 20 36  1  0  0  0
 20 37  1  0  0  0
M  END
> <s_m_entry_id>
5665

> <s_m_entry_name>
dock_pv.60

> <s_m_Source_Path>
/home/csk/Desktop/cluster/DUD-E-result/igf1r

> <s_m_Source_File>
dock_pv.maegz

> <i_m_Source_File_Index>
60

> <chembl_id>
CHEMBL503236

> <chembl_pref_name>
None

> <i_lp_mmshare_version>
53161

> <r_lp_tautomer_probability>
0.499999999999422

> <s_lp_Force_Field>
OPLS_2005

> <r_lp_Energy>
27.155329

> <b_lp_Chiralities_Consistent>
1

> <s_lp_Variant>
CHEMBL1957_lig494-2

> <s_i_glide_gridfile>
glide-grid_2oj9

> <i_i_glide_lignum>
686

> <i_i_glide_rotatable_bonds>
7

> <r_i_docking_score>
-8.06475384754642

> <r_i_glide_ligand_efficiency>
-0.384035897502211

> <r_i_glide_ligand_efficiency_sa>
-1.05952592114182

> <r_i_glide_ligand_efficiency_ln>
-1.99399409243626

> <r_i_glide_gscore>
-8.06475384754642

> <r_i_glide_lipo>
-2.4503609533451

> <r_i_glide_hbond>
-0.434493710986222

> <r_i_glide_metal>
0

> <r_i_glide_rewards>
-2.55576343939394

> <r_i_glide_evdw>
-29.39501953125

> <r_i_glide_ecoul>
-11.7370471954346

> <r_i_glide_erotb>
0.639619307432781

> <r_i_glide_esite>
-0.0334469953762599

> <r_i_glide_emodel>
-58.7401594475751

> <r_i_glide_energy>
-41.1320667266846

> <r_i_glide_einternal>
6.82873487472534

> <i_i_glide_confnum>
61

> <i_i_glide_posenum>
292

> <r_i_glide_eff_state_penalty>
0

> <s_user_duplicate_titles>
CHEMBL1957_lig494

> <i_f3d_flags>
0

> <s_m_subgroup_title>
dock_pv

> <s_m_subgroupid>
dock_pv

> <b_m_subgroup_collapsed>
1

$$$$
CHEMBL1957_lig576
                    3D
 Schrodinger Suite 2021-1.
 52 57  0  0  1  0            999 V2000
    7.0706   -8.3026   22.4770 N   0  0  0  0  0  0
    6.6626   -7.0197   22.3312 C   0  0  0  0  0  0
    5.6365   -6.6044   21.5447 N   0  0  0  0  0  0
    4.9911   -7.5274   20.7897 C   0  0  0  0  0  0
    6.3618   -9.1830   21.7661 N   0  0  0  0  0  0
    5.3215   -8.8875   20.8659 C   0  0  0  0  0  0
    4.9480  -10.1010   20.2382 C   0  0  0  0  0  0
    5.7050  -11.1047   20.8253 C   0  0  0  0  0  0
    6.5704  -10.5386   21.7534 C   0  0  0  0  0  0
    4.0381   -7.1372   19.8380 N   0  0  0  0  0  0
    3.5902   -5.8832   19.5053 C   0  0  0  0  0  0
    3.6386   -4.7036   20.2383 C   0  0  0  0  0  0
    3.2380   -3.6821   19.4198 C   0  0  0  0  0  0
    2.8526   -4.3260   18.2735 N   0  0  0  0  0  0
    3.0390   -5.6537   18.3314 N   0  0  0  0  0  0
    3.2005   -2.1977   19.6230 C   0  0  0  0  0  0
    4.4687   -1.4519   19.9672 C   0  0  0  0  0  0
    3.8436   -1.3205   18.5972 C   0  0  0  0  0  0
    7.3809   -6.0233   23.0216 N   0  0  0  0  0  0
    6.9316   -4.6320   23.1755 C   0  0  0  0  0  0
    8.1372   -3.7766   23.5507 C   0  0  0  0  0  0
    9.0487   -4.7525   24.2630 C   0  0  0  0  0  0
    8.7855   -6.0610   23.5013 C   0  0  1  0  0  0
    9.1607   -7.2583   24.4163 C   0  0  0  0  0  0
   10.4235   -7.7293   24.2850 N   0  0  0  0  0  0
    8.3383   -7.6813   25.2311 O   0  0  0  0  0  0
    9.4374   -6.1206   22.6260 H   0  0  0  0  0  0
   11.0435   -8.7229   25.0381 C   0  0  0  0  0  0
   10.2209   -9.9107   26.0258 S   0  0  0  0  0  0
   11.7744  -10.5490   26.4706 C   0  0  0  0  0  0
   12.7634   -9.8158   25.8223 C   0  0  0  0  0  0
   12.3487   -8.8380   25.0381 N   0  0  0  0  0  0
    4.2319  -10.2403   19.4420 H   0  0  0  0  0  0
    5.6483  -12.1553   20.5760 H   0  0  0  0  0  0
    7.3214  -10.9926   22.3807 H   0  0  0  0  0  0
    3.7664   -7.9083   19.2467 H   0  0  0  0  0  0
    4.0429   -4.5910   21.2273 H   0  0  0  0  0  0
    2.4720   -3.8655   17.4565 H   0  0  0  0  0  0
    2.2758   -1.8378   20.0756 H   0  0  0  0  0  0
    4.4397   -0.5974   20.6379 H   0  0  0  0  0  0
    5.3933   -2.0212   20.0716 H   0  0  0  0  0  0
    4.3651   -1.8071   17.7830 H   0  0  0  0  0  0
    3.2600   -0.4540   18.2858 H   0  0  0  0  0  0
    6.1522   -4.5577   23.9358 H   0  0  0  0  0  0
    6.5575   -4.2527   22.2223 H   0  0  0  0  0  0
    7.8653   -2.9318   24.1847 H   0  0  0  0  0  0
    8.6124   -3.3689   22.6575 H   0  0  0  0  0  0
    8.7774   -4.8186   25.3216 H   0  0  0  0  0  0
   10.0905   -4.4343   24.1910 H   0  0  0  0  0  0
   11.0166   -7.2844   23.5925 H   0  0  0  0  0  0
   11.8732  -11.3862   27.1456 H   0  0  0  0  0  0
   13.8256   -9.9943   25.9068 H   0  0  0  0  0  0
  1  5  1  0  0  0
  1  2  2  0  0  0
  2  3  1  0  0  0
  2 19  1  0  0  0
  3  4  2  0  0  0
  4 10  1  0  0  0
  4  6  1  0  0  0
  5  9  1  0  0  0
  5  6  1  0  0  0
  6  7  2  0  0  0
  7  8  1  0  0  0
  7 33  1  0  0  0
  8  9  2  0  0  0
  8 34  1  0  0  0
  9 35  1  0  0  0
 10 11  1  0  0  0
 10 36  1  0  0  0
 11 15  2  0  0  0
 11 12  1  0  0  0
 12 13  2  0  0  0
 12 37  1  0  0  0
 13 16  1  0  0  0
 13 14  1  0  0  0
 14 15  1  0  0  0
 14 38  1  0  0  0
 16 17  1  0  0  0
 16 18  1  0  0  0
 16 39  1  0  0  0
 17 18  1  0  0  0
 17 40  1  0  0  0
 17 41  1  0  0  0
 18 42  1  0  0  0
 18 43  1  0  0  0
 19 20  1  0  0  0
 19 23  1  0  0  0
 20 21  1  0  0  0
 20 44  1  0  0  0
 20 45  1  0  0  0
 21 22  1  0  0  0
 21 46  1  0  0  0
 21 47  1  0  0  0
 22 23  1  0  0  0
 22 48  1  0  0  0
 22 49  1  0  0  0
 23 24  1  0  0  0
 23 27  1  0  0  0
 24 25  1  0  0  0
 24 26  2  0  0  0
 25 28  1  0  0  0
 25 50  1  0  0  0
 28 29  1  0  0  0
 28 32  2  0  0  0
 29 30  1  0  0  0
 30 31  2  0  0  0
 30 51  1  0  0  0
 31 32  1  0  0  0
 31 52  1  0  0  0
M  END
> <s_m_entry_id>
5666

> <s_m_entry_name>
dock_pv.61

> <s_m_Source_Path>
/home/csk/Desktop/cluster/DUD-E-result/igf1r

> <s_m_Source_File>
dock_pv.maegz

> <i_m_Source_File_Index>
61

> <chembl_id>
CHEMBL584355

> <chembl_pref_name>
None

> <i_lp_mmshare_version>
53161

> <r_lp_tautomer_probability>
0.841757810687165

> <s_lp_Force_Field>
OPLS_2005

> <r_lp_Energy>
42.999031

> <b_lp_Chiralities_Consistent>
1

> <s_lp_Variant>
CHEMBL1957_lig576-1

> <s_i_glide_gridfile>
glide-grid_2oj9

> <i_i_glide_lignum>
779

> <i_i_glide_rotatable_bonds>
7

> <r_i_docking_score>
-8.06155459485477

> <r_i_glide_ligand_efficiency>
-0.260050148221122

> <r_i_glide_ligand_efficiency_sa>
-0.816916503338252

> <r_i_glide_ligand_efficiency_ln>
-1.81812761811766

> <r_i_glide_gscore>
-8.06155459485477

> <r_i_glide_lipo>
-3.08271883206776

> <r_i_glide_hbond>
-0.683820667564284

> <r_i_glide_metal>
0

> <r_i_glide_rewards>
-1.79358182200619

> <r_i_glide_evdw>
-43.8084335327148

> <r_i_glide_ecoul>
-5.13637590408325

> <r_i_glide_erotb>
0.514757739314482

> <r_i_glide_esite>
-0.0553129502827845

> <r_i_glide_emodel>
-67.9279114064894

> <r_i_glide_energy>
-48.9448094367981

> <r_i_glide_einternal>
7.42595481872559

> <i_i_glide_confnum>
9

> <i_i_glide_posenum>
164

> <r_i_glide_eff_state_penalty>
0

> <s_user_duplicate_titles>
CHEMBL1957_lig576,571015

> <i_f3d_flags>
0

> <s_m_subgroup_title>
dock_pv

> <s_m_subgroupid>
dock_pv

> <b_m_subgroup_collapsed>
1

$$$$
CHEMBL1957_lig2249
                    3D
 Schrodinger Suite 2021-1.
 60 64  0  0  1  0            999 V2000
    9.0014  -10.8084   23.7583 C   0  0  0  0  0  0
    9.0374   -9.7203   22.7818 N   0  0  0  0  0  0
   10.3981   -9.5792   22.2746 C   0  0  0  0  0  0
    8.5931   -8.4423   23.3488 C   0  0  0  0  0  0
    7.1005   -8.3917   23.7573 C   0  0  0  0  0  0
    6.2120   -8.4539   22.6025 N   0  0  0  0  0  0
    5.5412   -7.4199   22.0029 C   0  0  0  0  0  0
    4.8624   -7.9564   20.9209 C   0  0  0  0  0  0
    4.0382   -7.3749   19.9909 N   0  0  0  0  0  0
    3.6380   -6.0454   19.8042 C   0  0  0  0  0  0
    2.9930   -5.8516   18.6344 N   0  0  0  0  0  0
    2.8408   -4.5706   18.2232 C   0  0  0  0  0  0
    3.3267   -3.4752   18.9384 C   0  0  0  0  0  0
    3.1809   -2.0277   18.4816 C   0  0  0  0  0  0
    4.4288   -1.1414   18.7602 C   0  0  0  0  0  0
    4.9411   -1.4247   20.1628 C   0  0  0  0  0  0
    5.6379   -0.5879   20.9029 N   0  0  0  0  0  0
    5.8521   -1.2612   22.0376 N   0  0  0  0  0  0
    6.4362   -0.5836   23.1860 C   0  0  0  0  0  0
    5.4173   -2.5626   21.9762 C   0  0  0  0  0  0
    5.7397   -3.5714   23.0405 C   0  0  0  0  0  0
    7.1484   -4.1199   23.0191 C   0  0  0  0  0  0
    7.9367   -4.0018   21.8761 C   0  0  0  0  0  0
    9.2382   -4.4559   21.8998 C   0  0  0  0  0  0
    9.7477   -5.0628   23.0462 C   0  0  0  0  0  0
    8.9595   -5.2088   24.1836 C   0  0  0  0  0  0
    7.6514   -4.7397   24.1669 C   0  0  0  0  0  0
    4.7125   -2.6596   20.7958 C   0  0  0  0  0  0
    3.9601   -3.7760   20.1534 C   0  0  0  0  0  0
    4.0460   -5.0500   20.6380 N   0  0  0  0  0  0
    5.2380   -9.3083   20.9615 C   0  0  0  0  0  0
    6.0311   -9.6121   21.9604 N   0  0  0  0  0  0
    7.9822  -11.0185   24.0820 H   0  0  0  0  0  0
    9.3821  -11.7318   23.3195 H   0  0  0  0  0  0
    9.6039  -10.5803   24.6391 H   0  0  0  0  0  0
   10.4371   -8.8540   21.4618 H   0  0  0  0  0  0
   11.0918   -9.2526   23.0523 H   0  0  0  0  0  0
   10.7572  -10.5264   21.8746 H   0  0  0  0  0  0
    8.7742   -7.6467   22.6245 H   0  0  0  0  0  0
    9.2096   -8.1998   24.2167 H   0  0  0  0  0  0
    6.8936   -7.4681   24.2982 H   0  0  0  0  0  0
    6.8382   -9.1982   24.4409 H   0  0  0  0  0  0
    5.6102   -6.4188   22.3898 H   0  0  0  0  0  0
    3.7179   -7.9386   19.2166 H   0  0  0  0  0  0
    2.3451   -4.4524   17.2735 H   0  0  0  0  0  0
    2.3543   -1.6437   19.0670 H   0  0  0  0  0  0
    2.8831   -1.9694   17.4337 H   0  0  0  0  0  0
    4.1694   -0.0888   18.6593 H   0  0  0  0  0  0
    5.2073   -1.3181   18.0197 H   0  0  0  0  0  0
    5.7688   -0.7057   24.0391 H   0  0  0  0  0  0
    7.3955   -1.0379   23.4380 H   0  0  0  0  0  0
    6.5301    0.4865   22.9968 H   0  0  0  0  0  0
    5.0666   -4.4255   23.0375 H   0  0  0  0  0  0
    5.6380   -3.0882   24.0106 H   0  0  0  0  0  0
    7.5698   -3.5308   20.9764 H   0  0  0  0  0  0
    9.8516   -4.2739   21.0382 H   0  0  0  0  0  0
   10.7750   -5.3968   23.0570 H   0  0  0  0  0  0
    9.3604   -5.6739   25.0727 H   0  0  0  0  0  0
    7.0377   -4.8520   25.0486 H   0  0  0  0  0  0
    4.9192  -10.0676   20.2620 H   0  0  0  0  0  0
  1  2  1  0  0  0
  1 33  1  0  0  0
  1 34  1  0  0  0
  1 35  1  0  0  0
  2  3  1  0  0  0
  2  4  1  0  0  0
  3 36  1  0  0  0
  3 37  1  0  0  0
  3 38  1  0  0  0
  4  5  1  0  0  0
  4 39  1  0  0  0
  4 40  1  0  0  0
  5  6  1  0  0  0
  5 41  1  0  0  0
  5 42  1  0  0  0
  6  7  1  0  0  0
  6 32  1  0  0  0
  7  8  2  0  0  0
  7 43  1  0  0  0
  8  9  1  0  0  0
  8 31  1  0  0  0
  9 10  1  0  0  0
  9 44  1  0  0  0
 10 11  2  0  0  0
 10 30  1  0  0  0
 11 12  1  0  0  0
 12 13  2  0  0  0
 12 45  1  0  0  0
 13 14  1  0  0  0
 13 29  1  0  0  0
 14 15  1  0  0  0
 14 46  1  0  0  0
 14 47  1  0  0  0
 15 16  1  0  0  0
 15 48  1  0  0  0
 15 49  1  0  0  0
 16 17  2  0  0  0
 16 28  1  0  0  0
 17 18  1  0  0  0
 18 19  1  0  0  0
 18 20  1  0  0  0
 19 50  1  0  0  0
 19 51  1  0  0  0
 19 52  1  0  0  0
 20 21  1  0  0  0
 20 28  2  0  0  0
 21 22  1  0  0  0
 21 53  1  0  0  0
 21 54  1  0  0  0
 22 23  2  0  0  0
 22 27  1  0  0  0
 23 24  1  0  0  0
 23 55  1  0  0  0
 24 25  2  0  0  0
 24 56  1  0  0  0
 25 26  1  0  0  0
 25 57  1  0  0  0
 26 27  2  0  0  0
 26 58  1  0  0  0
 27 59  1  0  0  0
 28 29  1  0  0  0
 29 30  2  0  0  0
 31 32  2  0  0  0
 31 60  1  0  0  0
M  END
> <s_m_entry_id>
5667

> <s_m_entry_name>
dock_pv.62

> <s_m_Source_Path>
/home/csk/Desktop/cluster/DUD-E-result/igf1r

> <s_m_Source_File>
dock_pv.maegz

> <i_m_Source_File_Index>
62

> <chembl_id>
CHEMBL3656691

> <chembl_pref_name>
None

> <i_lp_mmshare_version>
53161

> <r_lp_tautomer_probability>
0.999999987636

> <s_lp_Force_Field>
OPLS_2005

> <r_lp_Energy>
9.827856

> <b_lp_Chiralities_Consistent>
1

> <s_lp_Variant>
CHEMBL1957_lig2249-1

> <s_i_glide_gridfile>
glide-grid_2oj9

> <i_i_glide_lignum>
3229

> <i_i_glide_rotatable_bonds>
7

> <r_i_docking_score>
-8.04454201196459

> <r_i_glide_ligand_efficiency>
-0.251391937873893

> <r_i_glide_ligand_efficiency_sa>
-0.798119652352662

> <r_i_glide_ligand_efficiency_ln>
-1.80139224241209

> <r_i_glide_gscore>
-8.04454201196459

> <r_i_glide_lipo>
-3.48878763837399

> <r_i_glide_hbond>
-0.259014751795769

> <r_i_glide_metal>
0

> <r_i_glide_rewards>
-2.27395777197436

> <r_i_glide_evdw>
-38.639720916748

> <r_i_glide_ecoul>
-3.63408899307251

> <r_i_glide_erotb>
0.454317544977804

> <r_i_glide_esite>
0

> <r_i_glide_emodel>
-55.023310556204

> <r_i_glide_energy>
-42.2738099098206

> <r_i_glide_einternal>
3.73015213012695

> <i_i_glide_confnum>
10

> <i_i_glide_posenum>
73

> <r_i_glide_eff_state_penalty>
0

> <s_user_duplicate_titles>
CHEMBL1957_lig2249

> <i_f3d_flags>
0

> <s_m_subgroup_title>
dock_pv

> <s_m_subgroupid>
dock_pv

> <b_m_subgroup_collapsed>
1

$$$$
CHEMBL1957_lig2756
                    3D
 Schrodinger Suite 2021-1.
 26 27  0  0  1  0            999 V2000
    4.2772   -2.5296   20.6383 S   0  0  0  0  0  0
    2.8380   -4.8540   17.9446 O   0  0  0  0  0  0
    4.0381   -0.5711   18.8421 O   0  0  0  0  0  0
    7.3313   -4.6653   24.2498 O   0  0  0  0  0  0
    6.8769   -7.2539   25.0379 O   0  0  0  0  0  0
    3.2605   -2.6718   18.3257 N   0  0  0  0  0  0
    3.8231   -4.1179   20.0035 C   0  0  0  0  0  0
    3.2380   -3.9595   18.6864 C   0  0  0  0  0  0
    4.8255   -5.7796   21.7016 C   0  0  0  0  0  0
    4.0412   -5.3590   20.5060 C   0  0  0  0  0  0
    3.8291   -1.7492   19.1016 C   0  0  0  0  0  0
    6.4346   -5.4299   23.5230 C   0  0  0  0  0  0
    5.7282   -4.9604   22.3993 C   0  0  0  0  0  0
    6.2283   -6.7511   23.9395 C   0  0  0  0  0  0
    4.6838   -7.1024   22.1217 C   0  0  0  0  0  0
    5.3680   -7.5863   23.2335 C   0  0  0  0  0  0
    7.6721   -3.3580   23.7990 C   0  0  0  0  0  0
    7.2611   -6.5641   25.5944 H   0  0  0  0  0  0
    2.9187   -2.4210   17.4091 H   0  0  0  0  0  0
    3.6474   -6.1946   19.9392 H   0  0  0  0  0  0
    5.9078   -3.9565   22.0650 H   0  0  0  0  0  0
    4.0380   -7.7675   21.5712 H   0  0  0  0  0  0
    5.2340   -8.6114   23.5482 H   0  0  0  0  0  0
    8.4208   -2.9302   24.4662 H   0  0  0  0  0  0
    8.1021   -3.3791   22.7960 H   0  0  0  0  0  0
    6.8070   -2.6937   23.8063 H   0  0  0  0  0  0
  1  7  1  0  0  0
  1 11  1  0  0  0
  2  8  2  0  0  0
  3 11  2  0  0  0
  4 12  1  0  0  0
  4 17  1  0  0  0
  5 14  1  0  0  0
  5 18  1  0  0  0
  6  8  1  0  0  0
  6 11  1  0  0  0
  6 19  1  0  0  0
  7  8  1  0  0  0
  7 10  2  3  0  0
  9 10  1  0  0  0
  9 13  1  0  0  0
  9 15  2  0  0  0
 10 20  1  0  0  0
 12 13  2  0  0  0
 12 14  1  0  0  0
 13 21  1  0  0  0
 14 16  2  0  0  0
 15 16  1  0  0  0
 15 22  1  0  0  0
 16 23  1  0  0  0
 17 24  1  0  0  0
 17 25  1  0  0  0
 17 26  1  0  0  0
M  END
> <s_m_entry_id>
5668

> <s_m_entry_name>
dock_pv.63

> <s_m_Source_Path>
/home/csk/Desktop/cluster/DUD-E-result/igf1r

> <s_m_Source_File>
dock_pv.maegz

> <i_m_Source_File_Index>
63

> <chembl_id>
CHEMBL2003286

> <chembl_pref_name>
None

> <i_lp_mmshare_version>
53161

> <r_lp_tautomer_probability>
1

> <s_lp_Force_Field>
OPLS_2005

> <r_lp_Energy>
16.145588

> <b_lp_Chiralities_Consistent>
1

> <s_lp_Variant>
CHEMBL1957_lig2756-2

> <s_i_glide_gridfile>
glide-grid_2oj9

> <i_i_glide_lignum>
3812

> <i_i_glide_rotatable_bonds>
3

> <r_i_docking_score>
-8.03780084264528

> <r_i_glide_ligand_efficiency>
-0.472811814273252

> <r_i_glide_ligand_efficiency_sa>
-1.21573231273839

> <r_i_glide_ligand_efficiency_ln>
-2.09688324682181

> <r_i_glide_gscore>
-8.03780084264528

> <r_i_glide_lipo>
-2.06972410852707

> <r_i_glide_hbond>
-0.265363215986031

> <r_i_glide_metal>
0

> <r_i_glide_rewards>
-3.4589144200665

> <r_i_glide_evdw>
-30.6568832397461

> <r_i_glide_ecoul>
-6.03515481948853

> <r_i_glide_erotb>
0.19431828684491

> <r_i_glide_esite>
0

> <r_i_glide_emodel>
-52.0542703652551

> <r_i_glide_energy>
-36.6920380592346

> <r_i_glide_einternal>
2.36805653572083

> <i_i_glide_confnum>
2

> <i_i_glide_posenum>
392

> <r_i_glide_eff_state_penalty>
0

> <s_user_duplicate_titles>
CHEMBL1957_lig2756

> <i_f3d_flags>
0

> <s_m_subgroup_title>
dock_pv

> <s_m_subgroupid>
dock_pv

> <b_m_subgroup_collapsed>
1

$$$$
CHEMBL1957_lig2634
                    3D
 Schrodinger Suite 2021-1.
 56 60  0  0  1  0            999 V2000
    5.8098   -3.8468   21.1330 C   0  0  0  0  0  0
    5.0677   -5.0317   21.2725 C   0  0  0  0  0  0
    3.8165   -5.0693   20.6379 C   0  0  0  0  0  0
    3.3351   -3.9929   19.8947 C   0  0  0  0  0  0
    5.6182   -6.2704   21.9312 C   0  0  0  0  0  0
    6.4588   -6.3061   23.0807 C   0  0  0  0  0  0
    6.7291   -7.4762   23.7225 N   0  0  0  0  0  0
    6.3455   -8.6451   23.1707 C   0  0  0  0  0  0
    5.6799   -8.7239   21.9492 C   0  0  0  0  0  0
    5.2927   -7.5197   21.3632 C   0  0  0  0  0  0
    5.3873   -9.9288   21.2844 N   0  0  0  0  0  0
    5.6233  -11.2543   21.8635 C   0  0  1  0  0  0
    4.4541  -12.2165   21.5370 C   0  0  0  0  0  0
    7.0110  -11.7653   21.4387 C   0  0  0  0  0  0
    4.5837  -13.4378   22.2391 O   0  0  0  0  0  0
    8.1085  -11.5811   22.2900 C   0  0  0  0  0  0
    9.3772  -12.0151   21.9143 C   0  0  0  0  0  0
    9.5530  -12.6501   20.6885 C   0  0  0  0  0  0
    8.4704  -12.8540   19.8380 C   0  0  0  0  0  0
    7.2045  -12.4059   20.2081 C   0  0  0  0  0  0
    7.2260   -5.1493   23.6623 C   0  0  0  0  0  0
    6.6241   -3.8989   23.8305 C   0  0  0  0  0  0
    7.3232   -2.7747   24.2409 C   0  0  0  0  0  0
    8.6456   -2.9116   24.6380 C   0  0  0  0  0  0
    9.2855   -4.1361   24.4711 C   0  0  0  0  0  0
    8.6029   -5.2384   23.9646 C   0  0  0  0  0  0
    9.3369   -6.3687   23.7011 O   0  0  0  0  0  0
    5.2620   -2.6730   20.5920 C   0  0  0  0  0  0
    4.0388   -2.7738   19.8795 C   0  0  0  0  0  0
    3.6380   -1.6373   19.1486 C   0  0  0  0  0  0
    4.3146   -0.4643   19.1289 N   0  0  0  0  0  0
    5.4300   -0.3682   19.8869 C   0  0  0  0  0  0
    5.9357   -1.4278   20.6367 C   0  0  0  0  0  0
    6.5358   -1.2400   24.3082 Cl  0  0  0  0  0  0
    6.8420   -3.8007   21.4404 H   0  0  0  0  0  0
    3.2224   -5.9704   20.6642 H   0  0  0  0  0  0
    2.4380   -4.0857   19.3142 H   0  0  0  0  0  0
    6.6352   -9.5150   23.7323 H   0  0  0  0  0  0
    4.7411   -7.5626   20.4353 H   0  0  0  0  0  0
    4.8432   -9.8888   20.4338 H   0  0  0  0  0  0
    5.6407  -11.1640   22.9481 H   0  0  0  0  0  0
    3.5078  -11.7666   21.8385 H   0  0  0  0  0  0
    4.3821  -12.4266   20.4697 H   0  0  0  0  0  0
    4.4382  -13.2532   23.1731 H   0  0  0  0  0  0
    7.9919  -11.1033   23.2492 H   0  0  0  0  0  0
   10.2213  -11.8603   22.5712 H   0  0  0  0  0  0
   10.5368  -12.9854   20.3940 H   0  0  0  0  0  0
    8.6166  -13.3351   18.8825 H   0  0  0  0  0  0
    6.3830  -12.5489   19.5222 H   0  0  0  0  0  0
    5.6380   -3.7513   23.4400 H   0  0  0  0  0  0
    9.2042   -2.0564   24.9860 H   0  0  0  0  0  0
   10.3473   -4.1985   24.6384 H   0  0  0  0  0  0
   10.2876   -6.2298   23.6970 H   0  0  0  0  0  0
    2.7439   -1.6812   18.5465 H   0  0  0  0  0  0
    5.9434    0.5831   19.8612 H   0  0  0  0  0  0
    6.8381   -1.3234   21.2150 H   0  0  0  0  0  0
  1 28  1  0  0  0
  1  2  2  0  0  0
  1 35  1  0  0  0
  2  3  1  0  0  0
  2  5  1  0  0  0
  3  4  2  0  0  0
  3 36  1  0  0  0
  4 29  1  0  0  0
  4 37  1  0  0  0
  5  6  2  0  0  0
  5 10  1  0  0  0
  6  7  1  0  0  0
  6 21  1  0  0  0
  7  8  2  0  0  0
  8  9  1  0  0  0
  8 38  1  0  0  0
  9 10  2  0  0  0
  9 11  1  0  0  0
 10 39  1  0  0  0
 11 12  1  0  0  0
 11 40  1  0  0  0
 12 13  1  0  0  0
 12 14  1  0  0  0
 12 41  1  0  0  0
 13 15  1  0  0  0
 13 42  1  0  0  0
 13 43  1  0  0  0
 14 16  2  0  0  0
 14 20  1  0  0  0
 15 44  1  0  0  0
 16 17  1  0  0  0
 16 45  1  0  0  0
 17 18  2  0  0  0
 17 46  1  0  0  0
 18 19  1  0  0  0
 18 47  1  0  0  0
 19 20  2  0  0  0
 19 48  1  0  0  0
 20 49  1  0  0  0
 21 22  2  0  0  0
 21 26  1  0  0  0
 22 23  1  0  0  0
 22 50  1  0  0  0
 23 24  2  0  0  0
 23 34  1  0  0  0
 24 25  1  0  0  0
 24 51  1  0  0  0
 25 26  2  0  0  0
 25 52  1  0  0  0
 26 27  1  0  0  0
 27 53  1  0  0  0
 28 29  1  0  0  0
 28 33  2  0  0  0
 29 30  2  0  0  0
 30 31  1  0  0  0
 30 54  1  0  0  0
 31 32  2  0  0  0
 32 33  1  0  0  0
 32 55  1  0  0  0
 33 56  1  0  0  0
M  END
> <s_m_entry_id>
5669

> <s_m_entry_name>
dock_pv.64

> <s_m_Source_Path>
/home/csk/Desktop/cluster/DUD-E-result/igf1r

> <s_m_Source_File>
dock_pv.maegz

> <i_m_Source_File_Index>
64

> <chembl_id>
CHEMBL4067871

> <chembl_pref_name>
None

> <i_lp_mmshare_version>
53161

> <r_lp_tautomer_probability>
0.999999999997364

> <s_lp_Force_Field>
OPLS_2005

> <r_lp_Energy>
33.391965

> <b_lp_Chiralities_Consistent>
1

> <s_lp_Variant>
CHEMBL1957_lig2634-1

> <s_i_glide_gridfile>
glide-grid_2oj9

> <i_i_glide_lignum>
3651

> <i_i_glide_rotatable_bonds>
8

> <r_i_docking_score>
-8.02647517837275

> <r_i_glide_ligand_efficiency>
-0.236072799363905

> <r_i_glide_ligand_efficiency_sa>
-0.764784225880948

> <r_i_glide_ligand_efficiency_ln>
-1.77327350190546

> <r_i_glide_gscore>
-8.02647517837275

> <r_i_glide_lipo>
-4.26744992281661

> <r_i_glide_hbond>
-0.0616620265246541

> <r_i_glide_metal>
0

> <r_i_glide_rewards>
-0.599178168761825

> <r_i_glide_evdw>
-36.7316131591797

> <r_i_glide_ecoul>
-12.098123550415

> <r_i_glide_erotb>
0.553114130251574

> <r_i_glide_esite>
0

> <r_i_glide_emodel>
-61.6605279826716

> <r_i_glide_energy>
-48.8297367095947

> <r_i_glide_einternal>
17.702844619751

> <i_i_glide_confnum>
2

> <i_i_glide_posenum>
199

> <r_i_glide_eff_state_penalty>
0

> <s_user_duplicate_titles>
CHEMBL1957_lig2634

> <i_f3d_flags>
0

> <s_m_subgroup_title>
dock_pv

> <s_m_subgroupid>
dock_pv

> <b_m_subgroup_collapsed>
1

$$$$
CHEMBL1957_lig1061
                    3D
 Schrodinger Suite 2021-1.
 47 51  0  0  1  0            999 V2000
    5.2844   -9.8824   21.0444 C   0  0  0  0  0  0
    4.6874   -8.7082   20.2628 C   0  0  0  0  0  0
    6.2966   -9.2887   22.0330 C   0  0  0  0  0  0
    6.0977   -5.6085   22.7238 C   0  0  0  0  0  0
    3.8228   -3.2546   19.9575 C   0  0  0  0  0  0
    4.5654   -6.1656   21.0486 C   0  0  0  0  0  0
    6.4972   -6.8998   22.8997 N   0  0  0  0  0  0
    3.7116   -2.3947   18.8786 C   0  0  0  0  0  0
    4.9589   -7.5060   21.1406 C   0  0  0  0  0  0
    3.6380   -5.7789   20.0666 N   0  0  0  0  0  0
    6.7981   -4.6012   23.3914 N   0  0  0  0  0  0
    5.9223   -7.8255   22.0939 C   0  0  0  0  0  0
    3.5100   -4.5404   19.4834 C   0  0  0  0  0  0
    3.2380   -3.1999   17.8808 N   0  0  0  0  0  0
    3.1018   -4.4800   18.2380 N   0  0  0  0  0  0
    4.0380   -0.9361   18.6576 C   0  0  0  0  0  0
    5.1407   -5.2199   21.8381 N   0  0  0  0  0  0
    4.5986   -0.0856   19.7753 C   0  0  0  0  0  0
    5.4692   -0.4540   18.6059 C   0  0  0  0  0  0
    6.4381   -3.1671   23.3296 C   0  0  0  0  0  0
    7.6418   -2.2186   23.4260 C   0  0  0  0  0  0
    8.4090   -2.4634   24.6381 N   0  0  0  0  0  0
    8.8786   -3.8455   24.6379 C   0  0  0  0  0  0
    7.7217   -4.8633   24.5117 C   0  0  0  0  0  0
    5.7354  -10.6267   20.3859 H   0  0  0  0  0  0
    4.4955  -10.3972   21.5960 H   0  0  0  0  0  0
    3.6378   -8.8538   20.0294 H   0  0  0  0  0  0
    5.2078   -8.5979   19.3123 H   0  0  0  0  0  0
    7.3158   -9.4162   21.6671 H   0  0  0  0  0  0
    6.2295   -9.7829   23.0030 H   0  0  0  0  0  0
    4.1754   -2.9944   20.9408 H   0  0  0  0  0  0
    3.2768   -6.5757   19.5653 H   0  0  0  0  0  0
    2.9836   -2.8819   16.9538 H   0  0  0  0  0  0
    3.3594   -0.4540   17.9560 H   0  0  0  0  0  0
    4.8385   -0.5455   20.7310 H   0  0  0  0  0  0
    4.2572    0.9459   19.8632 H   0  0  0  0  0  0
    5.7411    0.3178   17.8834 H   0  0  0  0  0  0
    6.2817   -1.1532   18.7908 H   0  0  0  0  0  0
    5.8976   -2.9342   22.4147 H   0  0  0  0  0  0
    5.7611   -2.9295   24.1489 H   0  0  0  0  0  0
    7.3007   -1.1836   23.4376 H   0  0  0  0  0  0
    8.2851   -2.3136   22.5502 H   0  0  0  0  0  0
    9.1910   -1.8173   24.6860 H   0  0  0  0  0  0
    9.4344   -4.0197   25.5593 H   0  0  0  0  0  0
    9.5982   -3.9995   23.8329 H   0  0  0  0  0  0
    7.1380   -4.8543   25.4337 H   0  0  0  0  0  0
    8.1499   -5.8631   24.4449 H   0  0  0  0  0  0
  1  3  1  0  0  0
  1  2  1  0  0  0
  1 25  1  0  0  0
  1 26  1  0  0  0
  2  9  1  0  0  0
  2 27  1  0  0  0
  2 28  1  0  0  0
  3 12  1  0  0  0
  3 29  1  0  0  0
  3 30  1  0  0  0
  4  7  1  0  0  0
  4 11  1  0  0  0
  4 17  2  0  0  0
  5  8  2  0  0  0
  5 13  1  0  0  0
  5 31  1  0  0  0
  6  9  2  0  0  0
  6 10  1  0  0  0
  6 17  1  0  0  0
  7 12  2  0  0  0
  8 16  1  0  0  0
  8 14  1  0  0  0
  9 12  1  0  0  0
 10 13  1  0  0  0
 10 32  1  0  0  0
 11 20  1  0  0  0
 11 24  1  0  0  0
 13 15  2  0  0  0
 14 15  1  0  0  0
 14 33  1  0  0  0
 16 18  1  0  0  0
 16 19  1  0  0  0
 16 34  1  0  0  0
 18 19  1  0  0  0
 18 35  1  0  0  0
 18 36  1  0  0  0
 19 37  1  0  0  0
 19 38  1  0  0  0
 20 21  1  0  0  0
 20 39  1  0  0  0
 20 40  1  0  0  0
 21 22  1  0  0  0
 21 41  1  0  0  0
 21 42  1  0  0  0
 22 23  1  0  0  0
 22 43  1  0  0  0
 23 24  1  0  0  0
 23 44  1  0  0  0
 23 45  1  0  0  0
 24 46  1  0  0  0
 24 47  1  0  0  0
M  END
> <s_m_entry_id>
5670

> <s_m_entry_name>
dock_pv.65

> <s_m_Source_Path>
/home/csk/Desktop/cluster/DUD-E-result/igf1r

> <s_m_Source_File>
dock_pv.maegz

> <i_m_Source_File_Index>
65

> <chembl_id>
CHEMBL3409712

> <chembl_pref_name>
None

> <i_lp_mmshare_version>
53161

> <r_lp_tautomer_probability>
0.842599982216935

> <s_lp_Force_Field>
OPLS_2005

> <r_lp_Energy>
40.39466

> <b_lp_Chiralities_Consistent>
1

> <s_lp_Variant>
CHEMBL1957_lig1061-1

> <s_i_glide_gridfile>
glide-grid_2oj9

> <i_i_glide_lignum>
1375

> <i_i_glide_rotatable_bonds>
4

> <r_i_docking_score>
-8.02483812071331

> <r_i_glide_ligand_efficiency>
-0.334368255029721

> <r_i_glide_ligand_efficiency_sa>
-0.964484943260378

> <r_i_glide_ligand_efficiency_ln>
-1.92071199811349

> <r_i_glide_gscore>
-8.02483812071331

> <r_i_glide_lipo>
-3.38634798242614

> <r_i_glide_hbond>
-0.491445215665203

> <r_i_glide_metal>
0

> <r_i_glide_rewards>
-2.04392390661805

> <r_i_glide_evdw>
-37.910213470459

> <r_i_glide_ecoul>
-6.10353517532349

> <r_i_glide_erotb>
0.707919933817565

> <r_i_glide_esite>
0

> <r_i_glide_emodel>
-60.345762893137

> <r_i_glide_energy>
-44.0137486457825

> <r_i_glide_einternal>
5.98435401916504

> <i_i_glide_confnum>
2

> <i_i_glide_posenum>
123

> <r_i_glide_eff_state_penalty>
0

> <s_user_duplicate_titles>
CHEMBL1957_lig1061,CHEMBL1957_lig1061

> <i_f3d_flags>
0

> <s_m_subgroup_title>
dock_pv

> <s_m_subgroupid>
dock_pv

> <b_m_subgroup_collapsed>
1

$$$$
CHEMBL1957_lig2846
                    3D
 Schrodinger Suite 2021-1.
 39 42  0  0  1  0            999 V2000
    7.3252   -9.5411   24.1789 F   0  0  0  0  0  0
    4.9492   -9.2615   20.0022 F   0  0  0  0  0  0
    4.8317   -7.3312   22.0357 O   0  0  0  0  0  0
    7.2826   -1.7876   23.8447 N   0  0  0  0  0  0
    8.0497   -4.0185   24.3884 N   0  0  0  0  0  0
    6.9876   -7.1521   22.7641 N   0  0  0  0  0  0
    6.4714   -3.4706   22.5827 C   0  0  0  0  0  0
    5.9445   -2.2322   22.0686 C   0  0  0  0  0  0
    7.3303   -3.1509   23.6718 C   0  0  0  0  0  0
    7.0606   -5.7719   23.0074 C   0  0  0  0  0  0
    6.3603   -4.8275   22.2419 C   0  0  0  0  0  0
    5.0444   -2.0542   20.8961 C   0  0  0  0  0  0
    6.1428   -9.3161   22.0926 C   0  0  0  0  0  0
    6.4379   -1.2450   22.9062 C   0  0  0  0  0  0
    5.9214   -7.8387   22.2991 C   0  0  0  0  0  0
    7.8919   -5.3218   24.0376 C   0  0  0  0  0  0
    6.8394  -10.0903   23.0391 C   0  0  0  0  0  0
    5.6374   -9.9512   20.9441 C   0  0  0  0  0  0
    5.2405   -0.9630   20.0441 C   0  0  0  0  0  0
    4.0731   -3.0111   20.5858 C   0  0  0  0  0  0
    7.0447  -11.4529   22.8242 C   0  0  0  0  0  0
    5.8538  -11.3128   20.7365 C   0  0  0  0  0  0
    6.5564  -12.0650   21.6734 C   0  0  0  0  0  0
    4.4991   -0.8541   18.8723 C   0  0  0  0  0  0
    3.3186   -2.8914   19.4222 C   0  0  0  0  0  0
    3.5479   -1.8214   18.5638 C   0  0  0  0  0  0
    7.8037   -1.2332   24.5119 H   0  0  0  0  0  0
    7.7904   -7.6948   23.0448 H   0  0  0  0  0  0
    5.7513   -5.1299   21.4052 H   0  0  0  0  0  0
    6.2920   -0.1751   22.8816 H   0  0  0  0  0  0
    8.4546   -6.0244   24.6362 H   0  0  0  0  0  0
    6.0094   -0.2322   20.2508 H   0  0  0  0  0  0
    3.9114   -3.8583   21.2325 H   0  0  0  0  0  0
    7.5815  -12.0356   23.5584 H   0  0  0  0  0  0
    5.4744  -11.7851   19.8416 H   0  0  0  0  0  0
    6.7165  -13.1211   21.5110 H   0  0  0  0  0  0
    4.6968   -0.0534   18.1806 H   0  0  0  0  0  0
    2.5827   -3.6402   19.1686 H   0  0  0  0  0  0
    2.9884   -1.7503   17.6426 H   0  0  0  0  0  0
  1 17  1  0  0  0
  2 18  1  0  0  0
  3 15  2  0  0  0
  4  9  1  0  0  0
  4 14  1  0  0  0
  4 27  1  0  0  0
  5  9  2  0  0  0
  5 16  1  0  0  0
  6 10  1  0  0  0
  6 15  1  0  0  0
  6 28  1  0  0  0
  7  8  1  0  0  0
  7  9  1  0  0  0
  7 11  2  0  0  0
  8 12  1  0  0  0
  8 14  2  0  0  0
 10 11  1  0  0  0
 10 16  2  0  0  0
 11 29  1  0  0  0
 12 19  2  0  0  0
 12 20  1  0  0  0
 13 15  1  0  0  0
 13 17  1  0  0  0
 13 18  2  0  0  0
 14 30  1  0  0  0
 16 31  1  0  0  0
 17 21  2  0  0  0
 18 22  1  0  0  0
 19 24  1  0  0  0
 19 32  1  0  0  0
 20 25  2  0  0  0
 20 33  1  0  0  0
 21 23  1  0  0  0
 21 34  1  0  0  0
 22 23  2  0  0  0
 22 35  1  0  0  0
 23 36  1  0  0  0
 24 26  2  0  0  0
 24 37  1  0  0  0
 25 26  1  0  0  0
 25 38  1  0  0  0
 26 39  1  0  0  0
M  END
> <s_m_entry_id>
5671

> <s_m_entry_name>
dock_pv.66

> <s_m_Source_Path>
/home/csk/Desktop/cluster/DUD-E-result/igf1r

> <s_m_Source_File>
dock_pv.maegz

> <i_m_Source_File_Index>
66

> <chembl_id>
CHEMBL1996979

> <chembl_pref_name>
None

> <i_lp_mmshare_version>
53161

> <r_lp_tautomer_probability>
0.999998432528457

> <s_lp_Force_Field>
OPLS_2005

> <r_lp_Energy>
25.562839

> <b_lp_Chiralities_Consistent>
1

> <s_lp_Variant>
CHEMBL1957_lig2846-1

> <s_i_glide_gridfile>
glide-grid_2oj9

> <i_i_glide_lignum>
3940

> <i_i_glide_rotatable_bonds>
4

> <r_i_docking_score>
-7.97409829625827

> <r_i_glide_ligand_efficiency>
-0.306696088317626

> <r_i_glide_ligand_efficiency_sa>
-0.908585954850132

> <r_i_glide_ligand_efficiency_ln>
-1.87269081972562

> <r_i_glide_gscore>
-7.97409829625827

> <r_i_glide_lipo>
-3.31353048578198

> <r_i_glide_hbond>
-0.129172745924071

> <r_i_glide_metal>
0

> <r_i_glide_rewards>
-2.75940621547172

> <r_i_glide_evdw>
-41.7355766296387

> <r_i_glide_ecoul>
-2.06362676620483

> <r_i_glide_erotb>
0.624333997332158

> <r_i_glide_esite>
0

> <r_i_glide_emodel>
-62.6453351700284

> <r_i_glide_energy>
-43.7992033958435

> <r_i_glide_einternal>
2.01578521728516

> <i_i_glide_confnum>
14

> <i_i_glide_posenum>
383

> <r_i_glide_eff_state_penalty>
0

> <s_user_duplicate_titles>
CHEMBL1957_lig2846

> <i_f3d_flags>
0

> <s_m_subgroup_title>
dock_pv

> <s_m_subgroupid>
dock_pv

> <b_m_subgroup_collapsed>
1

$$$$
CHEMBL1957_lig3397
                    3D
 Schrodinger Suite 2021-1.
 33 35  0  0  1  0            999 V2000
    5.6380    0.7460   20.7933 O   0  0  0  0  0  0
    2.8380   -6.0455   18.3690 O   0  0  0  0  0  0
    3.6380   -4.9921   20.2294 N   0  0  0  0  0  0
    4.0380   -7.2152   19.8380 N   0  0  0  0  0  0
    4.5876   -6.8298   22.1826 N   0  0  0  0  0  0
    6.0630   -9.2149   22.1434 N   0  0  0  0  0  0
    4.6357   -2.8116   20.6377 C   0  0  0  0  0  0
    4.8689   -1.4650   20.2152 C   0  0  0  0  0  0
    3.8039   -3.6540   19.8308 C   0  0  0  0  0  0
    5.6380   -0.6003   21.0383 C   0  0  0  0  0  0
    5.2649   -3.2549   21.8380 C   0  0  0  0  0  0
    4.2981   -1.0183   18.9975 C   0  0  0  0  0  0
    3.2380   -3.1461   18.6548 C   0  0  0  0  0  0
    3.4427   -6.0656   19.4389 C   0  0  0  0  0  0
    3.4997   -1.8563   18.2380 C   0  0  0  0  0  0
    6.1998   -1.0727   22.2196 C   0  0  0  0  0  0
    4.6887   -7.5695   21.0380 C   0  0  0  0  0  0
    6.0404   -2.3943   22.6033 C   0  0  0  0  0  0
    5.4098   -8.7692   21.0380 C   0  0  0  0  0  0
    5.2387   -7.2713   23.2897 C   0  0  0  0  0  0
    5.9797   -8.4540   23.2656 C   0  0  0  0  0  0
    6.1014    1.0318   19.9916 H   0  0  0  0  0  0
    3.9616   -5.1955   21.1619 H   0  0  0  0  0  0
    4.0380   -7.9381   19.1320 H   0  0  0  0  0  0
    5.1392   -4.2681   22.1813 H   0  0  0  0  0  0
    4.4904   -0.0179   18.6490 H   0  0  0  0  0  0
    2.5947   -3.7381   18.0232 H   0  0  0  0  0  0
    3.0691   -1.5089   17.3118 H   0  0  0  0  0  0
    6.7448   -0.4035   22.8671 H   0  0  0  0  0  0
    6.4939   -2.7464   23.5188 H   0  0  0  0  0  0
    5.4823   -9.3912   20.1572 H   0  0  0  0  0  0
    5.1557   -6.6749   24.1874 H   0  0  0  0  0  0
    6.4994   -8.8129   24.1419 H   0  0  0  0  0  0
  1 10  1  0  0  0
  1 22  1  0  0  0
  2 14  2  0  0  0
  3  9  1  0  0  0
  3 14  1  0  0  0
  3 23  1  0  0  0
  4 14  1  0  0  0
  4 17  1  0  0  0
  4 24  1  0  0  0
  5 17  1  0  0  0
  5 20  2  0  0  0
  6 19  1  0  0  0
  6 21  2  0  0  0
  7  8  1  0  0  0
  7  9  2  0  0  0
  7 11  1  0  0  0
  8 10  1  0  0  0
  8 12  2  0  0  0
  9 13  1  0  0  0
 10 16  2  0  0  0
 11 18  2  0  0  0
 11 25  1  0  0  0
 12 15  1  0  0  0
 12 26  1  0  0  0
 13 15  2  0  0  0
 13 27  1  0  0  0
 15 28  1  0  0  0
 16 18  1  0  0  0
 16 29  1  0  0  0
 17 19  2  0  0  0
 18 30  1  0  0  0
 19 31  1  0  0  0
 20 21  1  0  0  0
 20 32  1  0  0  0
 21 33  1  0  0  0
M  END
> <s_m_entry_id>
5672

> <s_m_entry_name>
dock_pv.67

> <s_m_Source_Path>
/home/csk/Desktop/cluster/DUD-E-result/igf1r

> <s_m_Source_File>
dock_pv.maegz

> <i_m_Source_File_Index>
67

> <chembl_id>
CHEMBL1992371

> <chembl_pref_name>
None

> <i_lp_mmshare_version>
53161

> <r_lp_tautomer_probability>
1

> <s_lp_Force_Field>
OPLS_2005

> <r_lp_Energy>
28.313541

> <b_lp_Chiralities_Consistent>
1

> <s_lp_Variant>
CHEMBL1957_lig3397-1

> <s_i_glide_gridfile>
glide-grid_2oj9

> <i_i_glide_lignum>
4784

> <i_i_glide_rotatable_bonds>
5

> <r_i_docking_score>
-7.97032888750669

> <r_i_glide_ligand_efficiency>
-0.379539470833652

> <r_i_glide_ligand_efficiency_sa>
-1.0471206209112

> <r_i_glide_ligand_efficiency_ln>
-1.97064771187004

> <r_i_glide_gscore>
-7.97032888750669

> <r_i_glide_lipo>
-3.43258377329867

> <r_i_glide_hbond>
-0.760029669162071

> <r_i_glide_metal>
0

> <r_i_glide_rewards>
-1.3034607019456

> <r_i_glide_evdw>
-31.1836223602295

> <r_i_glide_ecoul>
-9.31855583190918

> <r_i_glide_erotb>
0.482709749697501

> <r_i_glide_esite>
0

> <r_i_glide_emodel>
-52.7707431538583

> <r_i_glide_energy>
-40.5021781921387

> <r_i_glide_einternal>
6.85089063644409

> <i_i_glide_confnum>
6

> <i_i_glide_posenum>
350

> <r_i_glide_eff_state_penalty>
0

> <s_user_duplicate_titles>
CHEMBL1957_lig3397

> <i_f3d_flags>
0

> <s_m_subgroup_title>
dock_pv

> <s_m_subgroupid>
dock_pv

> <b_m_subgroup_collapsed>
1

$$$$
CHEMBL1957_lig2692
                    3D
 Schrodinger Suite 2021-1.
 43 46  0  0  1  0            999 V2000
    3.7686   -1.3068   18.6757 C   0  0  0  0  0  0
    3.0977   -2.4958   18.4042 C   0  0  0  0  0  0
    3.2380   -3.6071   19.2333 C   0  0  0  0  0  0
    4.0422   -3.5898   20.3708 C   0  0  0  0  0  0
    4.6128   -1.2625   19.7905 C   0  0  0  0  0  0
    4.7712   -2.4137   20.6089 C   0  0  0  0  0  0
    5.7652   -2.0636   21.5148 N   0  0  0  0  0  0
    6.0380   -0.7378   21.2401 C   0  0  0  0  0  0
    5.3734   -0.2240   20.2387 N   0  0  0  0  0  0
    6.4858   -2.8516   22.3947 C   0  0  0  0  0  0
    6.6371   -4.2166   22.2317 C   0  0  0  0  0  0
    7.4475   -4.8267   23.1905 C   0  0  0  0  0  0
    8.0749   -3.8870   24.0215 C   0  0  0  0  0  0
    7.4159   -2.2849   23.7521 S   0  0  0  0  0  0
    9.0873   -4.1011   25.0349 C   0  0  0  0  0  0
    9.6375   -5.3170   25.0366 N   0  0  0  0  0  0
    9.4331   -3.2338   25.8373 O   0  0  0  0  0  0
    7.6507   -6.1817   23.2163 O   0  0  0  0  0  0
    6.5150   -6.9030   23.7033 C   0  0  0  0  0  0
    6.5542   -8.3337   23.1668 C   0  0  0  0  0  0
    7.3258   -9.2591   23.8810 C   0  0  0  0  0  0
    7.4208  -10.5831   23.4642 C   0  0  0  0  0  0
    6.7473  -10.9998   22.3221 C   0  0  0  0  0  0
    5.9775  -10.0920   21.5995 C   0  0  0  0  0  0
    5.8668   -8.7510   22.0007 C   0  0  0  0  0  0
    5.0225   -7.7944   21.1445 C   0  0  0  0  0  0
    5.8115   -6.8542   20.6381 F   0  0  0  0  0  0
    4.4368   -8.4135   20.1195 F   0  0  0  0  0  0
    4.0569   -7.2075   21.8534 F   0  0  0  0  0  0
    3.6601   -0.4563   18.0227 H   0  0  0  0  0  0
    2.4452   -2.5511   17.5442 H   0  0  0  0  0  0
    2.6980   -4.5076   18.9893 H   0  0  0  0  0  0
    4.1206   -4.4652   20.9971 H   0  0  0  0  0  0
    6.8067   -0.2271   21.7960 H   0  0  0  0  0  0
    6.1771   -4.7716   21.4371 H   0  0  0  0  0  0
   10.3390   -5.5434   25.7210 H   0  0  0  0  0  0
    9.3390   -6.0041   24.3575 H   0  0  0  0  0  0
    5.5567   -6.4312   23.4837 H   0  0  0  0  0  0
    6.5670   -6.9299   24.7957 H   0  0  0  0  0  0
    7.8610   -8.9484   24.7683 H   0  0  0  0  0  0
    8.0164  -11.2870   24.0261 H   0  0  0  0  0  0
    6.8165  -12.0278   21.9981 H   0  0  0  0  0  0
    5.4733  -10.4519   20.7149 H   0  0  0  0  0  0
  1  5  1  0  0  0
  1  2  2  0  0  0
  1 30  1  0  0  0
  2  3  1  0  0  0
  2 31  1  0  0  0
  3  4  2  0  0  0
  3 32  1  0  0  0
  4  6  1  0  0  0
  4 33  1  0  0  0
  5  9  1  0  0  0
  5  6  2  0  0  0
  6  7  1  0  0  0
  7  8  1  0  0  0
  7 10  1  0  0  0
  8  9  2  0  0  0
  8 34  1  0  0  0
 10 14  1  0  0  0
 10 11  2  0  0  0
 11 12  1  0  0  0
 11 35  1  0  0  0
 12 18  1  0  0  0
 12 13  2  0  0  0
 13 14  1  0  0  0
 13 15  1  0  0  0
 15 16  1  0  0  0
 15 17  2  0  0  0
 16 36  1  0  0  0
 16 37  1  0  0  0
 18 19  1  0  0  0
 19 20  1  0  0  0
 19 38  1  0  0  0
 19 39  1  0  0  0
 20 21  2  0  0  0
 20 25  1  0  0  0
 21 22  1  0  0  0
 21 40  1  0  0  0
 22 23  2  0  0  0
 22 41  1  0  0  0
 23 24  1  0  0  0
 23 42  1  0  0  0
 24 25  2  0  0  0
 24 43  1  0  0  0
 25 26  1  0  0  0
 26 27  1  0  0  0
 26 28  1  0  0  0
 26 29  1  0  0  0
M  END
> <s_m_entry_id>
5673

> <s_m_entry_name>
dock_pv.68

> <s_m_Source_Path>
/home/csk/Desktop/cluster/DUD-E-result/igf1r

> <s_m_Source_File>
dock_pv.maegz

> <i_m_Source_File_Index>
68

> <chembl_id>
CHEMBL481491

> <chembl_pref_name>
None

> <i_lp_mmshare_version>
53161

> <r_lp_tautomer_probability>
1

> <s_lp_Force_Field>
OPLS_2005

> <r_lp_Energy>
24.612256

> <b_lp_Chiralities_Consistent>
1

> <s_lp_Variant>
CHEMBL1957_lig2692-1

> <s_i_glide_gridfile>
glide-grid_2oj9

> <i_i_glide_lignum>
3720

> <i_i_glide_rotatable_bonds>
6

> <r_i_docking_score>
-7.96465163511321

> <r_i_glide_ligand_efficiency>
-0.27464315983149

> <r_i_glide_ligand_efficiency_sa>
-0.843790800062716

> <r_i_glide_ligand_efficiency_ln>
-1.82370325830157

> <r_i_glide_gscore>
-7.96465163511321

> <r_i_glide_lipo>
-3.64851227077205

> <r_i_glide_hbond>
0

> <r_i_glide_metal>
0

> <r_i_glide_rewards>
-2.26501517171791

> <r_i_glide_evdw>
-45.3459625244141

> <r_i_glide_ecoul>
-1.583984375

> <r_i_glide_erotb>
0.453771589847447

> <r_i_glide_esite>
0

> <r_i_glide_emodel>
-62.4143383441417

> <r_i_glide_energy>
-46.9299468994141

> <r_i_glide_einternal>
5.88634824752808

> <i_i_glide_confnum>
13

> <i_i_glide_posenum>
278

> <r_i_glide_eff_state_penalty>
0

> <s_user_duplicate_titles>
CHEMBL1957_lig2692

> <i_f3d_flags>
0

> <s_m_subgroup_title>
dock_pv

> <s_m_subgroupid>
dock_pv

> <b_m_subgroup_collapsed>
1

$$$$
CHEMBL1957_lig2289
                    3D
 Schrodinger Suite 2021-1.
 59 63  0  0  1  0            999 V2000
    9.3264   -9.5863   24.1839 C   0  0  0  0  0  0
    8.1061   -8.9043   24.6282 N   0  0  0  0  0  0
    8.1158   -8.6076   26.0619 C   0  0  0  0  0  0
    7.0635   -8.5688   23.8230 C   0  0  0  0  0  0
    6.0828   -7.9471   24.2376 O   0  0  0  0  0  0
    7.1196   -8.9903   22.3420 C   0  0  0  0  0  0
    5.9362   -8.7075   21.5276 N   0  0  0  0  0  0
    5.3446   -7.4952   21.2718 C   0  0  0  0  0  0
    4.4396   -7.6949   20.2380 C   0  0  0  0  0  0
    3.6508   -6.8147   19.5346 N   0  0  0  0  0  0
    3.6353   -5.4208   19.5876 C   0  0  0  0  0  0
    3.1551   -4.8560   18.4536 N   0  0  0  0  0  0
    3.2383   -3.5089   18.3581 C   0  0  0  0  0  0
    3.8376   -2.7220   19.3413 C   0  0  0  0  0  0
    3.9514   -1.2097   19.2477 C   0  0  0  0  0  0
    5.3250   -0.6767   19.6969 C   0  0  0  0  0  0
    5.6441   -1.3113   21.0394 C   0  0  0  0  0  0
    6.3141   -0.7320   21.9964 N   0  0  0  0  0  0
    6.4552   -1.6712   22.9309 N   0  0  0  0  0  0
    7.2377   -1.3492   24.1161 C   0  0  0  0  0  0
    5.8930   -2.8771   22.5749 C   0  0  0  0  0  0
    6.0382   -4.1131   23.4384 C   0  0  0  0  0  0
    7.3986   -4.7679   23.3973 C   0  0  0  0  0  0
    8.0273   -5.0594   24.6052 C   0  0  0  0  0  0
    9.2772   -5.6476   24.6379 C   0  0  0  0  0  0
    9.8708   -5.9903   23.4377 C   0  0  0  0  0  0
    9.2361   -5.7446   22.2190 C   0  0  0  0  0  0
    8.0009   -5.1132   22.1930 C   0  0  0  0  0  0
    5.2236   -2.6080   21.3794 C   0  0  0  0  0  0
    4.3461   -3.4021   20.4634 C   0  0  0  0  0  0
    4.1738   -4.7398   20.6380 N   0  0  0  0  0  0
    4.5745   -9.0637   19.9777 C   0  0  0  0  0  0
    5.4621   -9.6690   20.7282 N   0  0  0  0  0  0
    9.3664   -9.7891   23.1142 H   0  0  0  0  0  0
   10.1995   -8.9770   24.4239 H   0  0  0  0  0  0
    9.4334  -10.5392   24.7043 H   0  0  0  0  0  0
    8.1568   -9.5317   26.6389 H   0  0  0  0  0  0
    8.9895   -8.0103   26.3226 H   0  0  0  0  0  0
    7.2379   -8.0530   26.3843 H   0  0  0  0  0  0
    7.3001  -10.0662   22.3168 H   0  0  0  0  0  0
    7.9617   -8.4954   21.8597 H   0  0  0  0  0  0
    5.6584   -6.6103   21.7993 H   0  0  0  0  0  0
    3.2248   -7.1476   18.6835 H   0  0  0  0  0  0
    2.8387   -3.0657   17.4572 H   0  0  0  0  0  0
    3.2376   -0.8539   19.9730 H   0  0  0  0  0  0
    3.6688   -0.8286   18.2650 H   0  0  0  0  0  0
    5.3117    0.4127   19.7640 H   0  0  0  0  0  0
    6.0927   -0.9126   18.9610 H   0  0  0  0  0  0
    6.8097   -1.8332   24.9920 H   0  0  0  0  0  0
    8.2610   -1.6991   23.9734 H   0  0  0  0  0  0
    7.2389   -0.2721   24.2919 H   0  0  0  0  0  0
    5.2802   -4.8565   23.1937 H   0  0  0  0  0  0
    5.9164   -3.8349   24.4816 H   0  0  0  0  0  0
    7.5232   -4.8539   25.5234 H   0  0  0  0  0  0
    9.7601   -5.8631   25.5797 H   0  0  0  0  0  0
   10.8327   -6.4734   23.4454 H   0  0  0  0  0  0
    9.6884   -6.0539   21.2933 H   0  0  0  0  0  0
    7.5069   -4.9114   21.2546 H   0  0  0  0  0  0
    4.0477   -9.6048   19.2055 H   0  0  0  0  0  0
  1  2  1  0  0  0
  1 34  1  0  0  0
  1 35  1  0  0  0
  1 36  1  0  0  0
  2  3  1  0  0  0
  2  4  1  0  0  0
  3 37  1  0  0  0
  3 38  1  0  0  0
  3 39  1  0  0  0
  4  5  2  0  0  0
  4  6  1  0  0  0
  6  7  1  0  0  0
  6 40  1  0  0  0
  6 41  1  0  0  0
  7  8  1  0  0  0
  7 33  1  0  0  0
  8  9  2  0  0  0
  8 42  1  0  0  0
  9 10  1  0  0  0
  9 32  1  0  0  0
 10 11  1  0  0  0
 10 43  1  0  0  0
 11 12  2  0  0  0
 11 31  1  0  0  0
 12 13  1  0  0  0
 13 14  2  0  0  0
 13 44  1  0  0  0
 14 15  1  0  0  0
 14 30  1  0  0  0
 15 16  1  0  0  0
 15 45  1  0  0  0
 15 46  1  0  0  0
 16 17  1  0  0  0
 16 47  1  0  0  0
 16 48  1  0  0  0
 17 18  2  0  0  0
 17 29  1  0  0  0
 18 19  1  0  0  0
 19 20  1  0  0  0
 19 21  1  0  0  0
 20 49  1  0  0  0
 20 50  1  0  0  0
 20 51  1  0  0  0
 21 22  1  0  0  0
 21 29  2  0  0  0
 22 23  1  0  0  0
 22 52  1  0  0  0
 22 53  1  0  0  0
 23 24  2  0  0  0
 23 28  1  0  0  0
 24 25  1  0  0  0
 24 54  1  0  0  0
 25 26  2  0  0  0
 25 55  1  0  0  0
 26 27  1  0  0  0
 26 56  1  0  0  0
 27 28  2  0  0  0
 27 57  1  0  0  0
 28 58  1  0  0  0
 29 30  1  0  0  0
 30 31  2  0  0  0
 32 33  2  0  0  0
 32 59  1  0  0  0
M  END
> <s_m_entry_id>
5674

> <s_m_entry_name>
dock_pv.69

> <s_m_Source_Path>
/home/csk/Desktop/cluster/DUD-E-result/igf1r

> <s_m_Source_File>
dock_pv.maegz

> <i_m_Source_File_Index>
69

> <chembl_id>
CHEMBL3656731

> <chembl_pref_name>
None

> <i_lp_mmshare_version>
53161

> <r_lp_tautomer_probability>
0.999999987636

> <s_lp_Force_Field>
OPLS_2005

> <r_lp_Energy>
16.537959

> <b_lp_Chiralities_Consistent>
1

> <s_lp_Variant>
CHEMBL1957_lig2289-1

> <s_i_glide_gridfile>
glide-grid_2oj9

> <i_i_glide_lignum>
3271

> <i_i_glide_rotatable_bonds>
7

> <r_i_docking_score>
-7.96314164680336

> <r_i_glide_ligand_efficiency>
-0.241307322630405

> <r_i_glide_ligand_efficiency_sa>
-0.774001520514302

> <r_i_glide_ligand_efficiency_ln>
-1.77096147130825

> <r_i_glide_gscore>
-7.96314164680336

> <r_i_glide_lipo>
-3.44443533739382

> <r_i_glide_hbond>
-0.0609840057774578

> <r_i_glide_metal>
0

> <r_i_glide_rewards>
-2.77708432150837

> <r_i_glide_evdw>
-36.4471702575684

> <r_i_glide_ecoul>
-3.13730096817017

> <r_i_glide_erotb>
0.612315675980234

> <r_i_glide_esite>
0

> <r_i_glide_emodel>
-51.0834869113645

> <r_i_glide_energy>
-39.5844712257385

> <r_i_glide_einternal>
5.8437876701355

> <i_i_glide_confnum>
2

> <i_i_glide_posenum>
98

> <r_i_glide_eff_state_penalty>
0

> <s_user_duplicate_titles>
CHEMBL1957_lig2289

> <i_f3d_flags>
0

> <s_m_subgroup_title>
dock_pv

> <s_m_subgroupid>
dock_pv

> <b_m_subgroup_collapsed>
1

$$$$
CHEMBL1957_lig2947
                    3D
 Schrodinger Suite 2021-1.
 53 56  0  0  1  0            999 V2000
    6.0434  -11.8197   22.3012 F   0  0  0  0  0  0
    6.1135  -12.4028   20.2381 F   0  0  0  0  0  0
    7.7417  -11.2541   21.0382 F   0  0  0  0  0  0
    8.8343   -4.6071   24.0774 O   0  0  0  0  0  0
    5.7184  -10.2510   20.6711 O   0  0  0  0  0  0
    3.2380   -2.0433   17.8381 N   0  0  0  0  0  0
    2.8396   -3.3189   17.8384 N   0  0  0  0  0  0
    7.2380   -1.3656   24.5250 N   0  0  0  0  0  0
    9.6380   -8.0524   23.0579 N   0  0  0  0  0  0
    4.0149   -3.1692   19.6918 C   0  0  0  0  0  0
    3.9957   -1.9473   18.9593 C   0  0  0  0  0  0
    5.5242   -2.1552   21.2756 C   0  0  0  0  0  0
    3.2468   -4.0731   18.9073 C   0  0  0  0  0  0
    4.7516   -3.2477   20.8759 C   0  0  0  0  0  0
    6.3954   -2.2853   22.4578 C   0  0  0  0  0  0
    4.7340   -0.8379   19.3901 C   0  0  0  0  0  0
    5.5088   -0.9689   20.5374 C   0  0  0  0  0  0
    7.2054   -3.4161   22.6288 C   0  0  0  0  0  0
    8.0379   -3.5273   23.7505 C   0  0  0  0  0  0
    6.4380   -1.2934   23.4395 C   0  0  0  0  0  0
    2.9524   -5.5442   19.0483 C   0  0  0  0  0  0
    8.0380   -2.4541   24.6380 C   0  0  0  0  0  0
    5.7565   -9.1052   21.4433 C   0  0  0  0  0  0
    6.6204   -7.6858   23.2330 C   0  0  0  0  0  0
    6.6393   -8.8883   22.5156 C   0  0  0  0  0  0
    6.4201  -11.4243   21.0856 C   0  0  0  0  0  0
    9.0497   -7.0147   23.8903 C   0  0  2  0  0  0
    7.6293   -7.4357   24.3564 C   0  0  0  0  0  0
    9.0933   -5.6600   23.1471 C   0  0  0  0  0  0
    4.8496   -8.0982   21.1091 C   0  0  0  0  0  0
    5.6730   -6.7122   22.9094 C   0  0  0  0  0  0
    4.7869   -6.9226   21.8553 C   0  0  0  0  0  0
    2.2468   -3.6538   17.0868 H   0  0  0  0  0  0
    9.0678   -8.1809   22.2371 H   0  0  0  0  0  0
   10.5538   -7.7408   22.7195 H   0  0  0  0  0  0
    4.7792   -4.1629   21.4419 H   0  0  0  0  0  0
    4.7524    0.0792   18.8210 H   0  0  0  0  0  0
    6.1262   -0.1349   20.8402 H   0  0  0  0  0  0
    7.1600   -4.1875   21.8792 H   0  0  0  0  0  0
    5.8243   -0.4092   23.3641 H   0  0  0  0  0  0
    2.4347   -5.7358   19.9846 H   0  0  0  0  0  0
    2.3477   -5.9460   18.2378 H   0  0  0  0  0  0
    3.8722   -6.1286   19.0591 H   0  0  0  0  0  0
    8.6908   -2.4722   25.4971 H   0  0  0  0  0  0
    7.3589   -9.6404   22.7992 H   0  0  0  0  0  0
    9.6812   -6.9297   24.7764 H   0  0  0  0  0  0
    7.2321   -6.6797   25.0362 H   0  0  0  0  0  0
    7.6981   -8.3391   24.9641 H   0  0  0  0  0  0
   10.0898   -5.4801   22.7399 H   0  0  0  0  0  0
    8.4349   -5.7103   22.2842 H   0  0  0  0  0  0
    4.1606   -8.2535   20.2909 H   0  0  0  0  0  0
    5.6241   -5.7918   23.4736 H   0  0  0  0  0  0
    4.0410   -6.1814   21.6213 H   0  0  0  0  0  0
  1 26  1  0  0  0
  2 26  1  0  0  0
  3 26  1  0  0  0
  4 19  1  0  0  0
  4 29  1  0  0  0
  5 23  1  0  0  0
  5 26  1  0  0  0
  6  7  1  0  0  0
  6 11  2  0  0  0
  7 33  1  0  0  0
  7 13  1  0  0  0
  8 20  1  0  0  0
  8 22  2  0  0  0
  9 27  1  0  0  0
  9 34  1  0  0  0
  9 35  1  0  0  0
 10 14  1  0  0  0
 10 11  1  0  0  0
 10 13  2  0  0  0
 11 16  1  0  0  0
 12 17  1  0  0  0
 12 15  1  0  0  0
 12 14  2  0  0  0
 13 21  1  0  0  0
 14 36  1  0  0  0
 15 18  1  0  0  0
 15 20  2  0  0  0
 16 37  1  0  0  0
 16 17  2  0  0  0
 17 38  1  0  0  0
 18 19  2  0  0  0
 18 39  1  0  0  0
 19 22  1  0  0  0
 20 40  1  0  0  0
 21 41  1  0  0  0
 21 42  1  0  0  0
 21 43  1  0  0  0
 22 44  1  0  0  0
 23 25  2  0  0  0
 23 30  1  0  0  0
 24 25  1  0  0  0
 24 28  1  0  0  0
 24 31  2  0  0  0
 25 45  1  0  0  0
 27 28  1  0  0  0
 27 29  1  0  0  0
 27 46  1  0  0  0
 28 47  1  0  0  0
 28 48  1  0  0  0
 29 49  1  0  0  0
 29 50  1  0  0  0
 30 32  2  0  0  0
 30 51  1  0  0  0
 31 32  1  0  0  0
 31 52  1  0  0  0
 32 53  1  0  0  0
M  END
> <s_m_entry_id>
5675

> <s_m_entry_name>
dock_pv.70

> <s_m_Source_Path>
/home/csk/Desktop/cluster/DUD-E-result/igf1r

> <s_m_Source_File>
dock_pv.maegz

> <i_m_Source_File_Index>
70

> <chembl_id>
CHEMBL1965836

> <chembl_pref_name>
None

> <i_lp_mmshare_version>
53161

> <r_lp_tautomer_probability>
0.0196078431372549

> <s_lp_Force_Field>
OPLS_2005

> <r_lp_Energy>
40.91069

> <b_lp_Chiralities_Consistent>
1

> <s_lp_Variant>
CHEMBL1957_lig2947-3

> <s_i_glide_gridfile>
glide-grid_2oj9

> <i_i_glide_lignum>
4078

> <i_i_glide_rotatable_bonds>
8

> <r_i_docking_score>
-7.95892084761303

> <r_i_glide_ligand_efficiency>
-0.248716276487907

> <r_i_glide_ligand_efficiency_sa>
-0.789624956964824

> <r_i_glide_ligand_efficiency_ln>
-1.78221932976899

> <r_i_glide_gscore>
-7.95892084761303

> <r_i_glide_lipo>
-4.03543202806378

> <r_i_glide_hbond>
-0.410471959276627

> <r_i_glide_metal>
0

> <r_i_glide_rewards>
-1.52615694352212

> <r_i_glide_evdw>
-43.601490020752

> <r_i_glide_ecoul>
-3.28877902030945

> <r_i_glide_erotb>
0.714610432946625

> <r_i_glide_esite>
-0.0280789956131129

> <r_i_glide_emodel>
-62.5333226490623

> <r_i_glide_energy>
-46.8902690410614

> <r_i_glide_einternal>
7.79655933380127

> <i_i_glide_confnum>
5

> <i_i_glide_posenum>
352

> <r_i_glide_eff_state_penalty>
0

> <s_user_duplicate_titles>
CHEMBL1957_lig2947

> <i_f3d_flags>
0

> <s_m_subgroup_title>
dock_pv

> <s_m_subgroupid>
dock_pv

> <b_m_subgroup_collapsed>
1

$$$$
CHEMBL1957_lig3236
                    3D
 Schrodinger Suite 2021-1.
 49 53  0  0  1  0            999 V2000
    8.1498   -8.1268   23.7978 S   0  0  0  0  0  0
    7.6715   -8.1247   22.4119 O   0  0  0  0  0  0
    7.8503   -9.2726   24.6627 O   0  0  0  0  0  0
    4.2503   -5.0822   20.7525 N   0  0  0  0  0  0
    5.0939   -6.6180   22.1295 N   0  0  0  0  0  0
    7.5353   -6.7053   24.6379 N   0  0  2  0  0  0
    2.8914   -5.2723   18.3018 N   0  0  0  0  0  0
    3.0887   -2.8538   18.2387 N   0  0  0  0  0  0
    5.0035   -5.3208   21.8916 C   0  0  0  0  0  0
    5.6890   -4.2513   22.7425 C   0  0  2  0  0  0
    3.8900   -3.8932   20.0559 C   0  0  0  0  0  0
    3.9508   -6.3431   20.2383 C   0  0  0  0  0  0
    3.2380   -4.0932   18.8179 C   0  0  0  0  0  0
    7.0668   -3.8117   22.2031 C   0  0  2  0  0  0
    7.4545   -5.3205   24.1014 C   0  0  2  0  0  0
    6.0380   -4.7534   24.1636 C   0  0  0  0  0  0
    4.4975   -7.2555   21.1548 C   0  0  0  0  0  0
   10.0302   -7.9214   23.7700 C   0  0  0  0  0  0
    3.2354   -6.3670   19.0364 C   0  0  0  0  0  0
    7.9881   -4.9618   22.6911 C   0  0  0  0  0  0
    4.0803   -2.4896   20.2409 C   0  0  0  0  0  0
   10.6624   -6.8347   24.6244 C   0  0  0  0  0  0
   10.7723   -8.2770   25.0416 C   0  0  0  0  0  0
    3.6200   -1.8948   19.0767 C   0  0  0  0  0  0
    7.5235   -2.4228   22.7486 C   0  0  0  0  0  0
    6.5282   -1.2531   22.5870 C   0  0  0  0  0  0
    7.7037   -6.7292   25.6496 H   0  0  0  0  0  0
    2.6844   -2.6550   17.3317 H   0  0  0  0  0  0
    4.9500   -3.4571   22.7461 H   0  0  0  0  0  0
    7.0480   -3.7653   21.1123 H   0  0  0  0  0  0
    8.1240   -4.7963   24.7851 H   0  0  0  0  0  0
    5.3108   -5.4733   24.5491 H   0  0  0  0  0  0
    6.0444   -3.9171   24.8630 H   0  0  0  0  0  0
    4.4912   -8.3337   21.1008 H   0  0  0  0  0  0
   10.4380   -8.2014   22.8017 H   0  0  0  0  0  0
    2.8875   -7.3080   18.6380 H   0  0  0  0  0  0
    9.0354   -4.6544   22.7255 H   0  0  0  0  0  0
    7.9187   -5.7837   21.9840 H   0  0  0  0  0  0
    4.5401   -1.9794   21.0650 H   0  0  0  0  0  0
   10.0411   -6.1646   25.2173 H   0  0  0  0  0  0
   11.5481   -6.3295   24.2378 H   0  0  0  0  0  0
   11.7320   -8.7856   24.9465 H   0  0  0  0  0  0
   10.2037   -8.6269   25.9047 H   0  0  0  0  0  0
    3.6346   -0.8594   18.7660 H   0  0  0  0  0  0
    7.7781   -2.5037   23.8058 H   0  0  0  0  0  0
    8.4497   -2.1492   22.2456 H   0  0  0  0  0  0
    6.8380   -0.3697   23.1396 H   0  0  0  0  0  0
    6.4306   -0.9629   21.5409 H   0  0  0  0  0  0
    5.5439   -1.4716   22.9918 H   0  0  0  0  0  0
  1  2  2  0  0  0
  1  3  2  0  0  0
  1  6  1  0  0  0
  1 18  1  0  0  0
  4  9  1  0  0  0
  4 11  1  0  0  0
  4 12  1  0  0  0
  5  9  2  0  0  0
  5 17  1  0  0  0
  6 15  1  0  0  0
  6 27  1  0  0  0
  7 13  1  0  0  0
  7 19  2  0  0  0
  8 13  1  0  0  0
  8 24  1  0  0  0
  8 28  1  0  0  0
  9 10  1  0  0  0
 10 14  1  0  0  0
 10 16  1  0  0  0
 10 29  1  0  0  0
 11 13  2  0  0  0
 11 21  1  0  0  0
 12 17  2  0  0  0
 12 19  1  0  0  0
 14 20  1  0  0  0
 14 25  1  0  0  0
 14 30  1  0  0  0
 15 16  1  0  0  0
 15 20  1  0  0  0
 15 31  1  0  0  0
 16 32  1  0  0  0
 16 33  1  0  0  0
 17 34  1  0  0  0
 18 22  1  0  0  0
 18 23  1  0  0  0
 18 35  1  0  0  0
 19 36  1  0  0  0
 20 37  1  0  0  0
 20 38  1  0  0  0
 21 24  2  0  0  0
 21 39  1  0  0  0
 22 23  1  0  0  0
 22 40  1  0  0  0
 22 41  1  0  0  0
 23 42  1  0  0  0
 23 43  1  0  0  0
 24 44  1  0  0  0
 25 26  1  0  0  0
 25 45  1  0  0  0
 25 46  1  0  0  0
 26 47  1  0  0  0
 26 48  1  0  0  0
 26 49  1  0  0  0
M  END
> <s_m_entry_id>
5676

> <s_m_entry_name>
dock_pv.71

> <s_m_Source_Path>
/home/csk/Desktop/cluster/DUD-E-result/igf1r

> <s_m_Source_File>
dock_pv.maegz

> <i_m_Source_File_Index>
71

> <chembl_id>
CHEMBL1992073

> <chembl_pref_name>
None

> <i_lp_mmshare_version>
53161

> <r_lp_tautomer_probability>
1

> <s_lp_Force_Field>
OPLS_2005

> <r_lp_Energy>
58.949005

> <b_lp_Chiralities_Consistent>
1

> <s_lp_Variant>
CHEMBL1957_lig3236-1

> <s_i_glide_gridfile>
glide-grid_2oj9

> <i_i_glide_lignum>
4516

> <i_i_glide_rotatable_bonds>
5

> <r_i_docking_score>
-7.95019498643458

> <r_i_glide_ligand_efficiency>
-0.305776730247484

> <r_i_glide_ligand_efficiency_sa>
-0.905862360184837

> <r_i_glide_ligand_efficiency_ln>
-1.86707720584668

> <r_i_glide_gscore>
-7.95019498643458

> <r_i_glide_lipo>
-2.3585630882079

> <r_i_glide_hbond>
-0.784354888139863

> <r_i_glide_metal>
0

> <r_i_glide_rewards>
-2.54888340896991

> <r_i_glide_evdw>
-29.7478218078613

> <r_i_glide_ecoul>
-7.50268316268921

> <r_i_glide_erotb>
0.387943612504603

> <r_i_glide_esite>
-0.0335436488250618

> <r_i_glide_emodel>
-41.4537131494471

> <r_i_glide_energy>
-37.2505049705505

> <r_i_glide_einternal>
18.0317001342773

> <i_i_glide_confnum>
138

> <i_i_glide_posenum>
105

> <r_i_glide_eff_state_penalty>
0

> <s_user_duplicate_titles>
CHEMBL1957_lig3236

> <i_f3d_flags>
0

> <s_m_subgroup_title>
dock_pv

> <s_m_subgroupid>
dock_pv

> <b_m_subgroup_collapsed>
1

$$$$
CHEMBL1957_lig3499
                    3D
 Schrodinger Suite 2021-1.
 39 42  0  0  1  0            999 V2000
    7.1042   -4.0175   23.9730 C   0  0  0  0  0  0
    7.7087   -2.7886   24.2377 C   0  0  0  0  0  0
    7.4617   -1.6547   23.5411 N   0  0  0  0  0  0
    6.1699   -4.1328   22.9266 C   0  0  0  0  0  0
    5.9231   -2.9697   22.1602 C   0  0  0  0  0  0
    6.6115   -1.7939   22.5299 C   0  0  0  0  0  0
    6.3261   -0.7591   21.6804 O   0  0  0  0  0  0
    5.1306   -2.6063   21.0493 C   0  0  0  0  0  0
    5.4520   -1.2598   20.7530 C   0  0  0  0  0  0
    4.9241   -0.5643   19.6596 C   0  0  0  0  0  0
    4.0379   -1.2651   18.8408 C   0  0  0  0  0  0
    3.6788   -2.5873   19.1169 C   0  0  0  0  0  0
    4.1925   -3.2623   20.2332 C   0  0  0  0  0  0
    5.4827   -5.3204   22.6380 N   0  0  0  0  0  0
    5.4599   -6.4741   23.5397 C   0  0  0  0  0  0
    5.8373   -7.7595   22.8266 C   0  0  0  0  0  0
    5.2379   -8.0936   21.6093 C   0  0  0  0  0  0
    5.4795   -9.3326   21.0256 C   0  0  0  0  0  0
    6.3429  -10.2412   21.6353 C   0  0  0  0  0  0
    6.9609   -9.9070   22.8400 C   0  0  0  0  0  0
    6.7016   -8.6735   23.4395 C   0  0  0  0  0  0
    2.8383   -3.2692   18.2385 N   0  0  0  0  0  0
    4.8380   -9.6552   19.8379 N   0  0  0  0  0  0
    7.3893   -4.8558   24.5889 H   0  0  0  0  0  0
    8.4347   -2.6951   25.0340 H   0  0  0  0  0  0
    5.2117    0.4567   19.4453 H   0  0  0  0  0  0
    3.6361   -0.7741   17.9680 H   0  0  0  0  0  0
    3.9181   -4.2886   20.4221 H   0  0  0  0  0  0
    4.8212   -5.3066   21.8777 H   0  0  0  0  0  0
    4.4381   -6.6048   23.8831 H   0  0  0  0  0  0
    6.0609   -6.3557   24.4382 H   0  0  0  0  0  0
    4.5491   -7.4071   21.1397 H   0  0  0  0  0  0
    6.5311  -11.2046   21.1843 H   0  0  0  0  0  0
    7.6246  -10.6127   23.3197 H   0  0  0  0  0  0
    7.1612   -8.4398   24.3890 H   0  0  0  0  0  0
    2.6611   -4.2474   18.4075 H   0  0  0  0  0  0
    2.5611   -2.8538   17.3549 H   0  0  0  0  0  0
    4.3684   -8.9301   19.3078 H   0  0  0  0  0  0
    4.9495  -10.5831   19.4451 H   0  0  0  0  0  0
  1  2  2  0  0  0
  1  4  1  0  0  0
  1 24  1  0  0  0
  2  3  1  0  0  0
  2 25  1  0  0  0
  3  6  2  0  0  0
  4  5  2  0  0  0
  4 14  1  0  0  0
  5  6  1  0  0  0
  5  8  1  0  0  0
  6  7  1  0  0  0
  7  9  1  0  0  0
  8  9  2  0  0  0
  8 13  1  0  0  0
  9 10  1  0  0  0
 10 11  2  0  0  0
 10 26  1  0  0  0
 11 12  1  0  0  0
 11 27  1  0  0  0
 12 13  2  0  0  0
 12 22  1  0  0  0
 13 28  1  0  0  0
 14 15  1  0  0  0
 14 29  1  0  0  0
 15 16  1  0  0  0
 15 30  1  0  0  0
 15 31  1  0  0  0
 16 17  2  0  0  0
 16 21  1  0  0  0
 17 18  1  0  0  0
 17 32  1  0  0  0
 18 19  2  0  0  0
 18 23  1  0  0  0
 19 20  1  0  0  0
 19 33  1  0  0  0
 20 21  2  0  0  0
 20 34  1  0  0  0
 21 35  1  0  0  0
 22 36  1  0  0  0
 22 37  1  0  0  0
 23 38  1  0  0  0
 23 39  1  0  0  0
M  END
> <s_m_entry_id>
5677

> <s_m_entry_name>
dock_pv.72

> <s_m_Source_Path>
/home/csk/Desktop/cluster/DUD-E-result/igf1r

> <s_m_Source_File>
dock_pv.maegz

> <i_m_Source_File_Index>
72

> <chembl_id>
CHEMBL4206140

> <chembl_pref_name>
None

> <i_lp_mmshare_version>
53161

> <r_lp_tautomer_probability>
1

> <s_lp_Force_Field>
OPLS_2005

> <r_lp_Energy>
15.042173

> <b_lp_Chiralities_Consistent>
1

> <s_lp_Variant>
CHEMBL1957_lig3499-1

> <s_i_glide_gridfile>
glide-grid_2oj9

> <i_i_glide_lignum>
4909

> <i_i_glide_rotatable_bonds>
3

> <r_i_docking_score>
-7.9306215924713

> <r_i_glide_ligand_efficiency>
-0.344809634455274

> <r_i_glide_ligand_efficiency_sa>
-0.980592732737161

> <r_i_glide_ligand_efficiency_ln>
-1.91769621196036

> <r_i_glide_gscore>
-7.9306215924713

> <r_i_glide_lipo>
-3.72652482332632

> <r_i_glide_hbond>
-0.54901441570494

> <r_i_glide_metal>
0

> <r_i_glide_rewards>
-1.63400563636364

> <r_i_glide_evdw>
-37.1060256958008

> <r_i_glide_ecoul>
-5.08693552017212

> <r_i_glide_erotb>
0.597264895739459

> <r_i_glide_esite>
0

> <r_i_glide_emodel>
-59.4399228216936

> <r_i_glide_energy>
-42.1929612159729

> <r_i_glide_einternal>
3.21656727790833

> <i_i_glide_confnum>
12

> <i_i_glide_posenum>
242

> <r_i_glide_eff_state_penalty>
0

> <s_user_duplicate_titles>
CHEMBL1957_lig3499

> <i_f3d_flags>
0

> <s_m_subgroup_title>
dock_pv

> <s_m_subgroupid>
dock_pv

> <b_m_subgroup_collapsed>
1

$$$$
CHEMBL1957_lig2008
                    3D
 Schrodinger Suite 2021-1.
 61 66  0  0  1  0            999 V2000
    6.8363  -10.3875   24.0263 C   0  0  0  0  0  0
    7.0136  -10.1902   22.5000 C   0  0  1  0  0  0
    7.0379  -11.5973   21.8438 C   0  0  0  0  0  0
    6.4579  -11.3696   20.4774 C   0  0  0  0  0  0
    5.4215  -10.2825   20.7211 C   0  0  0  0  0  0
    5.8858   -9.4408   21.8332 N   0  0  0  0  0  0
    5.3579   -8.1461   22.0882 C   0  0  0  0  0  0
    4.6135   -7.5583   21.1144 N   0  0  0  0  0  0
    4.4849   -6.2058   21.1141 C   0  0  0  0  0  0
    3.6309   -5.7631   20.0823 N   0  0  0  0  0  0
    3.3781   -4.5370   19.5056 C   0  0  0  0  0  0
    3.5913   -3.2334   19.9687 C   0  0  0  0  0  0
    3.5746   -2.4179   18.8519 C   0  0  0  0  0  0
    3.0727   -3.2381   17.8761 N   0  0  0  0  0  0
    2.8525   -4.4927   18.2946 N   0  0  0  0  0  0
    3.9335   -0.9661   18.6241 C   0  0  0  0  0  0
    4.5482   -0.1446   19.7443 C   0  0  0  0  0  0
    5.3625   -0.4893   18.5291 C   0  0  0  0  0  0
    5.2479   -5.4264   22.0282 C   0  0  0  0  0  0
    5.7446   -4.0996   22.2296 C   0  0  0  0  0  0
    6.4375   -4.0859   23.4348 C   0  0  0  0  0  0
    6.3467   -5.3417   24.0107 C   0  0  0  0  0  0
    5.7523   -6.1870   23.1091 N   0  0  0  0  0  0
    5.7557   -7.5206   23.2188 N   0  0  0  0  0  0
    8.3746   -9.4315   22.3553 C   0  0  0  0  0  0
    9.3737   -9.9319   21.8403 O   0  0  0  0  0  0
    8.3797   -8.2283   22.9382 N   0  0  0  0  0  0
    9.4595   -7.3089   23.1853 C   0  0  1  0  0  0
    9.2392   -6.0215   22.3989 C   0  0  0  0  0  0
    9.7924   -4.9439   23.3176 C   0  0  0  0  0  0
    9.5062   -5.3893   24.6709 N   0  0  1  0  0  0
    9.4831   -6.8475   24.6503 C   0  0  0  0  0  0
    6.9055  -11.4259   24.3522 H   0  0  0  0  0  0
    7.4841   -9.8134   24.6933 H   0  0  0  0  0  0
    5.8296  -10.0546   24.2376 H   0  0  0  0  0  0
    8.0168  -12.0773   21.8272 H   0  0  0  0  0  0
    6.3755  -12.2846   22.3723 H   0  0  0  0  0  0
    7.2300  -11.0224   19.7990 H   0  0  0  0  0  0
    6.0266  -12.2714   20.0423 H   0  0  0  0  0  0
    5.3568   -9.6847   19.8102 H   0  0  0  0  0  0
    4.4399  -10.7109   20.9339 H   0  0  0  0  0  0
    3.2819   -6.5759   19.5975 H   0  0  0  0  0  0
    3.8384   -2.9248   20.9681 H   0  0  0  0  0  0
    2.7800   -2.9293   16.9537 H   0  0  0  0  0  0
    3.2584   -0.4755   17.9316 H   0  0  0  0  0  0
    4.2205    0.8841   19.8939 H   0  0  0  0  0  0
    4.8430   -0.6280   20.6728 H   0  0  0  0  0  0
    6.1677   -1.2062   18.6494 H   0  0  0  0  0  0
    5.6145    0.3020   17.8221 H   0  0  0  0  0  0
    5.6925   -3.2411   21.5813 H   0  0  0  0  0  0
    6.9418   -3.2344   23.8701 H   0  0  0  0  0  0
    6.7747   -5.7090   24.9299 H   0  0  0  0  0  0
    7.4636   -7.8931   23.2210 H   0  0  0  0  0  0
   10.4363   -7.7425   23.0062 H   0  0  0  0  0  0
    8.2006   -5.8181   22.1625 H   0  0  0  0  0  0
    9.7357   -6.0517   21.4344 H   0  0  0  0  0  0
    9.2861   -3.9943   23.1455 H   0  0  0  0  0  0
   10.8622   -4.8058   23.1678 H   0  0  0  0  0  0
   10.2009   -5.0426   25.3165 H   0  0  0  0  0  0
   10.3422   -7.2615   25.1801 H   0  0  0  0  0  0
    8.5885   -7.1555   25.1957 H   0  0  0  0  0  0
  1  2  1  0  0  0
  1 33  1  0  0  0
  1 34  1  0  0  0
  1 35  1  0  0  0
  2  3  1  0  0  0
  2  6  1  0  0  0
  2 25  1  0  0  0
  3  4  1  0  0  0
  3 36  1  0  0  0
  3 37  1  0  0  0
  4  5  1  0  0  0
  4 38  1  0  0  0
  4 39  1  0  0  0
  5  6  1  0  0  0
  5 40  1  0  0  0
  5 41  1  0  0  0
  6  7  1  0  0  0
  7  8  1  0  0  0
  7 24  2  0  0  0
  8  9  2  0  0  0
  9 10  1  0  0  0
  9 19  1  0  0  0
 10 11  1  0  0  0
 10 42  1  0  0  0
 11 12  1  0  0  0
 11 15  2  0  0  0
 12 13  2  0  0  0
 12 43  1  0  0  0
 13 14  1  0  0  0
 13 16  1  0  0  0
 14 15  1  0  0  0
 14 44  1  0  0  0
 16 17  1  0  0  0
 16 18  1  0  0  0
 16 45  1  0  0  0
 17 18  1  0  0  0
 17 46  1  0  0  0
 17 47  1  0  0  0
 18 48  1  0  0  0
 18 49  1  0  0  0
 19 20  2  0  0  0
 19 23  1  0  0  0
 20 21  1  0  0  0
 20 50  1  0  0  0
 21 22  2  0  0  0
 21 51  1  0  0  0
 22 23  1  0  0  0
 22 52  1  0  0  0
 23 24  1  0  0  0
 25 26  2  0  0  0
 25 27  1  0  0  0
 27 28  1  0  0  0
 27 53  1  0  0  0
 28 29  1  0  0  0
 28 32  1  0  0  0
 28 54  1  0  0  0
 29 30  1  0  0  0
 29 55  1  0  0  0
 29 56  1  0  0  0
 30 31  1  0  0  0
 30 57  1  0  0  0
 30 58  1  0  0  0
 31 32  1  0  0  0
 31 59  1  0  0  0
 32 60  1  0  0  0
 32 61  1  0  0  0
M  END
> <s_m_entry_id>
5678

> <s_m_entry_name>
dock_pv.73

> <s_m_Source_Path>
/home/csk/Desktop/cluster/DUD-E-result/igf1r

> <s_m_Source_File>
dock_pv.maegz

> <i_m_Source_File_Index>
73

> <chembl_id>
CHEMBL3655736

> <chembl_pref_name>
None

> <i_lp_mmshare_version>
53161

> <r_lp_tautomer_probability>
0.842599999161192

> <s_lp_Force_Field>
OPLS_2005

> <r_lp_Energy>
63.010615

> <b_lp_Chiralities_Consistent>
1

> <s_lp_Variant>
CHEMBL1957_lig2008-2

> <s_i_glide_gridfile>
glide-grid_2oj9

> <i_i_glide_lignum>
2930

> <i_i_glide_rotatable_bonds>
7

> <r_i_docking_score>
-7.92281049568404

> <r_i_glide_ligand_efficiency>
-0.247587827990126

> <r_i_glide_ligand_efficiency_sa>
-0.786042356304024

> <r_i_glide_ligand_efficiency_ln>
-1.77413323764107

> <r_i_glide_gscore>
-7.92281049568404

> <r_i_glide_lipo>
-3.21466486213189

> <r_i_glide_hbond>
-0.256588971768778

> <r_i_glide_metal>
0

> <r_i_glide_rewards>
-2.37851687344751

> <r_i_glide_evdw>
-42.1002082824707

> <r_i_glide_ecoul>
-4.68893098831177

> <r_i_glide_erotb>
0.735310274034432

> <r_i_glide_esite>
0

> <r_i_glide_emodel>
-52.9429945268138

> <r_i_glide_energy>
-46.7891392707825

> <r_i_glide_einternal>
13.6591777801514

> <i_i_glide_confnum>
169

> <i_i_glide_posenum>
40

> <r_i_glide_eff_state_penalty>
0

> <s_user_duplicate_titles>
CHEMBL1957_lig2008

> <i_f3d_flags>
0

> <s_m_subgroup_title>
dock_pv

> <s_m_subgroupid>
dock_pv

> <b_m_subgroup_collapsed>
1

$$$$
CHEMBL1957_lig3138
                    3D
 Schrodinger Suite 2021-1.
 39 42  0  0  1  0            999 V2000
    7.0527  -13.4420   20.6470 Cl  0  0  0  0  0  0
    4.8869   -7.1925   21.9069 O   0  0  0  0  0  0
    7.2622   -1.7125   24.0884 N   0  0  0  0  0  0
    8.0390   -3.9649   24.5210 N   0  0  0  0  0  0
    7.0040   -7.0158   22.7445 N   0  0  0  0  0  0
    6.4997   -3.3285   22.7132 C   0  0  0  0  0  0
    6.0172   -2.0597   22.2360 C   0  0  0  0  0  0
    7.3310   -3.0625   23.8365 C   0  0  0  0  0  0
    6.3793   -4.6681   22.3103 C   0  0  0  0  0  0
    7.0586   -5.6482   23.0495 C   0  0  0  0  0  0
    5.2222   -1.7983   21.0116 C   0  0  0  0  0  0
    6.4384   -1.1210   23.1633 C   0  0  0  0  0  0
    7.8765   -5.2489   24.1119 C   0  0  0  0  0  0
    5.9845   -7.6979   22.1733 C   0  0  0  0  0  0
    6.2532   -9.1521   21.8409 C   0  0  0  0  0  0
    4.1899   -2.6572   20.6251 C   0  0  0  0  0  0
    5.5537   -0.7012   20.2118 C   0  0  0  0  0  0
    7.4048   -9.8202   22.2980 C   0  0  0  0  0  0
    5.3405   -9.8534   21.0381 C   0  0  0  0  0  0
    3.4755   -2.4039   19.4581 C   0  0  0  0  0  0
    4.8485   -0.4561   19.0384 C   0  0  0  0  0  0
    6.7395  -11.8128   21.1207 C   0  0  0  0  0  0
    7.6488  -11.1415   21.9333 C   0  0  0  0  0  0
    5.5806  -11.1766   20.6848 C   0  0  0  0  0  0
    3.8077   -1.3073   18.6674 C   0  0  0  0  0  0
    7.7711   -1.1897   24.7883 H   0  0  0  0  0  0
    7.8152   -7.5501   23.0154 H   0  0  0  0  0  0
    5.7876   -4.9254   21.4452 H   0  0  0  0  0  0
    6.2892   -0.0518   23.1891 H   0  0  0  0  0  0
    8.4311   -5.9783   24.6864 H   0  0  0  0  0  0
    3.9293   -3.5104   21.2330 H   0  0  0  0  0  0
    6.3720   -0.0493   20.4830 H   0  0  0  0  0  0
    8.1341   -9.3351   22.9315 H   0  0  0  0  0  0
    4.4434   -9.3772   20.6682 H   0  0  0  0  0  0
    2.6738   -3.0610   19.1583 H   0  0  0  0  0  0
    5.1370    0.3739   18.4113 H   0  0  0  0  0  0
    8.5405  -11.6452   22.2810 H   0  0  0  0  0  0
    4.8745  -11.7067   20.0661 H   0  0  0  0  0  0
    3.2536   -1.1222   17.7584 H   0  0  0  0  0  0
  1 22  1  0  0  0
  2 14  2  0  0  0
  3  8  1  0  0  0
  3 12  1  0  0  0
  3 26  1  0  0  0
  4  8  2  0  0  0
  4 13  1  0  0  0
  5 10  1  0  0  0
  5 14  1  0  0  0
  5 27  1  0  0  0
  6  7  1  0  0  0
  6  8  1  0  0  0
  6  9  2  0  0  0
  7 11  1  0  0  0
  7 12  2  0  0  0
  9 10  1  0  0  0
  9 28  1  0  0  0
 10 13  2  0  0  0
 11 16  2  0  0  0
 11 17  1  0  0  0
 12 29  1  0  0  0
 13 30  1  0  0  0
 14 15  1  0  0  0
 15 18  2  0  0  0
 15 19  1  0  0  0
 16 20  1  0  0  0
 16 31  1  0  0  0
 17 21  2  0  0  0
 17 32  1  0  0  0
 18 23  1  0  0  0
 18 33  1  0  0  0
 19 24  2  0  0  0
 19 34  1  0  0  0
 20 25  2  0  0  0
 20 35  1  0  0  0
 21 25  1  0  0  0
 21 36  1  0  0  0
 22 23  2  0  0  0
 22 24  1  0  0  0
 23 37  1  0  0  0
 24 38  1  0  0  0
 25 39  1  0  0  0
M  END
> <s_m_entry_id>
5679

> <s_m_entry_name>
dock_pv.74

> <s_m_Source_Path>
/home/csk/Desktop/cluster/DUD-E-result/igf1r

> <s_m_Source_File>
dock_pv.maegz

> <i_m_Source_File_Index>
74

> <chembl_id>
CHEMBL1998829

> <chembl_pref_name>
None

> <i_lp_mmshare_version>
53161

> <r_lp_tautomer_probability>
0.999998432528457

> <s_lp_Force_Field>
OPLS_2005

> <r_lp_Energy>
23.095188

> <b_lp_Chiralities_Consistent>
1

> <s_lp_Variant>
CHEMBL1957_lig3138-1

> <s_i_glide_gridfile>
glide-grid_2oj9

> <i_i_glide_lignum>
4362

> <i_i_glide_rotatable_bonds>
4

> <r_i_docking_score>
-7.92255225107075

> <r_i_glide_ligand_efficiency>
-0.31690209004283

> <r_i_glide_ligand_efficiency_sa>
-0.926627331567733

> <r_i_glide_ligand_efficiency_ln>
-1.87788230323614

> <r_i_glide_gscore>
-7.92255225107075

> <r_i_glide_lipo>
-3.35638492826212

> <r_i_glide_hbond>
-0.1260102302489

> <r_i_glide_metal>
0

> <r_i_glide_rewards>
-2.63594721857874

> <r_i_glide_evdw>
-40.3525543212891

> <r_i_glide_ecoul>
-2.77216649055481

> <r_i_glide_erotb>
0.629242815666679

> <r_i_glide_esite>
0

> <r_i_glide_emodel>
-59.8093118311285

> <r_i_glide_energy>
-43.1247208118439

> <r_i_glide_einternal>
2.29752516746521

> <i_i_glide_confnum>
6

> <i_i_glide_posenum>
204

> <r_i_glide_eff_state_penalty>
0

> <s_user_duplicate_titles>
CHEMBL1957_lig3138

> <i_f3d_flags>
0

> <s_m_subgroup_title>
dock_pv

> <s_m_subgroupid>
dock_pv

> <b_m_subgroup_collapsed>
1

$$$$
CHEMBL1957_lig2891
                    3D
 Schrodinger Suite 2021-1.
 37 39  0  0  1  0            999 V2000
    8.9174   -4.3196   23.3934 O   0  0  0  0  0  0
    7.2365   -0.8545   25.4307 O   0  0  0  0  0  0
    3.1661   -3.1304   19.2576 N   0  0  0  0  0  0
    4.3034   -1.0198   19.5165 N   0  0  0  0  0  0
    6.0381   -1.0275   21.2207 N   0  0  0  0  0  0
    6.6222   -3.0038   22.4121 N   0  0  0  0  0  0
    4.8166   -3.0693   20.7954 C   0  0  0  0  0  0
    4.3050   -4.4313   20.7383 C   0  0  0  0  0  0
    4.0944   -2.3030   19.8319 C   0  0  0  0  0  0
    5.8220   -2.3475   21.4736 C   0  0  0  0  0  0
    4.7700   -5.6886   21.4379 C   0  0  0  0  0  0
    3.2528   -4.3780   19.8278 C   0  0  0  0  0  0
    5.3016   -0.4522   20.2376 C   0  0  0  0  0  0
    7.3965   -2.3609   23.4737 C   0  0  0  0  0  0
    5.2373   -5.7284   22.7564 C   0  0  0  0  0  0
    4.7757   -6.8765   20.6915 C   0  0  0  0  0  0
    5.6780   -6.9196   23.3256 C   0  0  0  0  0  0
    5.2366   -8.0682   21.2481 C   0  0  0  0  0  0
    8.2352   -3.4164   24.2480 C   0  0  0  0  0  0
    6.5006   -1.5118   24.4167 C   0  0  0  0  0  0
    5.6783   -8.0862   22.5685 C   0  0  0  0  0  0
    9.6951   -3.8661   23.0388 H   0  0  0  0  0  0
    8.0116   -0.4280   25.0391 H   0  0  0  0  0  0
    2.5149   -2.8978   18.5214 H   0  0  0  0  0  0
    6.5681   -4.0136   22.4451 H   0  0  0  0  0  0
    2.6000   -5.1655   19.4832 H   0  0  0  0  0  0
    5.5433    0.5768   20.0031 H   0  0  0  0  0  0
    8.0907   -1.6841   22.9742 H   0  0  0  0  0  0
    5.2387   -4.8534   23.3775 H   0  0  0  0  0  0
    4.4419   -6.8795   19.6641 H   0  0  0  0  0  0
    6.0186   -6.9370   24.3513 H   0  0  0  0  0  0
    5.2392   -8.9761   20.6643 H   0  0  0  0  0  0
    7.6013   -4.0035   24.9131 H   0  0  0  0  0  0
    8.9853   -2.9246   24.8696 H   0  0  0  0  0  0
    5.9699   -0.7379   23.8615 H   0  0  0  0  0  0
    5.7461   -2.1360   24.8973 H   0  0  0  0  0  0
    6.0184   -9.0118   23.0112 H   0  0  0  0  0  0
  1 19  1  0  0  0
  1 22  1  0  0  0
  2 20  1  0  0  0
  2 23  1  0  0  0
  3  9  1  0  0  0
  3 12  1  0  0  0
  3 24  1  0  0  0
  4  9  1  0  0  0
  4 13  2  0  0  0
  5 10  2  0  0  0
  5 13  1  0  0  0
  6 10  1  0  0  0
  6 14  1  0  0  0
  6 25  1  0  0  0
  7  8  1  0  0  0
  7  9  2  0  0  0
  7 10  1  0  0  0
  8 11  1  0  0  0
  8 12  2  0  0  0
 11 15  2  0  0  0
 11 16  1  0  0  0
 12 26  1  0  0  0
 13 27  1  0  0  0
 14 19  1  0  0  0
 14 20  1  0  0  0
 14 28  1  0  0  0
 15 17  1  0  0  0
 15 29  1  0  0  0
 16 18  2  0  0  0
 16 30  1  0  0  0
 17 21  2  0  0  0
 17 31  1  0  0  0
 18 21  1  0  0  0
 18 32  1  0  0  0
 19 33  1  0  0  0
 19 34  1  0  0  0
 20 35  1  0  0  0
 20 36  1  0  0  0
 21 37  1  0  0  0
M  END
> <s_m_entry_id>
5680

> <s_m_entry_name>
dock_pv.75

> <s_m_Source_Path>
/home/csk/Desktop/cluster/DUD-E-result/igf1r

> <s_m_Source_File>
dock_pv.maegz

> <i_m_Source_File_Index>
75

> <chembl_id>
CHEMBL1992922

> <chembl_pref_name>
None

> <i_lp_mmshare_version>
53161

> <r_lp_tautomer_probability>
1

> <s_lp_Force_Field>
OPLS_2005

> <r_lp_Energy>
17.383772

> <b_lp_Chiralities_Consistent>
1

> <s_lp_Variant>
CHEMBL1957_lig2891-1

> <s_i_glide_gridfile>
glide-grid_2oj9

> <i_i_glide_lignum>
3999

> <i_i_glide_rotatable_bonds>
7

> <r_i_docking_score>
-7.91878844873243

> <r_i_glide_ligand_efficiency>
-0.377085164225354

> <r_i_glide_ligand_efficiency_sa>
-1.04034937508018

> <r_i_glide_ligand_efficiency_ln>
-1.95790444253036

> <r_i_glide_gscore>
-7.91878844873243

> <r_i_glide_lipo>
-2.84416574432815

> <r_i_glide_hbond>
-0.864

> <r_i_glide_metal>
0

> <r_i_glide_rewards>
-2.11109325697495

> <r_i_glide_evdw>
-29.5367183685303

> <r_i_glide_ecoul>
-11.6254549026489

> <r_i_glide_erotb>
1.12112470639453

> <r_i_glide_esite>
0

> <r_i_glide_emodel>
-57.166823372096

> <r_i_glide_energy>
-41.1621732711792

> <r_i_glide_einternal>
6.16030168533325

> <i_i_glide_confnum>
109

> <i_i_glide_posenum>
276

> <r_i_glide_eff_state_penalty>
0

> <s_user_duplicate_titles>
CHEMBL1957_lig2891

> <i_f3d_flags>
0

> <s_m_subgroup_title>
dock_pv

> <s_m_subgroupid>
dock_pv

> <b_m_subgroup_collapsed>
1

$$$$
CHEMBL1957_lig1045
                    3D
 Schrodinger Suite 2021-1.
 43 47  0  0  1  0            999 V2000
    5.2384   -9.9601   20.9679 C   0  0  0  0  0  0
    4.6807   -8.7341   20.2377 C   0  0  0  0  0  0
    6.3289   -9.4339   21.9058 C   0  0  0  0  0  0
    6.2476   -5.7875   22.7664 C   0  0  0  0  0  0
    4.0123   -3.2856   20.0748 C   0  0  0  0  0  0
    4.6139   -6.2306   21.1482 C   0  0  0  0  0  0
    6.6187   -7.0953   22.8704 N   0  0  0  0  0  0
    3.7073   -2.3941   19.0644 C   0  0  0  0  0  0
    4.9869   -7.5829   21.1636 C   0  0  0  0  0  0
    3.6380   -5.7875   20.2375 N   0  0  0  0  0  0
    5.9841   -7.9687   22.0545 C   0  0  0  0  0  0
    3.5000   -4.5362   19.6836 C   0  0  0  0  0  0
    2.9821   -3.1538   18.1874 N   0  0  0  0  0  0
    2.8503   -4.4316   18.5478 N   0  0  0  0  0  0
    5.2444   -5.3331   21.9583 N   0  0  0  0  0  0
    7.0828   -4.7691   23.4942 C   0  0  0  0  0  0
    8.1657   -5.1665   24.2970 C   0  0  0  0  0  0
    8.9723   -4.2296   24.9338 C   0  0  0  0  0  0
    8.7105   -2.8743   24.7747 C   0  0  0  0  0  0
    7.6396   -2.4511   23.9973 C   0  0  0  0  0  0
    6.8342   -3.3919   23.3646 C   0  0  0  0  0  0
    4.0222   -0.9393   18.8006 C   0  0  0  0  0  0
    4.7119   -0.0826   19.8378 C   0  0  0  0  0  0
    5.4359   -0.4539   18.5722 C   0  0  0  0  0  0
    5.6125  -10.7193   20.2786 H   0  0  0  0  0  0
    4.4451  -10.4325   21.5502 H   0  0  0  0  0  0
    3.6361   -8.8262   19.9710 H   0  0  0  0  0  0
    5.2191   -8.5946   19.2987 H   0  0  0  0  0  0
    7.3139   -9.5561   21.4559 H   0  0  0  0  0  0
    6.3237   -9.9731   22.8542 H   0  0  0  0  0  0
    4.5909   -3.0660   20.9554 H   0  0  0  0  0  0
    3.2135   -6.5602   19.7504 H   0  0  0  0  0  0
    2.5889   -2.8165   17.3163 H   0  0  0  0  0  0
    8.4020   -6.2111   24.4389 H   0  0  0  0  0  0
    9.7907   -4.5590   25.5525 H   0  0  0  0  0  0
    9.3378   -2.1478   25.2685 H   0  0  0  0  0  0
    7.4433   -1.3954   23.8786 H   0  0  0  0  0  0
    6.0180   -3.0375   22.7576 H   0  0  0  0  0  0
    3.2459   -0.4546   18.2073 H   0  0  0  0  0  0
    5.0495   -0.5372   20.7665 H   0  0  0  0  0  0
    4.3820    0.9487   19.9612 H   0  0  0  0  0  0
    5.6230    0.3183   17.8244 H   0  0  0  0  0  0
    6.2710   -1.1435   18.6642 H   0  0  0  0  0  0
  1  3  1  0  0  0
  1  2  1  0  0  0
  1 25  1  0  0  0
  1 26  1  0  0  0
  2  9  1  0  0  0
  2 27  1  0  0  0
  2 28  1  0  0  0
  3 11  1  0  0  0
  3 29  1  0  0  0
  3 30  1  0  0  0
  4  7  1  0  0  0
  4 15  2  0  0  0
  4 16  1  0  0  0
  5  8  2  0  0  0
  5 12  1  0  0  0
  5 31  1  0  0  0
  6  9  2  0  0  0
  6 10  1  0  0  0
  6 15  1  0  0  0
  7 11  2  0  0  0
  8 13  1  0  0  0
  8 22  1  0  0  0
  9 11  1  0  0  0
 10 12  1  0  0  0
 10 32  1  0  0  0
 12 14  2  0  0  0
 13 14  1  0  0  0
 13 33  1  0  0  0
 16 17  2  0  0  0
 16 21  1  0  0  0
 17 18  1  0  0  0
 17 34  1  0  0  0
 18 19  2  0  0  0
 18 35  1  0  0  0
 19 20  1  0  0  0
 19 36  1  0  0  0
 20 21  2  0  0  0
 20 37  1  0  0  0
 21 38  1  0  0  0
 22 23  1  0  0  0
 22 24  1  0  0  0
 22 39  1  0  0  0
 23 24  1  0  0  0
 23 40  1  0  0  0
 23 41  1  0  0  0
 24 42  1  0  0  0
 24 43  1  0  0  0
M  END
> <s_m_entry_id>
5681

> <s_m_entry_name>
dock_pv.76

> <s_m_Source_Path>
/home/csk/Desktop/cluster/DUD-E-result/igf1r

> <s_m_Source_File>
dock_pv.maegz

> <i_m_Source_File_Index>
76

> <chembl_id>
CHEMBL3409728

> <chembl_pref_name>
None

> <i_lp_mmshare_version>
53161

> <r_lp_tautomer_probability>
0.842599703243816

> <s_lp_Force_Field>
OPLS_2005

> <r_lp_Energy>
27.351038

> <b_lp_Chiralities_Consistent>
1

> <s_lp_Variant>
CHEMBL1957_lig1045-1

> <s_i_glide_gridfile>
glide-grid_2oj9

> <i_i_glide_lignum>
1337

> <i_i_glide_rotatable_bonds>
4

> <r_i_docking_score>
-7.90601588202652

> <r_i_glide_ligand_efficiency>
-0.329417328417772

> <r_i_glide_ligand_efficiency_sa>
-0.950203999718092

> <r_i_glide_ligand_efficiency_ln>
-1.89227238399849

> <r_i_glide_gscore>
-7.90601588202652

> <r_i_glide_lipo>
-3.60794038559413

> <r_i_glide_hbond>
-0.312170153023403

> <r_i_glide_metal>
0

> <r_i_glide_rewards>
-2.40010563847538

> <r_i_glide_evdw>
-36.0802192687988

> <r_i_glide_ecoul>
-3.47705507278442

> <r_i_glide_erotb>
0.739769519423992

> <r_i_glide_esite>
0

> <r_i_glide_emodel>
-55.2786665254277

> <r_i_glide_energy>
-39.5572743415833

> <r_i_glide_einternal>
2.11879229545593

> <i_i_glide_confnum>
5

> <i_i_glide_posenum>
36

> <r_i_glide_eff_state_penalty>
0

> <s_user_duplicate_titles>
CHEMBL1957_lig1045

> <i_f3d_flags>
0

> <s_m_subgroup_title>
dock_pv

> <s_m_subgroupid>
dock_pv

> <b_m_subgroup_collapsed>
1

$$$$
CHEMBL1957_lig3189
                    3D
 Schrodinger Suite 2021-1.
 32 34  0  0  1  0            999 V2000
    2.8381   -5.3943   18.7723 O   0  0  0  0  0  0
    3.1756   -3.1495   18.5348 N   0  0  0  0  0  0
    6.4503   -4.3148   22.4220 N   0  0  0  0  0  0
    4.1400   -4.0766   20.3356 C   0  0  0  0  0  0
    4.5080   -2.6513   20.2704 C   0  0  0  0  0  0
    3.9121   -2.1544   19.1287 C   0  0  0  0  0  0
    3.2888   -4.3223   19.1752 C   0  0  0  0  0  0
    5.4461   -5.2273   22.2383 C   0  0  0  0  0  0
    4.5010   -5.1236   21.1265 C   0  0  0  0  0  0
    5.6267   -6.2042   23.2213 C   0  0  0  0  0  0
    5.3161   -1.7994   21.0383 C   0  0  0  0  0  0
    4.1436   -0.8554   18.6858 C   0  0  0  0  0  0
    7.1729   -4.5728   23.5526 C   0  0  0  0  0  0
    6.6588   -5.7501   24.0546 C   0  0  0  0  0  0
    5.6012   -0.5099   20.5868 C   0  0  0  0  0  0
    5.0164   -0.0430   19.4103 C   0  0  0  0  0  0
    4.8380   -7.4697   23.4033 C   0  0  0  0  0  0
    8.2705   -3.6567   24.0260 C   0  0  0  0  0  0
    2.6770   -3.0537   17.6605 H   0  0  0  0  0  0
    6.6161   -3.5296   21.8108 H   0  0  0  0  0  0
    4.0418   -6.0851   20.9335 H   0  0  0  0  0  0
    5.7500   -2.0828   21.9782 H   0  0  0  0  0  0
    3.6887   -0.4832   17.7809 H   0  0  0  0  0  0
    7.0116   -6.2513   24.9451 H   0  0  0  0  0  0
    6.2598    0.1319   21.1532 H   0  0  0  0  0  0
    5.2380    0.9559   19.0598 H   0  0  0  0  0  0
    5.0002   -8.1634   22.5781 H   0  0  0  0  0  0
    5.0655   -7.9838   24.3363 H   0  0  0  0  0  0
    3.7700   -7.2541   23.4046 H   0  0  0  0  0  0
    8.9790   -4.1720   24.6752 H   0  0  0  0  0  0
    7.8773   -2.8068   24.5832 H   0  0  0  0  0  0
    8.8379   -3.2546   23.1886 H   0  0  0  0  0  0
  1  7  2  0  0  0
  2  6  1  0  0  0
  2  7  1  0  0  0
  2 19  1  0  0  0
  3  8  1  0  0  0
  3 13  1  0  0  0
  3 20  1  0  0  0
  4  5  1  0  0  0
  4  7  1  0  0  0
  4  9  2  3  0  0
  5  6  1  0  0  0
  5 11  2  0  0  0
  6 12  2  0  0  0
  8  9  1  0  0  0
  8 10  2  0  0  0
  9 21  1  0  0  0
 10 14  1  0  0  0
 10 17  1  0  0  0
 11 15  1  0  0  0
 11 22  1  0  0  0
 12 16  1  0  0  0
 12 23  1  0  0  0
 13 14  2  0  0  0
 13 18  1  0  0  0
 14 24  1  0  0  0
 15 16  2  0  0  0
 15 25  1  0  0  0
 16 26  1  0  0  0
 17 27  1  0  0  0
 17 28  1  0  0  0
 17 29  1  0  0  0
 18 30  1  0  0  0
 18 31  1  0  0  0
 18 32  1  0  0  0
M  END
> <s_m_entry_id>
5682

> <s_m_entry_name>
dock_pv.77

> <s_m_Source_Path>
/home/csk/Desktop/cluster/DUD-E-result/igf1r

> <s_m_Source_File>
dock_pv.maegz

> <i_m_Source_File_Index>
77

> <chembl_id>
CHEMBL2002702

> <chembl_pref_name>
None

> <i_lp_mmshare_version>
53161

> <r_lp_tautomer_probability>
1

> <s_lp_Force_Field>
OPLS_2005

> <r_lp_Energy>
28.364775

> <b_lp_Chiralities_Consistent>
1

> <s_lp_Variant>
CHEMBL1957_lig3189-1

> <s_i_glide_gridfile>
glide-grid_2oj9

> <i_i_glide_lignum>
4434

> <i_i_glide_rotatable_bonds>
1

> <r_i_docking_score>
-7.89327472053437

> <r_i_glide_ligand_efficiency>
-0.438515262251909

> <r_i_glide_ligand_efficiency_sa>
-1.14923509866871

> <r_i_glide_ligand_efficiency_ln>
-2.02892556592147

> <r_i_glide_gscore>
-7.89327472053437

> <r_i_glide_lipo>
-2.33999724618602

> <r_i_glide_hbond>
-0.122992212477304

> <r_i_glide_metal>
0

> <r_i_glide_rewards>
-3.72684568044326

> <r_i_glide_evdw>
-29.8801555633545

> <r_i_glide_ecoul>
-3.4224808216095

> <r_i_glide_erotb>
0.303940319981362

> <r_i_glide_esite>
0

> <r_i_glide_emodel>
-47.3929629555449

> <r_i_glide_energy>
-33.302636384964

> <r_i_glide_einternal>
0.202591270208359

> <i_i_glide_confnum>
1

> <i_i_glide_posenum>
298

> <r_i_glide_eff_state_penalty>
0

> <s_user_duplicate_titles>
CHEMBL1957_lig3189

> <i_f3d_flags>
0

> <s_m_subgroup_title>
dock_pv

> <s_m_subgroupid>
dock_pv

> <b_m_subgroup_collapsed>
1

$$$$
CHEMBL1957_lig1733
                    3D
 Schrodinger Suite 2021-1.
 51 53  0  0  1  0            999 V2000
    3.9818   -6.8540   19.5203 N   0  0  0  0  0  0
    5.0121   -7.0443   21.7697 C   0  0  0  0  0  0
    5.6077   -7.9311   22.6789 C   0  0  0  0  0  0
    5.7569   -9.2454   22.3874 N   0  0  0  0  0  0
    5.3437   -9.6677   21.1655 C   0  0  0  0  0  0
    4.7736   -8.8762   20.2355 N   0  0  0  0  0  0
    4.5971   -7.5723   20.5449 C   0  0  0  0  0  0
    5.4915  -11.0077   20.7836 N   0  0  0  0  0  0
    6.0705  -12.0225   21.6631 C   0  0  0  0  0  0
    7.4917  -11.7056   22.0728 C   0  0  0  0  0  0
    8.0931  -11.3705   23.2635 C   0  0  0  0  0  0
    9.4111  -11.0724   22.9364 C   0  0  0  0  0  0
    9.6379  -11.2595   21.6537 N   0  0  0  0  0  0
    8.4267  -11.6628   21.0917 O   0  0  0  0  0  0
    3.5590   -5.5577   19.3860 C   0  0  0  0  0  0
    3.6390   -4.4259   20.2147 C   0  0  0  0  0  0
    3.2379   -3.3437   19.4564 C   0  0  0  0  0  0
    2.8652   -3.9026   18.2652 N   0  0  0  0  0  0
    3.0254   -5.2281   18.2380 N   0  0  0  0  0  0
    6.0732   -7.6113   23.9370 O   0  0  0  0  0  0
    6.1551   -6.2535   24.3693 C   0  0  0  0  0  0
    7.5805   -5.6952   24.1600 C   0  0  0  0  0  0
    7.8978   -5.3906   22.7589 N   0  0  0  0  0  0
    7.2617   -4.1509   22.3142 C   0  0  0  0  0  0
    9.3455   -5.2619   22.5918 C   0  0  0  0  0  0
   10.5140  -10.5812   23.8380 C   0  0  0  0  0  0
    3.1398   -1.8742   19.7519 C   0  0  0  0  0  0
    3.9208   -7.4513   18.7048 H   0  0  0  0  0  0
    4.8856   -6.0096   22.0013 H   0  0  0  0  0  0
    5.0813  -11.2938   19.9046 H   0  0  0  0  0  0
    5.4322  -12.1248   22.5423 H   0  0  0  0  0  0
    6.0394  -12.9820   21.1468 H   0  0  0  0  0  0
    7.6192  -11.2900   24.2301 H   0  0  0  0  0  0
    4.0425   -4.3472   21.2053 H   0  0  0  0  0  0
    2.4791   -3.3924   17.4791 H   0  0  0  0  0  0
    5.9679   -6.2803   25.4389 H   0  0  0  0  0  0
    5.3737   -5.6031   23.9846 H   0  0  0  0  0  0
    8.2786   -6.4477   24.5324 H   0  0  0  0  0  0
    7.7353   -4.8146   24.7864 H   0  0  0  0  0  0
    6.1778   -4.1969   22.4083 H   0  0  0  0  0  0
    7.4832   -3.9634   21.2625 H   0  0  0  0  0  0
    7.6098   -3.2905   22.8890 H   0  0  0  0  0  0
    9.8531   -6.1873   22.8683 H   0  0  0  0  0  0
    9.6011   -5.0573   21.5516 H   0  0  0  0  0  0
    9.7577   -4.4571   23.2028 H   0  0  0  0  0  0
   10.8889   -9.6091   23.5152 H   0  0  0  0  0  0
   10.1798  -10.4690   24.8688 H   0  0  0  0  0  0
   11.3602  -11.2666   23.8460 H   0  0  0  0  0  0
    3.9244   -1.5563   20.4372 H   0  0  0  0  0  0
    3.2310   -1.2602   18.8554 H   0  0  0  0  0  0
    2.1830   -1.6537   20.2233 H   0  0  0  0  0  0
  1 15  1  0  0  0
  1  7  1  0  0  0
  1 28  1  0  0  0
  2  3  2  0  0  0
  2  7  1  0  0  0
  2 29  1  0  0  0
  3  4  1  0  0  0
  3 20  1  0  0  0
  4  5  2  0  0  0
  5  6  1  0  0  0
  5  8  1  0  0  0
  6  7  2  0  0  0
  8  9  1  0  0  0
  8 30  1  0  0  0
  9 10  1  0  0  0
  9 31  1  0  0  0
  9 32  1  0  0  0
 10 11  2  0  0  0
 10 14  1  0  0  0
 11 12  1  0  0  0
 11 33  1  0  0  0
 12 13  2  0  0  0
 12 26  1  0  0  0
 13 14  1  0  0  0
 15 19  2  0  0  0
 15 16  1  0  0  0
 16 17  2  0  0  0
 16 34  1  0  0  0
 17 27  1  0  0  0
 17 18  1  0  0  0
 18 35  1  0  0  0
 18 19  1  0  0  0
 20 21  1  0  0  0
 21 22  1  0  0  0
 21 36  1  0  0  0
 21 37  1  0  0  0
 22 23  1  0  0  0
 22 38  1  0  0  0
 22 39  1  0  0  0
 23 24  1  0  0  0
 23 25  1  0  0  0
 24 40  1  0  0  0
 24 41  1  0  0  0
 24 42  1  0  0  0
 25 43  1  0  0  0
 25 44  1  0  0  0
 25 45  1  0  0  0
 26 46  1  0  0  0
 26 47  1  0  0  0
 26 48  1  0  0  0
 27 49  1  0  0  0
 27 50  1  0  0  0
 27 51  1  0  0  0
M  END
> <s_m_entry_id>
5683

> <s_m_entry_name>
dock_pv.78

> <s_m_Source_Path>
/home/csk/Desktop/cluster/DUD-E-result/igf1r

> <s_m_Source_File>
dock_pv.maegz

> <i_m_Source_File_Index>
78

> <chembl_id>
CHEMBL3892431

> <chembl_pref_name>
None

> <i_lp_mmshare_version>
53161

> <r_lp_tautomer_probability>
0.842599996478849

> <s_lp_Force_Field>
OPLS_2005

> <r_lp_Energy>
0.088973

> <b_lp_Chiralities_Consistent>
1

> <s_lp_Variant>
CHEMBL1957_lig1733-1

> <s_i_glide_gridfile>
glide-grid_2oj9

> <i_i_glide_lignum>
2614

> <i_i_glide_rotatable_bonds>
9

> <r_i_docking_score>
-7.88331102830125

> <r_i_glide_ligand_efficiency>
-0.291974482529676

> <r_i_glide_ligand_efficiency_sa>
-0.875923446626727

> <r_i_glide_ligand_efficiency_ln>
-1.83510484084879

> <r_i_glide_gscore>
-7.88331102830125

> <r_i_glide_lipo>
-2.34343199090873

> <r_i_glide_hbond>
-0.928686097250474

> <r_i_glide_metal>
0

> <r_i_glide_rewards>
-2.27597172109736

> <r_i_glide_evdw>
-36.9104804992676

> <r_i_glide_ecoul>
-8.46330833435059

> <r_i_glide_erotb>
0.779799056071282

> <r_i_glide_esite>
0

> <r_i_glide_emodel>
-61.4846925242977

> <r_i_glide_energy>
-45.3737888336182

> <r_i_glide_einternal>
6.04297733306885

> <i_i_glide_confnum>
4

> <i_i_glide_posenum>
227

> <r_i_glide_eff_state_penalty>
0

> <s_user_duplicate_titles>
CHEMBL1957_lig1733

> <i_f3d_flags>
0

> <s_m_subgroup_title>
dock_pv

> <s_m_subgroupid>
dock_pv

> <b_m_subgroup_collapsed>
1

$$$$
CHEMBL1957_lig1059
                    3D
 Schrodinger Suite 2021-1.
 52 56  0  0  1  0            999 V2000
    6.3873  -11.4884   22.0869 C   0  0  0  0  0  0
    5.3419  -10.4611   21.6323 C   0  0  0  0  0  0
    7.3973  -10.7486   22.9714 C   0  0  0  0  0  0
    7.6567   -7.0369   22.4837 C   0  0  0  0  0  0
    4.0378   -5.1208   20.6381 C   0  0  0  0  0  0
    5.6829   -7.8220   21.5216 C   0  0  0  0  0  0
    8.0437   -8.2826   22.8842 N   0  0  0  0  0  0
    3.4223   -4.4166   19.5875 C   0  0  0  0  0  0
    6.0376   -9.1320   21.8528 C   0  0  0  0  0  0
    4.4875   -7.6182   20.8255 N   0  0  0  0  0  0
    8.5519   -5.9865   22.6911 N   0  0  0  0  0  0
    7.2140   -9.3058   22.5707 C   0  0  0  0  0  0
    4.0380   -6.4536   20.2717 C   0  0  0  0  0  0
    3.1224   -5.2343   18.6034 N   0  0  0  0  0  0
    3.4678   -6.4474   19.0380 N   0  0  0  0  0  0
    3.1244   -2.9383   19.4469 C   0  0  0  0  0  0
    6.4942   -6.7674   21.8228 N   0  0  0  0  0  0
    2.8385   -2.1239   20.6824 C   0  0  0  0  0  0
    4.1214   -1.9018   19.9095 C   0  0  0  0  0  0
    9.7877   -6.1024   23.4807 C   0  0  0  0  0  0
    9.5323   -5.6004   24.9104 C   0  0  0  0  0  0
    9.1051   -4.1226   24.9045 C   0  0  0  0  0  0
    7.9695   -3.8484   23.8785 C   0  0  2  0  0  0
    8.2654   -4.5509   22.5216 C   0  0  0  0  0  0
    7.6405   -2.3526   23.6783 C   0  0  0  0  0  0
    7.4876   -1.6540   24.8982 O   0  0  0  0  0  0
    6.9019  -11.8871   21.2105 H   0  0  0  0  0  0
    5.9342  -12.3391   22.5986 H   0  0  0  0  0  0
    4.4393  -10.5478   22.2377 H   0  0  0  0  0  0
    5.0657  -10.6341   20.5908 H   0  0  0  0  0  0
    8.4116  -11.1144   22.8069 H   0  0  0  0  0  0
    7.1595  -10.8875   24.0270 H   0  0  0  0  0  0
    4.4388   -4.7076   21.5502 H   0  0  0  0  0  0
    4.0326   -8.4903   20.6062 H   0  0  0  0  0  0
    3.4294   -7.2605   18.4372 H   0  0  0  0  0  0
    2.5502   -2.6846   18.5529 H   0  0  0  0  0  0
    2.0380   -1.3887   20.6379 H   0  0  0  0  0  0
    2.8897   -2.6135   21.6543 H   0  0  0  0  0  0
    5.0687   -2.2433   20.3291 H   0  0  0  0  0  0
    4.2380   -0.9979   19.3108 H   0  0  0  0  0  0
   10.5553   -5.4807   23.0174 H   0  0  0  0  0  0
   10.1951   -7.1138   23.4727 H   0  0  0  0  0  0
   10.4377   -5.7186   25.4974 H   0  0  0  0  0  0
    8.7790   -6.2220   25.3961 H   0  0  0  0  0  0
    9.9819   -3.5332   24.6382 H   0  0  0  0  0  0
    8.8420   -3.7790   25.9026 H   0  0  0  0  0  0
    7.1031   -4.3627   24.2998 H   0  0  0  0  0  0
    7.4329   -4.4075   21.8317 H   0  0  0  0  0  0
    9.1027   -4.0582   22.0232 H   0  0  0  0  0  0
    6.7255   -2.2435   23.0946 H   0  0  0  0  0  0
    8.4352   -1.8663   23.1116 H   0  0  0  0  0  0
    8.2784   -1.1108   25.0351 H   0  0  0  0  0  0
  1  3  1  0  0  0
  1  2  1  0  0  0
  1 27  1  0  0  0
  1 28  1  0  0  0
  2  9  1  0  0  0
  2 29  1  0  0  0
  2 30  1  0  0  0
  3 12  1  0  0  0
  3 31  1  0  0  0
  3 32  1  0  0  0
  4  7  1  0  0  0
  4 11  1  0  0  0
  4 17  2  0  0  0
  5 13  2  0  0  0
  5  8  1  0  0  0
  5 33  1  0  0  0
  6  9  2  0  0  0
  6 17  1  0  0  0
  6 10  1  0  0  0
  7 12  2  0  0  0
  8 16  1  0  0  0
  8 14  2  0  0  0
  9 12  1  0  0  0
 10 13  1  0  0  0
 10 34  1  0  0  0
 11 20  1  0  0  0
 11 24  1  0  0  0
 13 15  1  0  0  0
 14 15  1  0  0  0
 15 35  1  0  0  0
 16 18  1  0  0  0
 16 19  1  0  0  0
 16 36  1  0  0  0
 18 19  1  0  0  0
 18 37  1  0  0  0
 18 38  1  0  0  0
 19 39  1  0  0  0
 19 40  1  0  0  0
 20 21  1  0  0  0
 20 41  1  0  0  0
 20 42  1  0  0  0
 21 22  1  0  0  0
 21 43  1  0  0  0
 21 44  1  0  0  0
 22 23  1  0  0  0
 22 45  1  0  0  0
 22 46  1  0  0  0
 23 24  1  0  0  0
 23 25  1  0  0  0
 23 47  1  0  0  0
 24 48  1  0  0  0
 24 49  1  0  0  0
 25 26  1  0  0  0
 25 50  1  0  0  0
 25 51  1  0  0  0
 26 52  1  0  0  0
M  END
> <s_m_entry_id>
5684

> <s_m_entry_name>
dock_pv.79

> <s_m_Source_Path>
/home/csk/Desktop/cluster/DUD-E-result/igf1r

> <s_m_Source_File>
dock_pv.maegz

> <i_m_Source_File_Index>
79

> <chembl_id>
CHEMBL3409714

> <chembl_pref_name>
None

> <i_lp_mmshare_version>
53161

> <r_lp_tautomer_probability>
0.157399996678074

> <s_lp_Force_Field>
OPLS_2005

> <r_lp_Energy>
31.450102

> <b_lp_Chiralities_Consistent>
1

> <s_lp_Variant>
CHEMBL1957_lig1059-3

> <s_i_glide_gridfile>
glide-grid_2oj9

> <i_i_glide_lignum>
1371

> <i_i_glide_rotatable_bonds>
6

> <r_i_docking_score>
-7.88326283249005

> <r_i_glide_ligand_efficiency>
-0.303202416634233

> <r_i_glide_ligand_efficiency_sa>
-0.898235966235014

> <r_i_glide_ligand_efficiency_ln>
-1.85135840911512

> <r_i_glide_gscore>
-7.88326283249005

> <r_i_glide_lipo>
-2.95344095868011

> <r_i_glide_hbond>
-0.544460094448272

> <r_i_glide_metal>
0

> <r_i_glide_rewards>
-2.1261058754068

> <r_i_glide_evdw>
-33.041332244873

> <r_i_glide_ecoul>
-9.09149837493896

> <r_i_glide_erotb>
0.760495134132337

> <r_i_glide_esite>
-0.00395966960270059

> <r_i_glide_emodel>
-59.5289961386764

> <r_i_glide_energy>
-42.132830619812

> <r_i_glide_einternal>
4.07013988494873

> <i_i_glide_confnum>
79

> <i_i_glide_posenum>
97

> <r_i_glide_eff_state_penalty>
0

> <s_user_duplicate_titles>
CHEMBL1957_lig1059,CHEMBL1957_lig1059

> <i_f3d_flags>
0

> <s_m_subgroup_title>
dock_pv

> <s_m_subgroupid>
dock_pv

> <b_m_subgroup_collapsed>
1

$$$$
CHEMBL1957_lig2666 
                    3D
 Schrodinger Suite 2021-1.
 46 49  0  0  1  0            999 V2000
    6.5709   -3.5655   22.2889 C   0  0  0  0  0  0
    7.4106   -3.8227   23.3652 N   0  0  0  0  0  0
    7.9251   -2.8700   24.2206 C   0  0  0  0  0  0
    7.3562   -1.6538   24.0477 N   0  0  0  0  0  0
    6.4385   -1.2589   23.1302 C   0  0  0  0  0  0
    6.0995   -2.2575   22.2321 N   0  0  0  0  0  0
    6.0380   -0.0951   23.1552 O   0  0  0  0  0  0
    6.3146   -4.4253   21.4381 O   0  0  0  0  0  0
    8.8376   -3.0049   25.0381 O   0  0  0  0  0  0
    5.2893   -1.8891   21.1037 C   0  0  0  0  0  0
    5.6647   -0.8210   20.2692 C   0  0  0  0  0  0
    4.9249   -0.5029   19.1365 C   0  0  0  0  0  0
    3.7983   -1.2552   18.8213 C   0  0  0  0  0  0
    3.3829   -2.2942   19.6498 C   0  0  0  0  0  0
    4.1198   -2.6053   20.7901 C   0  0  0  0  0  0
    7.6189   -5.1874   23.7250 C   0  0  0  0  0  0
    6.5261   -6.0190   24.0213 C   0  0  0  0  0  0
    6.7207   -7.3680   24.3003 C   0  0  0  0  0  0
    8.0069   -7.9111   24.3136 C   0  0  0  0  0  0
    9.1137   -7.0754   24.0984 C   0  0  0  0  0  0
    8.9139   -5.7285   23.7780 C   0  0  0  0  0  0
    8.1667   -9.2609   24.5282 O   0  0  0  0  0  0
    8.1098  -10.0787   23.4219 C   0  0  0  0  0  0
    9.2777  -10.6934   22.9640 C   0  0  0  0  0  0
    9.2433  -11.5026   21.8310 C   0  0  0  0  0  0
    8.0358  -11.7083   21.1665 C   0  0  0  0  0  0
    6.8607  -11.1180   21.6291 C   0  0  0  0  0  0
    6.8979  -10.3066   22.7601 C   0  0  0  0  0  0
   10.5297   -7.6101   24.2387 C   0  0  0  0  0  0
    7.7315   -0.9246   24.6374 H   0  0  0  0  0  0
    6.5454   -0.2355   20.4861 H   0  0  0  0  0  0
    5.2408    0.3104   18.4980 H   0  0  0  0  0  0
    3.2387   -1.0262   17.9268 H   0  0  0  0  0  0
    2.5009   -2.8649   19.3984 H   0  0  0  0  0  0
    3.7995   -3.4298   21.4091 H   0  0  0  0  0  0
    5.5180   -5.6312   24.0075 H   0  0  0  0  0  0
    5.8666   -7.9970   24.5014 H   0  0  0  0  0  0
    9.7689   -5.0967   23.5767 H   0  0  0  0  0  0
   10.2128  -10.5356   23.4806 H   0  0  0  0  0  0
   10.1496  -11.9684   21.4714 H   0  0  0  0  0  0
    8.0099  -12.3343   20.2864 H   0  0  0  0  0  0
    5.9261  -11.2891   21.1150 H   0  0  0  0  0  0
    5.9863   -9.8569   23.1220 H   0  0  0  0  0  0
   11.2750   -6.8133   24.2393 H   0  0  0  0  0  0
   10.6305   -8.1515   25.1796 H   0  0  0  0  0  0
   10.7648   -8.3056   23.4365 H   0  0  0  0  0  0
  1  2  1  0  0  0
  1  6  1  0  0  0
  1  8  2  0  0  0
  2  3  1  0  0  0
  2 16  1  0  0  0
  3  4  1  0  0  0
  3  9  2  0  0  0
  4  5  1  0  0  0
  4 30  1  0  0  0
  5  6  1  0  0  0
  5  7  2  0  0  0
  6 10  1  0  0  0
 10 11  2  0  0  0
 10 15  1  0  0  0
 11 12  1  0  0  0
 11 31  1  0  0  0
 12 13  2  0  0  0
 12 32  1  0  0  0
 13 14  1  0  0  0
 13 33  1  0  0  0
 14 15  2  0  0  0
 14 34  1  0  0  0
 15 35  1  0  0  0
 16 17  2  0  0  0
 16 21  1  0  0  0
 17 18  1  0  0  0
 17 36  1  0  0  0
 18 19  2  0  0  0
 18 37  1  0  0  0
 19 20  1  0  0  0
 19 22  1  0  0  0
 20 21  2  0  0  0
 20 29  1  0  0  0
 21 38  1  0  0  0
 22 23  1  0  0  0
 23 24  2  0  0  0
 23 28  1  0  0  0
 24 25  1  0  0  0
 24 39  1  0  0  0
 25 26  2  0  0  0
 25 40  1  0  0  0
 26 27  1  0  0  0
 26 41  1  0  0  0
 27 28  2  0  0  0
 27 42  1  0  0  0
 28 43  1  0  0  0
 29 44  1  0  0  0
 29 45  1  0  0  0
 29 46  1  0  0  0
M  END
> <s_m_entry_id>
5685

> <s_m_entry_name>
dock_pv.80

> <s_m_Source_Path>
/home/csk/Desktop/cluster/DUD-E-result/igf1r

> <s_m_Source_File>
dock_pv.maegz

> <i_m_Source_File_Index>
80

> <chembl_id>
CHEMBL4464037

> <chembl_pref_name>
None

> <i_lp_mmshare_version>
53161

> <r_lp_tautomer_probability>
0.99999999999891

> <s_lp_Force_Field>
OPLS_2005

> <r_lp_Energy>
52.839111

> <b_lp_Chiralities_Consistent>
1

> <s_lp_Variant>
CHEMBL1957_lig2666 -1

> <s_i_glide_gridfile>
glide-grid_2oj9

> <i_i_glide_lignum>
3691

> <i_i_glide_rotatable_bonds>
4

> <r_i_docking_score>
-7.87244903968095

> <r_i_glide_ligand_efficiency>
-0.271463759988998

> <r_i_glide_ligand_efficiency_sa>
-0.83402267644201

> <r_i_glide_ligand_efficiency_ln>
-1.80259120200367

> <r_i_glide_gscore>
-7.87244903968095

> <r_i_glide_lipo>
-2.42572724711675

> <r_i_glide_hbond>
-0.166327809535359

> <r_i_glide_metal>
0

> <r_i_glide_rewards>
-2.94596231192215

> <r_i_glide_evdw>
-47.082088470459

> <r_i_glide_ecoul>
-3.32914757728577

> <r_i_glide_erotb>
0.519044889009122

> <r_i_glide_esite>
0

> <r_i_glide_emodel>
-69.0969713740567

> <r_i_glide_energy>
-50.4112360477448

> <r_i_glide_einternal>
4.50056934356689

> <i_i_glide_confnum>
5

> <i_i_glide_posenum>
262

> <r_i_glide_eff_state_penalty>
0

> <s_user_duplicate_titles>
CHEMBL1957_lig2666 

> <i_f3d_flags>
0

> <s_m_subgroup_title>
dock_pv

> <s_m_subgroupid>
dock_pv

> <b_m_subgroup_collapsed>
1

$$$$
CHEMBL1957_lig1370
                    3D
 Schrodinger Suite 2021-1.
 49 52  0  0  1  0            999 V2000
    6.7133   -7.3135   22.5027 C   0  0  0  0  0  0
    5.7213   -7.9844   21.7436 C   0  0  0  0  0  0
    4.6797   -7.3025   21.1955 N   0  0  0  0  0  0
    4.6424   -5.9647   21.3612 C   0  0  0  0  0  0
    5.5366   -5.2532   22.0815 N   0  0  0  0  0  0
    6.5565   -5.9246   22.6808 C   0  0  0  0  0  0
    7.4777   -5.1977   23.4645 N   0  0  0  0  0  0
    3.6381   -5.3113   20.6380 N   0  0  0  0  0  0
    7.4360   -3.8752   23.8389 C   0  0  0  0  0  0
    6.4276   -2.9242   23.6906 C   0  0  0  0  0  0
    6.8323   -1.7287   24.2162 C   0  0  0  0  0  0
    8.0767   -2.0540   24.6642 N   0  0  0  0  0  0
    8.4468   -3.3254   24.4581 N   0  0  0  0  0  0
    6.1542   -0.3738   24.2914 C   0  0  0  0  0  0
    5.5108    0.0866   25.5826 C   0  0  0  0  0  0
    6.7209    0.8062   25.0380 C   0  0  0  0  0  0
    3.6178   -4.0217   20.0714 C   0  0  0  0  0  0
    3.2533   -3.8882   18.7285 C   0  0  0  0  0  0
    3.3289   -2.6549   18.0831 C   0  0  0  0  0  0
    3.7915   -1.5388   18.7697 C   0  0  0  0  0  0
    4.1372   -1.6540   20.1113 C   0  0  0  0  0  0
    4.0129   -2.8786   20.7645 C   0  0  0  0  0  0
    2.7675   -5.2674   17.8380 Cl  0  0  0  0  0  0
    5.7137   -9.4546   21.4380 C   0  0  0  0  0  0
    6.2756  -10.2048   22.4159 O   0  0  0  0  0  0
    5.2378   -9.9291   20.4020 O   0  0  0  0  0  0
    6.4379  -11.6138   22.2799 C   0  0  0  0  0  0
    7.6457  -11.9593   21.3930 C   0  0  0  0  0  0
    7.8951   -8.0064   23.0436 N   0  3  0  0  0  0
    8.0185   -8.0564   24.2625 O   0  5  0  0  0  0
    8.6926   -8.4756   22.2383 O   0  0  0  0  0  0
    8.2090   -5.7731   23.8568 H   0  0  0  0  0  0
    3.0709   -5.9698   20.1246 H   0  0  0  0  0  0
    5.4721   -3.0871   23.2579 H   0  0  0  0  0  0
    8.7296   -1.3707   25.0379 H   0  0  0  0  0  0
    5.6380   -0.1155   23.3680 H   0  0  0  0  0  0
    5.6232   -0.5158   26.4823 H   0  0  0  0  0  0
    4.5464    0.5921   25.5525 H   0  0  0  0  0  0
    6.6096    1.8003   24.6047 H   0  0  0  0  0  0
    7.6380    0.7098   25.6036 H   0  0  0  0  0  0
    3.0759   -2.5673   17.0380 H   0  0  0  0  0  0
    3.8863   -0.5906   18.2610 H   0  0  0  0  0  0
    4.5050   -0.7894   20.6380 H   0  0  0  0  0  0
    4.2155   -2.9408   21.8096 H   0  0  0  0  0  0
    6.5928  -12.0274   23.2767 H   0  0  0  0  0  0
    5.5259  -12.0733   21.8943 H   0  0  0  0  0  0
    7.8003  -13.0374   21.3525 H   0  0  0  0  0  0
    7.5037  -11.6081   20.3703 H   0  0  0  0  0  0
    8.5587  -11.5047   21.7791 H   0  0  0  0  0  0
  1  2  2  0  0  0
  1  6  1  0  0  0
  1 29  1  0  0  0
  2  3  1  0  0  0
  2 24  1  0  0  0
  3  4  2  0  0  0
  4  5  1  0  0  0
  4  8  1  0  0  0
  5  6  2  0  0  0
  6  7  1  0  0  0
  7  9  1  0  0  0
  7 32  1  0  0  0
  8 17  1  0  0  0
  8 33  1  0  0  0
  9 13  2  0  0  0
  9 10  1  0  0  0
 10 11  2  0  0  0
 10 34  1  0  0  0
 11 14  1  0  0  0
 11 12  1  0  0  0
 12 35  1  0  0  0
 12 13  1  0  0  0
 14 15  1  0  0  0
 14 16  1  0  0  0
 14 36  1  0  0  0
 15 16  1  0  0  0
 15 37  1  0  0  0
 15 38  1  0  0  0
 16 39  1  0  0  0
 16 40  1  0  0  0
 17 18  2  0  0  0
 17 22  1  0  0  0
 18 19  1  0  0  0
 18 23  1  0  0  0
 19 20  2  0  0  0
 19 41  1  0  0  0
 20 21  1  0  0  0
 20 42  1  0  0  0
 21 22  2  0  0  0
 21 43  1  0  0  0
 22 44  1  0  0  0
 24 25  1  0  0  0
 24 26  2  0  0  0
 25 27  1  0  0  0
 27 28  1  0  0  0
 27 45  1  0  0  0
 27 46  1  0  0  0
 28 47  1  0  0  0
 28 48  1  0  0  0
 28 49  1  0  0  0
 29 30  1  0  0  0
 29 31  2  0  0  0
M  CHG  2  29   1  30  -1
M  END
> <s_m_entry_id>
5686

> <s_m_entry_name>
dock_pv.81

> <s_m_Source_Path>
/home/csk/Desktop/cluster/DUD-E-result/igf1r

> <s_m_Source_File>
dock_pv.maegz

> <i_m_Source_File_Index>
81

> <chembl_id>
CHEMBL3980577

> <chembl_pref_name>
None

> <i_lp_mmshare_version>
53161

> <r_lp_tautomer_probability>
0.842599999161192

> <s_lp_Force_Field>
OPLS_2005

> <r_lp_Energy>
17.39634

> <b_lp_Chiralities_Consistent>
1

> <s_lp_Variant>
CHEMBL1957_lig1370-1

> <s_i_glide_gridfile>
glide-grid_2oj9

> <i_i_glide_lignum>
1874

> <i_i_glide_rotatable_bonds>
9

> <r_i_docking_score>
-7.87168326835743

> <r_i_glide_ligand_efficiency>
-0.253925266721208

> <r_i_glide_ligand_efficiency_sa>
-0.797675919118256

> <r_i_glide_ligand_efficiency_ln>
-1.77530581513517

> <r_i_glide_gscore>
-7.87168326835743

> <r_i_glide_lipo>
-3.24059081098968

> <r_i_glide_hbond>
-0.32

> <r_i_glide_metal>
0

> <r_i_glide_rewards>
-2.1901337868203

> <r_i_glide_evdw>
-46.0392456054688

> <r_i_glide_ecoul>
-3.15583372116089

> <r_i_glide_erotb>
0.710494074393998

> <r_i_glide_esite>
-0.0561154064938782

> <r_i_glide_emodel>
-63.2653836623259

> <r_i_glide_energy>
-49.1950793266296

> <r_i_glide_einternal>
12.4557771682739

> <i_i_glide_confnum>
4

> <i_i_glide_posenum>
12

> <r_i_glide_eff_state_penalty>
0

> <s_user_duplicate_titles>
CHEMBL1957_lig1370

> <i_f3d_flags>
0

> <s_m_subgroup_title>
dock_pv

> <s_m_subgroupid>
dock_pv

> <b_m_subgroup_collapsed>
1

$$$$
CHEMBL1957_lig2900
                    3D
 Schrodinger Suite 2021-1.
 33 35  0  0  1  0            999 V2000
    6.0402   -0.9076   23.3574 O   0  0  0  0  0  0
    4.8395   -1.8836   20.8829 N   0  0  0  0  0  0
    7.9296   -2.0541   23.6695 N   0  0  0  0  0  0
    8.0378   -8.4540   25.9244 N   0  0  0  0  0  0
    5.1150   -3.0813   21.4864 C   0  0  0  0  0  0
    6.0769   -3.1746   22.5512 C   0  0  0  0  0  0
    4.4672   -4.2750   21.0380 C   0  0  0  0  0  0
    5.8596   -5.6274   22.5273 C   0  0  0  0  0  0
    6.4383   -4.4497   23.0091 C   0  0  0  0  0  0
    4.8382   -5.5257   21.5817 C   0  0  0  0  0  0
    6.3560   -6.9611   22.9868 C   0  0  0  0  0  0
    6.6785   -1.9488   23.2129 C   0  0  0  0  0  0
    3.4993   -4.1759   20.0039 C   0  0  0  0  0  0
    6.8916   -7.1318   24.2724 C   0  0  0  0  0  0
    6.3576   -8.0690   22.1239 C   0  0  0  0  0  0
    3.9377   -1.8320   19.8727 C   0  0  0  0  0  0
    3.2396   -2.9419   19.4166 C   0  0  0  0  0  0
    7.4595   -8.3429   24.6627 C   0  0  0  0  0  0
    6.8924   -9.2941   22.5229 C   0  0  0  0  0  0
    7.4548   -9.4285   23.7905 C   0  0  0  0  0  0
    8.5035   -2.8526   23.4380 H   0  0  0  0  0  0
    8.3457   -1.2755   24.1654 H   0  0  0  0  0  0
    8.6822   -9.2116   26.0953 H   0  0  0  0  0  0
    8.0889   -7.6058   26.4814 H   0  0  0  0  0  0
    7.2006   -4.5315   23.7698 H   0  0  0  0  0  0
    4.3478   -6.4132   21.2086 H   0  0  0  0  0  0
    2.9964   -5.0652   19.6518 H   0  0  0  0  0  0
    6.8936   -6.3130   24.9771 H   0  0  0  0  0  0
    5.9639   -7.9845   21.1220 H   0  0  0  0  0  0
    3.7789   -0.8619   19.4250 H   0  0  0  0  0  0
    2.5278   -2.8524   18.6077 H   0  0  0  0  0  0
    6.8873  -10.1339   21.8435 H   0  0  0  0  0  0
    7.8830  -10.3741   24.0888 H   0  0  0  0  0  0
  1 12  2  0  0  0
  2  5  2  0  0  0
  2 16  1  0  0  0
  3 12  1  0  0  0
  3 21  1  0  0  0
  3 22  1  0  0  0
  4 18  1  0  0  0
  4 23  1  0  0  0
  4 24  1  0  0  0
  5  6  1  0  0  0
  5  7  1  0  0  0
  6  9  2  0  0  0
  6 12  1  0  0  0
  7 10  1  0  0  0
  7 13  2  0  0  0
  8  9  1  0  0  0
  8 10  2  0  0  0
  8 11  1  0  0  0
  9 25  1  0  0  0
 10 26  1  0  0  0
 11 14  1  0  0  0
 11 15  2  0  0  0
 13 17  1  0  0  0
 13 27  1  0  0  0
 14 18  2  0  0  0
 14 28  1  0  0  0
 15 19  1  0  0  0
 15 29  1  0  0  0
 16 17  2  0  0  0
 16 30  1  0  0  0
 17 31  1  0  0  0
 18 20  1  0  0  0
 19 20  2  0  0  0
 19 32  1  0  0  0
 20 33  1  0  0  0
M  END
> <s_m_entry_id>
5687

> <s_m_entry_name>
dock_pv.82

> <s_m_Source_Path>
/home/csk/Desktop/cluster/DUD-E-result/igf1r

> <s_m_Source_File>
dock_pv.maegz

> <i_m_Source_File_Index>
82

> <chembl_id>
CHEMBL1970314

> <chembl_pref_name>
None

> <i_lp_mmshare_version>
53161

> <r_lp_tautomer_probability>
1

> <s_lp_Force_Field>
OPLS_2005

> <r_lp_Energy>
23.802917

> <b_lp_Chiralities_Consistent>
1

> <s_lp_Variant>
CHEMBL1957_lig2900-1

> <s_i_glide_gridfile>
glide-grid_2oj9

> <i_i_glide_lignum>
4010

> <i_i_glide_rotatable_bonds>
2

> <r_i_docking_score>
-7.85615757845085

> <r_i_glide_ligand_efficiency>
-0.392807878922543

> <r_i_glide_ligand_efficiency_sa>
-1.0662446254199

> <r_i_glide_ligand_efficiency_ln>
-1.96613712846762

> <r_i_glide_gscore>
-7.85615757845085

> <r_i_glide_lipo>
-2.77110642086245

> <r_i_glide_hbond>
-0.608

> <r_i_glide_metal>
0

> <r_i_glide_rewards>
-2.11887861642721

> <r_i_glide_evdw>
-30.4233646392822

> <r_i_glide_ecoul>
-7.12530279159546

> <r_i_glide_erotb>
0.256133936522098

> <r_i_glide_esite>
-0.0243428269798522

> <r_i_glide_emodel>
-53.8777292330862

> <r_i_glide_energy>
-37.5486674308777

> <r_i_glide_einternal>
0.365328758955002

> <i_i_glide_confnum>
3

> <i_i_glide_posenum>
356

> <r_i_glide_eff_state_penalty>
0

> <s_user_duplicate_titles>
CHEMBL1957_lig2900

> <i_f3d_flags>
0

> <s_m_subgroup_title>
dock_pv

> <s_m_subgroupid>
dock_pv

> <b_m_subgroup_collapsed>
1

$$$$
CHEMBL1957_lig2978
                    3D
 Schrodinger Suite 2021-1.
 36 38  0  0  1  0            999 V2000
    5.8917   -3.7175   22.0897 O   0  0  0  0  0  0
    7.2379   -0.4539   25.6028 O   0  0  0  0  0  0
    6.6211   -0.3410   24.3691 N   0  0  0  0  0  0
    6.9065   -3.8275   23.0229 C   0  0  0  0  0  0
    7.3121   -2.7181   23.8099 C   0  0  0  0  0  0
    6.6049   -1.3871   23.6350 C   0  0  0  0  0  0
    5.4704   -2.4729   21.7547 C   0  0  0  0  0  0
    7.5444   -5.0738   23.1007 C   0  0  0  0  0  0
    5.8285   -1.3769   22.4454 C   0  0  0  0  0  0
    4.6817   -2.4521   20.5114 C   0  0  0  0  0  0
    8.4359   -2.9123   24.6378 C   0  0  0  0  0  0
    8.6178   -5.2302   23.9762 C   0  0  0  0  0  0
    9.0620   -4.1534   24.7342 C   0  0  0  0  0  0
    7.1206   -6.2433   22.2100 C   0  0  0  0  0  0
    3.9154   -3.5621   20.1362 C   0  0  0  0  0  0
    4.7036   -1.3176   19.6889 C   0  0  0  0  0  0
    3.2381   -3.5651   18.9210 C   0  0  0  0  0  0
    4.0161   -1.3152   18.4873 C   0  0  0  0  0  0
    5.9446   -7.0758   22.7042 C   0  0  0  0  0  0
    3.3065   -2.4457   18.0993 C   0  0  0  0  0  0
    5.2476   -6.8886   23.8375 C   0  0  0  0  0  0
    8.1125   -0.0542   25.4378 H   0  0  0  0  0  0
    5.4826   -0.4190   22.0955 H   0  0  0  0  0  0
    8.8706   -2.1131   25.2135 H   0  0  0  0  0  0
    9.1292   -6.1792   24.0526 H   0  0  0  0  0  0
    9.9112   -4.2754   25.3872 H   0  0  0  0  0  0
    7.9688   -6.9147   22.0664 H   0  0  0  0  0  0
    6.8764   -5.8681   21.2156 H   0  0  0  0  0  0
    3.8804   -4.4424   20.7622 H   0  0  0  0  0  0
    5.2926   -0.4476   19.9390 H   0  0  0  0  0  0
    2.6871   -4.4377   18.6040 H   0  0  0  0  0  0
    4.0660   -0.4543   17.8385 H   0  0  0  0  0  0
    5.6615   -7.8975   22.0616 H   0  0  0  0  0  0
    2.8381   -2.4528   17.1301 H   0  0  0  0  0  0
    5.4765   -6.0869   24.5255 H   0  0  0  0  0  0
    4.4293   -7.5436   24.0991 H   0  0  0  0  0  0
  1  4  1  0  0  0
  1  7  1  0  0  0
  2  3  1  0  0  0
  2 22  1  0  0  0
  3  6  2  3  0  0
  4  5  1  0  0  0
  4  8  2  0  0  0
  5  6  1  0  0  0
  5 11  2  0  0  0
  6  9  1  0  0  0
  7  9  2  0  0  0
  7 10  1  0  0  0
  8 12  1  0  0  0
  8 14  1  0  0  0
  9 23  1  0  0  0
 10 15  2  0  0  0
 10 16  1  0  0  0
 11 13  1  0  0  0
 11 24  1  0  0  0
 12 13  2  0  0  0
 12 25  1  0  0  0
 13 26  1  0  0  0
 14 19  1  0  0  0
 14 27  1  0  0  0
 14 28  1  0  0  0
 15 17  1  0  0  0
 15 29  1  0  0  0
 16 18  2  0  0  0
 16 30  1  0  0  0
 17 20  2  0  0  0
 17 31  1  0  0  0
 18 20  1  0  0  0
 18 32  1  0  0  0
 19 21  2  0  0  0
 19 33  1  0  0  0
 20 34  1  0  0  0
 21 35  1  0  0  0
 21 36  1  0  0  0
M  END
> <s_m_entry_id>
5688

> <s_m_entry_name>
dock_pv.83

> <s_m_Source_Path>
/home/csk/Desktop/cluster/DUD-E-result/igf1r

> <s_m_Source_File>
dock_pv.maegz

> <i_m_Source_File_Index>
83

> <chembl_id>
CHEMBL1977749

> <chembl_pref_name>
None

> <i_lp_mmshare_version>
53161

> <r_lp_tautomer_probability>
1

> <s_lp_Force_Field>
OPLS_2005

> <r_lp_Energy>
28.18888

> <b_lp_Chiralities_Consistent>
1

> <s_lp_Variant>
CHEMBL1957_lig2978-1

> <s_i_glide_gridfile>
glide-grid_2oj9

> <i_i_glide_lignum>
4117

> <i_i_glide_rotatable_bonds>
4

> <r_i_docking_score>
-7.81649789232468

> <r_i_glide_ligand_efficiency>
-0.372214185348794

> <r_i_glide_ligand_efficiency_sa>
-1.02691071370864

> <r_i_glide_ligand_efficiency_ln>
-1.93261330915608

> <r_i_glide_gscore>
-7.81649789232468

> <r_i_glide_lipo>
-3.60759240664504

> <r_i_glide_hbond>
-0.32

> <r_i_glide_metal>
0

> <r_i_glide_rewards>
-1.93495848484848

> <r_i_glide_evdw>
-29.4568557739258

> <r_i_glide_ecoul>
-8.84799671173096

> <r_i_glide_erotb>
0.936575226793216

> <r_i_glide_esite>
-0.090479932168432

> <r_i_glide_emodel>
-53.6326872657898

> <r_i_glide_energy>
-38.3048524856567

> <r_i_glide_einternal>
4.21919775009155

> <i_i_glide_confnum>
34

> <i_i_glide_posenum>
218

> <r_i_glide_eff_state_penalty>
0

> <s_user_duplicate_titles>
CHEMBL1957_lig2978,CHEMBL1957_lig2978

> <i_f3d_flags>
0

> <s_m_subgroup_title>
dock_pv

> <s_m_subgroupid>
dock_pv

> <b_m_subgroup_collapsed>
1

$$$$
CHEMBL1957_lig1646
                    3D
 Schrodinger Suite 2021-1.
 41 44  0  0  1  0            999 V2000
    4.8380   -8.9356   20.2381 C   0  0  0  0  0  0
    5.4888   -9.6421   21.2487 C   0  0  0  0  0  0
    5.8248   -9.0714   22.4312 N   0  0  0  0  0  0
    5.4913   -7.7695   22.5958 C   0  0  0  0  0  0
    4.8432   -7.0069   21.6714 N   0  0  0  0  0  0
    4.5318   -7.5961   20.4859 C   0  0  0  0  0  0
    3.9122   -6.8656   19.4583 N   0  0  0  0  0  0
    5.8881   -7.2072   23.8165 N   0  0  0  0  0  0
    3.6125   -5.5313   19.3865 C   0  0  0  0  0  0
    3.7313   -4.5006   20.3242 C   0  0  0  0  0  0
    3.5577   -3.3070   19.6542 C   0  0  0  0  0  0
    3.2353   -3.7083   18.3892 N   0  0  0  0  0  0
    3.2318   -5.0363   18.2380 N   0  0  0  0  0  0
    3.7193   -1.8681   20.0710 C   0  0  0  0  0  0
    5.1029   -1.3854   20.4494 C   0  0  0  0  0  0
    4.4270   -0.8648   19.1957 C   0  0  0  0  0  0
    6.0352   -5.7619   23.9422 C   0  0  0  0  0  0
    7.2501   -5.2458   23.2098 C   0  0  0  0  0  0
    7.4171   -4.4932   22.0568 C   0  0  0  0  0  0
    8.7905   -4.3881   21.8388 C   0  0  0  0  0  0
    9.4017   -5.0733   22.8740 C   0  0  0  0  0  0
    8.4666   -5.5961   23.7063 O   0  0  0  0  0  0
    5.8555  -11.1008   21.0858 C   0  0  0  0  0  0
    4.5803   -9.4156   19.3078 H   0  0  0  0  0  0
    3.8817   -7.4011   18.5955 H   0  0  0  0  0  0
    6.5638   -7.7667   24.3145 H   0  0  0  0  0  0
    4.0436   -4.6039   21.3463 H   0  0  0  0  0  0
    3.0113   -3.0842   17.6265 H   0  0  0  0  0  0
    2.8734   -1.4849   20.6378 H   0  0  0  0  0  0
    5.2380   -0.7159   21.2994 H   0  0  0  0  0  0
    5.9442   -2.0709   20.3397 H   0  0  0  0  0  0
    4.8145   -1.1770   18.2259 H   0  0  0  0  0  0
    4.0473    0.1568   19.1901 H   0  0  0  0  0  0
    6.1300   -5.5321   25.0028 H   0  0  0  0  0  0
    5.1239   -5.2686   23.6089 H   0  0  0  0  0  0
    6.6295   -4.0881   21.4385 H   0  0  0  0  0  0
    9.2833   -3.8706   21.0283 H   0  0  0  0  0  0
   10.4361   -5.2568   23.1304 H   0  0  0  0  0  0
    5.6962  -11.4437   20.0605 H   0  0  0  0  0  0
    6.9066  -11.2604   21.3302 H   0  0  0  0  0  0
    5.2498  -11.7191   21.7496 H   0  0  0  0  0  0
  1  2  2  0  0  0
  1  6  1  0  0  0
  1 24  1  0  0  0
  2  3  1  0  0  0
  2 23  1  0  0  0
  3  4  2  0  0  0
  4  5  1  0  0  0
  4  8  1  0  0  0
  5  6  2  0  0  0
  6  7  1  0  0  0
  7  9  1  0  0  0
  7 25  1  0  0  0
  8 17  1  0  0  0
  8 26  1  0  0  0
  9 10  1  0  0  0
  9 13  2  0  0  0
 10 11  2  0  0  0
 10 27  1  0  0  0
 11 12  1  0  0  0
 11 14  1  0  0  0
 12 13  1  0  0  0
 12 28  1  0  0  0
 14 15  1  0  0  0
 14 16  1  0  0  0
 14 29  1  0  0  0
 15 16  1  0  0  0
 15 30  1  0  0  0
 15 31  1  0  0  0
 16 32  1  0  0  0
 16 33  1  0  0  0
 17 18  1  0  0  0
 17 34  1  0  0  0
 17 35  1  0  0  0
 18 19  2  0  0  0
 18 22  1  0  0  0
 19 20  1  0  0  0
 19 36  1  0  0  0
 20 21  2  0  0  0
 20 37  1  0  0  0
 21 22  1  0  0  0
 21 38  1  0  0  0
 23 39  1  0  0  0
 23 40  1  0  0  0
 23 41  1  0  0  0
M  END
> <s_m_entry_id>
5689

> <s_m_entry_name>
dock_pv.84

> <s_m_Source_Path>
/home/csk/Desktop/cluster/DUD-E-result/igf1r

> <s_m_Source_File>
dock_pv.maegz

> <i_m_Source_File_Index>
84

> <chembl_id>
CHEMBL3921595

> <chembl_pref_name>
None

> <i_lp_mmshare_version>
53161

> <r_lp_tautomer_probability>
0.842599732729633

> <s_lp_Force_Field>
OPLS_2005

> <r_lp_Energy>
-0.019316

> <b_lp_Chiralities_Consistent>
1

> <s_lp_Variant>
CHEMBL1957_lig1646-1

> <s_i_glide_gridfile>
glide-grid_2oj9

> <i_i_glide_lignum>
2405

> <i_i_glide_rotatable_bonds>
6

> <r_i_docking_score>
-7.81134679314467

> <r_i_glide_ligand_efficiency>
-0.339623773614985

> <r_i_glide_ligand_efficiency_sa>
-0.965844834346774

> <r_i_glide_ligand_efficiency_ln>
-1.88885448395909

> <r_i_glide_gscore>
-7.81134679314467

> <r_i_glide_lipo>
-3.04383578096911

> <r_i_glide_hbond>
-0.412360496823399

> <r_i_glide_metal>
0

> <r_i_glide_rewards>
-2.62371448399711

> <r_i_glide_evdw>
-34.2215576171875

> <r_i_glide_ecoul>
-5.52224731445312

> <r_i_glide_erotb>
0.807978946672293

> <r_i_glide_esite>
0

> <r_i_glide_emodel>
-55.9732813386297

> <r_i_glide_energy>
-39.7438049316406

> <r_i_glide_einternal>
3.52680778503418

> <i_i_glide_confnum>
4

> <i_i_glide_posenum>
39

> <r_i_glide_eff_state_penalty>
0

> <s_user_duplicate_titles>
CHEMBL1957_lig1646

> <i_f3d_flags>
0

> <s_m_subgroup_title>
dock_pv

> <s_m_subgroupid>
dock_pv

> <b_m_subgroup_collapsed>
1

$$$$
CHEMBL1957_lig3307
                    3D
 Schrodinger Suite 2021-1.
 49 52  0  0  1  0            999 V2000
    5.2443   -0.8554   19.4366 N   0  0  0  0  0  0
    8.8043   -5.1931   21.6097 N   0  0  0  0  0  0
    6.8384   -1.2543   24.9752 N   0  0  0  0  0  0
    4.8385   -9.3110   19.9534 N   0  0  0  0  0  0
    5.9422   -1.8400   21.3705 C   0  0  0  0  0  0
    4.9607   -2.6765   20.7344 C   0  0  0  0  0  0
    4.5362   -2.0358   19.5288 C   0  0  0  0  0  0
    6.7547   -2.1297   22.6285 C   0  0  2  0  0  0
    6.0372   -0.7327   20.5494 C   0  0  0  0  0  0
    7.3160   -3.5681   22.6544 C   0  0  0  0  0  0
    4.4299   -3.9343   21.0382 C   0  0  0  0  0  0
    3.6376   -2.6373   18.6369 C   0  0  0  0  0  0
    6.8663   -4.5650   23.5375 C   0  0  0  0  0  0
    5.9730   -1.6410   23.8725 C   0  0  0  0  0  0
    8.2937   -3.9444   21.7192 C   0  0  0  0  0  0
    3.5530   -4.5436   20.1465 C   0  0  0  0  0  0
    7.3412   -5.8769   23.4071 C   0  0  0  0  0  0
    3.2009   -3.9188   18.9561 C   0  0  0  0  0  0
    5.3651   -0.0408   18.2439 C   0  0  0  0  0  0
    8.3157   -6.1387   22.4411 C   0  0  0  0  0  0
    6.8466   -6.9695   24.2498 C   0  0  0  0  0  0
    6.2533   -8.1076   23.8281 C   0  0  0  0  0  0
    5.8052   -8.4916   22.4701 C   0  0  0  0  0  0
    5.3144   -7.5582   21.5468 C   0  0  0  0  0  0
    5.8182   -9.8419   22.0997 C   0  0  0  0  0  0
    4.8378   -8.0039   20.3113 C   0  0  0  0  0  0
    5.3294  -10.2091   20.8437 C   0  0  0  0  0  0
    7.6969   -0.8284   24.6389 H   0  0  0  0  0  0
    6.3732   -0.5472   25.5258 H   0  0  0  0  0  0
    7.6379   -1.4999   22.5634 H   0  0  0  0  0  0
    6.6905    0.1209   20.6203 H   0  0  0  0  0  0
    4.7051   -4.4321   21.9520 H   0  0  0  0  0  0
    3.3410   -2.1689   17.7094 H   0  0  0  0  0  0
    6.1200   -4.3498   24.2862 H   0  0  0  0  0  0
    5.4066   -0.7472   23.6064 H   0  0  0  0  0  0
    5.2372   -2.3743   24.1985 H   0  0  0  0  0  0
    8.6882   -3.2539   20.9972 H   0  0  0  0  0  0
    3.1501   -5.5189   20.3741 H   0  0  0  0  0  0
    2.5333   -4.4234   18.2723 H   0  0  0  0  0  0
    6.1470   -0.4565   17.6076 H   0  0  0  0  0  0
    4.4271   -0.0540   17.6959 H   0  0  0  0  0  0
    5.6314    0.9819   18.5030 H   0  0  0  0  0  0
    8.7257   -7.1305   22.3206 H   0  0  0  0  0  0
    7.0327   -6.8539   25.3093 H   0  0  0  0  0  0
    6.0383   -8.8362   24.5878 H   0  0  0  0  0  0
    5.2827   -6.5106   21.7890 H   0  0  0  0  0  0
    6.1762  -10.5996   22.7828 H   0  0  0  0  0  0
    4.4563   -7.3104   19.5769 H   0  0  0  0  0  0
    5.3178  -11.2446   20.5338 H   0  0  0  0  0  0
  1  7  1  0  0  0
  1  9  1  0  0  0
  1 19  1  0  0  0
  2 15  1  0  0  0
  2 20  2  0  0  0
  3 14  1  0  0  0
  3 28  1  0  0  0
  3 29  1  0  0  0
  4 26  2  0  0  0
  4 27  1  0  0  0
  5  6  1  0  0  0
  5  8  1  0  0  0
  5  9  2  0  0  0
  6  7  1  0  0  0
  6 11  2  0  0  0
  7 12  2  0  0  0
  8 10  1  0  0  0
  8 14  1  0  0  0
  8 30  1  0  0  0
  9 31  1  0  0  0
 10 13  1  0  0  0
 10 15  2  0  0  0
 11 16  1  0  0  0
 11 32  1  0  0  0
 12 18  1  0  0  0
 12 33  1  0  0  0
 13 17  2  0  0  0
 13 34  1  0  0  0
 14 35  1  0  0  0
 14 36  1  0  0  0
 15 37  1  0  0  0
 16 18  2  0  0  0
 16 38  1  0  0  0
 17 20  1  0  0  0
 17 21  1  0  0  0
 18 39  1  0  0  0
 19 40  1  0  0  0
 19 41  1  0  0  0
 19 42  1  0  0  0
 20 43  1  0  0  0
 21 22  2  3  0  0
 21 44  1  0  0  0
 22 23  1  0  0  0
 22 45  1  0  0  0
 23 24  2  0  0  0
 23 25  1  0  0  0
 24 26  1  0  0  0
 24 46  1  0  0  0
 25 27  2  0  0  0
 25 47  1  0  0  0
 26 48  1  0  0  0
 27 49  1  0  0  0
M  END
> <s_m_entry_id>
5690

> <s_m_entry_name>
dock_pv.85

> <s_m_Source_Path>
/home/csk/Desktop/cluster/DUD-E-result/igf1r

> <s_m_Source_File>
dock_pv.maegz

> <i_m_Source_File_Index>
85

> <chembl_id>
CHEMBL1979357

> <chembl_pref_name>
None

> <i_lp_mmshare_version>
53161

> <r_lp_tautomer_probability>
1

> <s_lp_Force_Field>
OPLS_2005

> <r_lp_Energy>
22.845189

> <b_lp_Chiralities_Consistent>
1

> <s_lp_Variant>
CHEMBL1957_lig3307-2

> <s_i_glide_gridfile>
glide-grid_2oj9

> <i_i_glide_lignum>
4646

> <i_i_glide_rotatable_bonds>
5

> <r_i_docking_score>
-7.80805540990006

> <r_i_glide_ligand_efficiency>
-0.289187237403706

> <r_i_glide_ligand_efficiency_sa>
-0.867561711258004

> <r_i_glide_ligand_efficiency_ln>
-1.81758657357083

> <r_i_glide_gscore>
-7.80805540990006

> <r_i_glide_lipo>
-4.19168683099788

> <r_i_glide_hbond>
-0.272386820989767

> <r_i_glide_metal>
0

> <r_i_glide_rewards>
-1.49047617750699

> <r_i_glide_evdw>
-39.6535491943359

> <r_i_glide_ecoul>
-3.19486403465271

> <r_i_glide_erotb>
0.608401484509282

> <r_i_glide_esite>
0

> <r_i_glide_emodel>
-56.6160232279051

> <r_i_glide_energy>
-42.8484132289886

> <r_i_glide_einternal>
9.89117622375488

> <i_i_glide_confnum>
40

> <i_i_glide_posenum>
58

> <r_i_glide_eff_state_penalty>
0

> <s_user_duplicate_titles>
CHEMBL1957_lig3307

> <i_f3d_flags>
0

> <s_m_subgroup_title>
dock_pv

> <s_m_subgroupid>
dock_pv

> <b_m_subgroup_collapsed>
1

$$$$
CHEMBL1957_lig2664 
                    3D
 Schrodinger Suite 2021-1.
 47 50  0  0  1  0            999 V2000
    6.5185   -3.8712   22.3206 C   0  0  0  0  0  0
    7.3790   -4.2614   23.3364 N   0  0  0  0  0  0
    7.9836   -3.4098   24.2378 C   0  0  0  0  0  0
    7.4973   -2.1441   24.1761 N   0  0  0  0  0  0
    6.5356   -1.6440   23.3601 C   0  0  0  0  0  0
    6.1373   -2.5366   22.3816 N   0  0  0  0  0  0
    6.0918   -0.5103   23.5518 O   0  0  0  0  0  0
    6.1481   -4.6531   21.4382 O   0  0  0  0  0  0
    8.8783   -3.6798   25.0377 O   0  0  0  0  0  0
    5.3988   -2.0068   21.2748 C   0  0  0  0  0  0
    4.1725   -2.5748   20.8891 C   0  0  0  0  0  0
    3.4992   -2.1044   19.7656 C   0  0  0  0  0  0
    4.0381   -1.0533   19.0297 C   0  0  0  0  0  0
    5.2288   -0.4485   19.4189 C   0  0  0  0  0  0
    5.9050   -0.9232   20.5370 C   0  0  0  0  0  0
    7.4743   -5.6596   23.6022 C   0  0  0  0  0  0
    6.3203   -6.3989   23.9113 C   0  0  0  0  0  0
    6.3849   -7.7808   24.0529 C   0  0  0  0  0  0
    7.6038   -8.4461   23.9326 C   0  0  0  0  0  0
    8.7792   -7.7183   23.7003 C   0  0  0  0  0  0
    8.7045   -6.3303   23.5084 C   0  0  0  0  0  0
    7.6315   -9.8141   24.0609 O   0  0  0  0  0  0
    7.6278  -10.5489   22.9003 C   0  0  0  0  0  0
    6.4377  -10.7465   22.1950 C   0  0  0  0  0  0
    6.4409  -11.4977   21.0220 C   0  0  0  0  0  0
    7.6345  -12.0533   20.5643 C   0  0  0  0  0  0
    8.8246  -11.8619   21.2648 C   0  0  0  0  0  0
    8.8194  -11.1104   22.4372 C   0  0  0  0  0  0
    9.9686   -8.4058   23.6144 O   0  0  0  0  0  0
   11.0414   -7.9253   24.4165 C   0  0  0  0  0  0
    7.9025   -1.4899   24.8295 H   0  0  0  0  0  0
    3.7562   -3.4051   21.4377 H   0  0  0  0  0  0
    2.5700   -2.5609   19.4571 H   0  0  0  0  0  0
    3.5215   -0.6979   18.1502 H   0  0  0  0  0  0
    5.6368    0.3756   18.8495 H   0  0  0  0  0  0
    6.8369   -0.4544   20.8166 H   0  0  0  0  0  0
    5.3604   -5.9097   23.9977 H   0  0  0  0  0  0
    5.4822   -8.3429   24.2385 H   0  0  0  0  0  0
    9.5990   -5.7754   23.2639 H   0  0  0  0  0  0
    5.5152  -10.3225   22.5625 H   0  0  0  0  0  0
    5.5247  -11.6494   20.4690 H   0  0  0  0  0  0
    7.6385  -12.6327   19.6524 H   0  0  0  0  0  0
    9.7464  -12.2911   20.8998 H   0  0  0  0  0  0
    9.7383  -10.9539   22.9840 H   0  0  0  0  0  0
   11.9367   -8.5083   24.2018 H   0  0  0  0  0  0
   11.2862   -6.8780   24.2380 H   0  0  0  0  0  0
   10.8120   -8.0521   25.4748 H   0  0  0  0  0  0
  1  2  1  0  0  0
  1  6  1  0  0  0
  1  8  2  0  0  0
  2  3  1  0  0  0
  2 16  1  0  0  0
  3  4  1  0  0  0
  3  9  2  0  0  0
  4  5  1  0  0  0
  4 31  1  0  0  0
  5  6  1  0  0  0
  5  7  2  0  0  0
  6 10  1  0  0  0
 10 11  2  0  0  0
 10 15  1  0  0  0
 11 12  1  0  0  0
 11 32  1  0  0  0
 12 13  2  0  0  0
 12 33  1  0  0  0
 13 14  1  0  0  0
 13 34  1  0  0  0
 14 15  2  0  0  0
 14 35  1  0  0  0
 15 36  1  0  0  0
 16 17  2  0  0  0
 16 21  1  0  0  0
 17 18  1  0  0  0
 17 37  1  0  0  0
 18 19  2  0  0  0
 18 38  1  0  0  0
 19 20  1  0  0  0
 19 22  1  0  0  0
 20 21  2  0  0  0
 20 29  1  0  0  0
 21 39  1  0  0  0
 22 23  1  0  0  0
 23 24  2  0  0  0
 23 28  1  0  0  0
 24 25  1  0  0  0
 24 40  1  0  0  0
 25 26  2  0  0  0
 25 41  1  0  0  0
 26 27  1  0  0  0
 26 42  1  0  0  0
 27 28  2  0  0  0
 27 43  1  0  0  0
 28 44  1  0  0  0
 29 30  1  0  0  0
 30 45  1  0  0  0
 30 46  1  0  0  0
 30 47  1  0  0  0
M  END
> <s_m_entry_id>
5691

> <s_m_entry_name>
dock_pv.86

> <s_m_Source_Path>
/home/csk/Desktop/cluster/DUD-E-result/igf1r

> <s_m_Source_File>
dock_pv.maegz

> <i_m_Source_File_Index>
86

> <chembl_id>
CHEMBL4464173

> <chembl_pref_name>
None

> <i_lp_mmshare_version>
53161

> <r_lp_tautomer_probability>
0.99999999999891

> <s_lp_Force_Field>
OPLS_2005

> <r_lp_Energy>
56.157365

> <b_lp_Chiralities_Consistent>
1

> <s_lp_Variant>
CHEMBL1957_lig2664 -1

> <s_i_glide_gridfile>
glide-grid_2oj9

> <i_i_glide_lignum>
3689

> <i_i_glide_rotatable_bonds>
5

> <r_i_docking_score>
-7.80717404796756

> <r_i_glide_ligand_efficiency>
-0.260239134932252

> <r_i_glide_ligand_efficiency_sa>
-0.808623498466043

> <r_i_glide_ligand_efficiency_ln>
-1.77387500967273

> <r_i_glide_gscore>
-7.80717404796756

> <r_i_glide_lipo>
-2.60894789526687

> <r_i_glide_hbond>
-0.0835277475466908

> <r_i_glide_metal>
0

> <r_i_glide_rewards>
-2.78467709603891

> <r_i_glide_evdw>
-48.4676628112793

> <r_i_glide_ecoul>
-2.5950243473053

> <r_i_glide_erotb>
0.482615483544668

> <r_i_glide_esite>
0

> <r_i_glide_emodel>
-68.5713765456964

> <r_i_glide_energy>
-51.0626871585846

> <r_i_glide_einternal>
9.10947513580322

> <i_i_glide_confnum>
5

> <i_i_glide_posenum>
48

> <r_i_glide_eff_state_penalty>
0

> <s_user_duplicate_titles>
CHEMBL1957_lig2664 

> <i_f3d_flags>
0

> <s_m_subgroup_title>
dock_pv

> <s_m_subgroupid>
dock_pv

> <b_m_subgroup_collapsed>
1

$$$$
CHEMBL1957_lig665
                    3D
 Schrodinger Suite 2021-1.
 42 44  0  0  1  0            999 V2000
    7.9486   -6.0082   23.7819 C   0  0  0  0  0  0
    6.8257   -6.8967   24.3381 C   0  0  0  0  0  0
    8.1120   -4.8516   24.6378 N   0  0  0  0  0  0
    6.6673  -10.2204   22.6669 N   0  0  0  0  0  0
    7.0937   -9.3870   23.6666 C   0  0  0  0  0  0
    6.6018   -8.1105   23.4680 C   0  0  0  0  0  0
    5.8420   -8.1692   22.2460 C   0  0  0  0  0  0
    5.1150   -7.2201   21.5051 C   0  0  0  0  0  0
    4.4380   -7.6192   20.3419 C   0  0  0  0  0  0
    4.5245   -8.9452   19.9246 C   0  0  0  0  0  0
    5.2382   -9.9223   20.6132 C   0  0  0  0  0  0
    5.8919   -9.5153   21.7756 C   0  0  0  0  0  0
    3.6600   -6.7948   19.5442 O   0  0  0  0  0  0
    3.1190   -5.5704   20.0443 C   0  0  0  0  0  0
    3.3746   -4.4592   19.0127 C   0  0  0  0  0  0
    3.9687   -3.1491   19.5217 C   0  0  0  0  0  0
    4.6682   -3.0295   20.7335 C   0  0  0  0  0  0
    5.2379   -1.8135   21.0938 C   0  0  0  0  0  0
    5.1340   -0.7232   20.2379 C   0  0  0  0  0  0
    4.4816   -0.8539   19.0158 C   0  0  0  0  0  0
    3.8757   -2.0510   18.6700 C   0  0  0  0  0  0
    5.6387    0.4857   20.6339 O   0  0  0  0  0  0
    7.7246   -5.6784   22.7659 H   0  0  0  0  0  0
    8.8906   -6.5610   23.7441 H   0  0  0  0  0  0
    7.0781   -7.2118   25.3532 H   0  0  0  0  0  0
    5.8974   -6.3293   24.4353 H   0  0  0  0  0  0
    7.2762   -4.2886   24.6104 H   0  0  0  0  0  0
    8.2016   -5.1739   25.5971 H   0  0  0  0  0  0
    6.9005  -11.2026   22.6366 H   0  0  0  0  0  0
    7.7146   -9.7780   24.4609 H   0  0  0  0  0  0
    5.1028   -6.2025   21.8526 H   0  0  0  0  0  0
    3.9888   -9.2400   19.0379 H   0  0  0  0  0  0
    5.2709  -10.9440   20.2595 H   0  0  0  0  0  0
    2.0392   -5.6541   20.1667 H   0  0  0  0  0  0
    3.4427   -5.3183   21.0379 H   0  0  0  0  0  0
    4.0356   -4.8261   18.2291 H   0  0  0  0  0  0
    2.4380   -4.2346   18.5028 H   0  0  0  0  0  0
    4.8153   -3.8594   21.4038 H   0  0  0  0  0  0
    5.7622   -1.7184   22.0335 H   0  0  0  0  0  0
    4.4371   -0.0520   18.3093 H   0  0  0  0  0  0
    3.3699   -2.1341   17.7176 H   0  0  0  0  0  0
    5.9383    1.0544   19.9071 H   0  0  0  0  0  0
  1  2  1  0  0  0
  1  3  1  0  0  0
  1 23  1  0  0  0
  1 24  1  0  0  0
  2  6  1  0  0  0
  2 25  1  0  0  0
  2 26  1  0  0  0
  3 27  1  0  0  0
  3 28  1  0  0  0
  4  5  1  0  0  0
  4 12  1  0  0  0
  4 29  1  0  0  0
  5  6  2  0  0  0
  5 30  1  0  0  0
  6  7  1  0  0  0
  7  8  1  0  0  0
  7 12  2  0  0  0
  8  9  2  0  0  0
  8 31  1  0  0  0
  9 10  1  0  0  0
  9 13  1  0  0  0
 10 11  2  0  0  0
 10 32  1  0  0  0
 11 12  1  0  0  0
 11 33  1  0  0  0
 13 14  1  0  0  0
 14 15  1  0  0  0
 14 34  1  0  0  0
 14 35  1  0  0  0
 15 16  1  0  0  0
 15 36  1  0  0  0
 15 37  1  0  0  0
 16 17  1  0  0  0
 16 21  2  0  0  0
 17 18  2  0  0  0
 17 38  1  0  0  0
 18 19  1  0  0  0
 18 39  1  0  0  0
 19 20  2  0  0  0
 19 22  1  0  0  0
 20 21  1  0  0  0
 20 40  1  0  0  0
 21 41  1  0  0  0
 22 42  1  0  0  0
M  END
> <s_m_entry_id>
5692

> <s_m_entry_name>
dock_pv.87

> <s_m_Source_Path>
/home/csk/Desktop/cluster/DUD-E-result/igf1r

> <s_m_Source_File>
dock_pv.maegz

> <i_m_Source_File_Index>
87

> <chembl_id>
CHEMBL1095957

> <chembl_pref_name>
None

> <i_lp_mmshare_version>
53161

> <r_lp_tautomer_probability>
0.999999999997365

> <s_lp_Force_Field>
OPLS_2005

> <r_lp_Energy>
11.796997

> <b_lp_Chiralities_Consistent>
1

> <s_lp_Variant>
CHEMBL1957_lig665-1

> <s_i_glide_gridfile>
glide-grid_2oj9

> <i_i_glide_lignum>
879

> <i_i_glide_rotatable_bonds>
7

> <r_i_docking_score>
-7.79048410746613

> <r_i_glide_ligand_efficiency>
-0.354112913975733

> <r_i_glide_ligand_efficiency_sa>
-0.992238311430642

> <r_i_glide_ligand_efficiency_ln>
-1.90427848067696

> <r_i_glide_gscore>
-7.79048410746613

> <r_i_glide_lipo>
-3.94593219683102

> <r_i_glide_hbond>
-0.542972394638595

> <r_i_glide_metal>
0

> <r_i_glide_rewards>
-1.53078337208274

> <r_i_glide_evdw>
-32.3494338989258

> <r_i_glide_ecoul>
-5.888747215271

> <r_i_glide_erotb>
0.729987633323168

> <r_i_glide_esite>
0

> <r_i_glide_emodel>
-53.0625295648962

> <r_i_glide_energy>
-38.2381811141968

> <r_i_glide_einternal>
7.11379528045654

> <i_i_glide_confnum>
193

> <i_i_glide_posenum>
242

> <r_i_glide_eff_state_penalty>
0

> <s_user_duplicate_titles>
CHEMBL1957_lig665

> <i_f3d_flags>
0

> <s_m_subgroup_title>
dock_pv

> <s_m_subgroupid>
dock_pv

> <b_m_subgroup_collapsed>
1

$$$$
CHEMBL1957_lig2852
                    3D
 Schrodinger Suite 2021-1.
 37 39  0  0  1  0            999 V2000
    5.7776  -11.5242   20.6448 Cl  0  0  0  0  0  0
    4.9285   -7.2460   21.6592 N   0  0  0  0  0  0
    4.0353   -7.0436   19.4407 N   0  0  0  0  0  0
    4.8478   -9.0934   20.1198 N   0  0  0  0  0  0
    3.2379   -5.2479   18.2381 N   0  0  0  0  0  0
    5.9318   -7.5416   23.8181 N   0  0  0  0  0  0
    3.0386   -3.9412   18.4425 N   0  0  0  0  0  0
    4.6169   -7.8026   20.4601 C   0  0  0  0  0  0
    5.5341   -8.0518   22.5737 C   0  0  0  0  0  0
    3.6350   -5.7369   19.3869 C   0  0  0  0  0  0
    5.4442   -9.8807   21.0460 C   0  0  0  0  0  0
    5.8063   -9.3932   22.3011 C   0  0  0  0  0  0
    3.6382   -4.7318   20.3564 C   0  0  0  0  0  0
    3.2490   -3.5572   19.7388 C   0  0  0  0  0  0
    5.8593   -6.1171   24.1399 C   0  0  0  0  0  0
    6.8275   -5.2977   23.2902 C   0  0  0  0  0  0
    3.0782   -2.1451   20.2308 C   0  0  0  0  0  0
    6.3735   -4.1414   22.6500 C   0  0  0  0  0  0
    8.1662   -5.6862   23.1579 C   0  0  0  0  0  0
    7.2304   -3.4094   21.8382 C   0  0  0  0  0  0
    9.0261   -4.9527   22.3482 C   0  0  0  0  0  0
    8.5495   -3.8270   21.6835 C   0  0  0  0  0  0
    4.0197   -7.5733   18.5731 H   0  0  0  0  0  0
    6.3085   -8.1726   24.5088 H   0  0  0  0  0  0
    2.7322   -3.3258   17.6999 H   0  0  0  0  0  0
    6.2829  -10.0346   23.0271 H   0  0  0  0  0  0
    3.9685   -4.8471   21.3761 H   0  0  0  0  0  0
    4.8377   -5.7684   23.9863 H   0  0  0  0  0  0
    6.0943   -5.9718   25.1957 H   0  0  0  0  0  0
    3.6651   -1.4383   19.6451 H   0  0  0  0  0  0
    3.3978   -2.0535   21.2676 H   0  0  0  0  0  0
    2.0374   -1.8262   20.1866 H   0  0  0  0  0  0
    5.3525   -3.8150   22.7627 H   0  0  0  0  0  0
    8.5355   -6.5647   23.6666 H   0  0  0  0  0  0
    6.8698   -2.5285   21.3299 H   0  0  0  0  0  0
   10.0585   -5.2526   22.2390 H   0  0  0  0  0  0
    9.2252   -3.2580   21.0608 H   0  0  0  0  0  0
  1 11  1  0  0  0
  2  8  1  0  0  0
  2  9  2  0  0  0
  3  8  1  0  0  0
  3 10  1  0  0  0
  3 23  1  0  0  0
  4  8  2  0  0  0
  4 11  1  0  0  0
  5  7  1  0  0  0
  5 10  2  0  0  0
  6  9  1  0  0  0
  6 15  1  0  0  0
  6 24  1  0  0  0
  7 14  1  0  0  0
  7 25  1  0  0  0
  9 12  1  0  0  0
 10 13  1  0  0  0
 11 12  2  0  0  0
 12 26  1  0  0  0
 13 14  2  0  0  0
 13 27  1  0  0  0
 14 17  1  0  0  0
 15 16  1  0  0  0
 15 28  1  0  0  0
 15 29  1  0  0  0
 16 18  2  0  0  0
 16 19  1  0  0  0
 17 30  1  0  0  0
 17 31  1  0  0  0
 17 32  1  0  0  0
 18 20  1  0  0  0
 18 33  1  0  0  0
 19 21  2  0  0  0
 19 34  1  0  0  0
 20 22  2  0  0  0
 20 35  1  0  0  0
 21 22  1  0  0  0
 21 36  1  0  0  0
 22 37  1  0  0  0
M  END
> <s_m_entry_id>
5693

> <s_m_entry_name>
dock_pv.88

> <s_m_Source_Path>
/home/csk/Desktop/cluster/DUD-E-result/igf1r

> <s_m_Source_File>
dock_pv.maegz

> <i_m_Source_File_Index>
88

> <chembl_id>
CHEMBL2005449

> <chembl_pref_name>
None

> <i_lp_mmshare_version>
53161

> <r_lp_tautomer_probability>
0.842599732729633

> <s_lp_Force_Field>
OPLS_2005

> <r_lp_Energy>
-0.079036

> <b_lp_Chiralities_Consistent>
1

> <s_lp_Variant>
CHEMBL1957_lig2852-1

> <s_i_glide_gridfile>
glide-grid_2oj9

> <i_i_glide_lignum>
3947

> <i_i_glide_rotatable_bonds>
5

> <r_i_docking_score>
-7.78916424971767

> <r_i_glide_ligand_efficiency>
-0.354052920441712

> <r_i_glide_ligand_efficiency_sa>
-0.992070207188903

> <r_i_glide_ligand_efficiency_ln>
-1.90395585930026

> <r_i_glide_gscore>
-7.78916424971767

> <r_i_glide_lipo>
-2.67766143877313

> <r_i_glide_hbond>
-0.525409193638131

> <r_i_glide_metal>
0

> <r_i_glide_rewards>
-2.70646228264238

> <r_i_glide_evdw>
-31.9532985687256

> <r_i_glide_ecoul>
-6.25838470458984

> <r_i_glide_erotb>
0.656791299460724

> <r_i_glide_esite>
0

> <r_i_glide_emodel>
-55.1090296629197

> <r_i_glide_energy>
-38.2116832733154

> <r_i_glide_einternal>
5.78784894943237

> <i_i_glide_confnum>
48

> <i_i_glide_posenum>
89

> <r_i_glide_eff_state_penalty>
0

> <s_user_duplicate_titles>
CHEMBL1957_lig2852

> <i_f3d_flags>
0

> <s_m_subgroup_title>
dock_pv

> <s_m_subgroupid>
dock_pv

> <b_m_subgroup_collapsed>
1

$$$$
CHEMBL1957_lig3173
                    3D
 Schrodinger Suite 2021-1.
 50 53  0  0  1  0            999 V2000
    8.1061   -4.4141   22.7511 O   0  0  0  0  0  0
    6.8353  -10.5950   22.9520 N   0  0  0  0  0  0
    6.8379   -1.2757   24.2861 N   0  0  0  0  0  0
    9.2380   -6.9635   22.3339 N   0  0  0  0  0  0
    3.2375   -4.9871   18.9735 N   0  0  0  0  0  0
    6.1736   -8.5756   22.2157 C   0  0  0  0  0  0
    6.9651   -8.3844   23.4009 C   0  0  0  0  0  0
    6.1297   -9.9766   21.9451 C   0  0  0  0  0  0
    7.3245   -9.6517   23.8209 C   0  0  0  0  0  0
    5.5075   -7.6962   21.3445 C   0  0  0  0  0  0
    7.3524   -7.0472   24.0011 C   0  0  0  0  0  0
    5.4668  -10.4999   20.8300 C   0  0  0  0  0  0
    8.7899   -6.5563   23.6613 C   0  0  2  0  0  0
    4.8381   -8.2169   20.2381 C   0  0  0  0  0  0
    4.8379   -9.5850   19.9844 C   0  0  0  0  0  0
    7.4950   -3.1898   22.9400 C   0  0  0  0  0  0
    6.2202   -1.3730   21.9432 C   0  0  0  0  0  0
    8.8991   -5.0207   23.7826 C   0  0  0  0  0  0
    6.8382   -2.6270   21.8388 C   0  0  0  0  0  0
    7.4840   -2.4582   24.1389 C   0  0  0  0  0  0
    6.2249   -0.7557   23.1969 C   0  0  0  0  0  0
    5.6380   -0.6561   20.7914 C   0  0  0  0  0  0
    4.1186   -2.3906   19.6282 C   0  0  0  0  0  0
    4.7747   -1.0767   19.8377 C   0  0  0  0  0  0
    3.6379   -2.6895   18.3450 C   0  0  0  0  0  0
    4.0330   -3.3892   20.6087 C   0  0  0  0  0  0
    3.2380   -3.9923   18.0543 C   0  0  0  0  0  0
    3.6012   -4.6643   20.2380 C   0  0  0  0  0  0
    6.9930  -11.5856   23.0712 H   0  0  0  0  0  0
    8.8180   -6.3253   21.6725 H   0  0  0  0  0  0
   10.2494   -6.8513   22.2380 H   0  0  0  0  0  0
    7.9192   -9.9592   24.6684 H   0  0  0  0  0  0
    5.5299   -6.6333   21.5238 H   0  0  0  0  0  0
    7.2455   -7.0810   25.0858 H   0  0  0  0  0  0
    6.6228   -6.3017   23.6862 H   0  0  0  0  0  0
    5.4427  -11.5580   20.6167 H   0  0  0  0  0  0
    9.4760   -7.0187   24.3725 H   0  0  0  0  0  0
    4.3351   -7.5528   19.5484 H   0  0  0  0  0  0
    4.3226   -9.9487   19.1067 H   0  0  0  0  0  0
    9.9327   -4.6898   23.6664 H   0  0  0  0  0  0
    8.5898   -4.7595   24.7931 H   0  0  0  0  0  0
    6.8561   -3.1476   20.8928 H   0  0  0  0  0  0
    8.0076   -2.7898   25.0188 H   0  0  0  0  0  0
    5.7710    0.2137   23.3398 H   0  0  0  0  0  0
    5.9815    0.3652   20.6968 H   0  0  0  0  0  0
    4.5125   -0.3325   19.0969 H   0  0  0  0  0  0
    3.6392   -1.9516   17.5562 H   0  0  0  0  0  0
    4.3213   -3.2092   21.6309 H   0  0  0  0  0  0
    2.9086   -4.2487   17.0562 H   0  0  0  0  0  0
    3.5540   -5.4606   20.9649 H   0  0  0  0  0  0
  1 16  1  0  0  0
  1 18  1  0  0  0
  2  8  1  0  0  0
  2  9  1  0  0  0
  2 29  1  0  0  0
  3 20  1  0  0  0
  3 21  2  0  0  0
  4 13  1  0  0  0
  4 30  1  0  0  0
  4 31  1  0  0  0
  5 27  2  0  0  0
  5 28  1  0  0  0
  6  7  1  0  0  0
  6  8  1  0  0  0
  6 10  2  0  0  0
  7  9  2  0  0  0
  7 11  1  0  0  0
  8 12  2  0  0  0
  9 32  1  0  0  0
 10 14  1  0  0  0
 10 33  1  0  0  0
 11 13  1  0  0  0
 11 34  1  0  0  0
 11 35  1  0  0  0
 12 15  1  0  0  0
 12 36  1  0  0  0
 13 18  1  0  0  0
 13 37  1  0  0  0
 14 15  2  0  0  0
 14 38  1  0  0  0
 15 39  1  0  0  0
 16 19  1  0  0  0
 16 20  2  0  0  0
 17 19  2  0  0  0
 17 21  1  0  0  0
 17 22  1  0  0  0
 18 40  1  0  0  0
 18 41  1  0  0  0
 19 42  1  0  0  0
 20 43  1  0  0  0
 21 44  1  0  0  0
 22 24  2  3  0  0
 22 45  1  0  0  0
 23 24  1  0  0  0
 23 25  2  0  0  0
 23 26  1  0  0  0
 24 46  1  0  0  0
 25 27  1  0  0  0
 25 47  1  0  0  0
 26 28  2  0  0  0
 26 48  1  0  0  0
 27 49  1  0  0  0
 28 50  1  0  0  0
M  END
> <s_m_entry_id>
5694

> <s_m_entry_name>
dock_pv.89

> <s_m_Source_Path>
/home/csk/Desktop/cluster/DUD-E-result/igf1r

> <s_m_Source_File>
dock_pv.maegz

> <i_m_Source_File_Index>
89

> <chembl_id>
CHEMBL1974935

> <chembl_pref_name>
None

> <i_lp_mmshare_version>
53161

> <r_lp_tautomer_probability>
1

> <s_lp_Force_Field>
OPLS_2005

> <r_lp_Energy>
25.130295

> <b_lp_Chiralities_Consistent>
1

> <s_lp_Variant>
CHEMBL1957_lig3173-2

> <s_i_glide_gridfile>
glide-grid_2oj9

> <i_i_glide_lignum>
4405

> <i_i_glide_rotatable_bonds>
7

> <r_i_docking_score>
-7.77252411427555

> <r_i_glide_ligand_efficiency>
-0.277590146938412

> <r_i_glide_ligand_efficiency_sa>
-0.842927177958259

> <r_i_glide_ligand_efficiency_ln>
-1.79412677679919

> <r_i_glide_gscore>
-7.77252411427555

> <r_i_glide_lipo>
-4.11788197017147

> <r_i_glide_hbond>
-0.16

> <r_i_glide_metal>
0

> <r_i_glide_rewards>
-1.30818436195779

> <r_i_glide_evdw>
-44.483081817627

> <r_i_glide_ecoul>
-5.30856227874756

> <r_i_glide_erotb>
0.843491268241451

> <r_i_glide_esite>
-0.00951061769425792

> <r_i_glide_emodel>
-67.090442867043

> <r_i_glide_energy>
-49.7916440963745

> <r_i_glide_einternal>
8.74646091461182

> <i_i_glide_confnum>
13

> <i_i_glide_posenum>
74

> <r_i_glide_eff_state_penalty>
0

> <s_user_duplicate_titles>
CHEMBL1957_lig3173

> <i_f3d_flags>
0

> <s_m_subgroup_title>
dock_pv

> <s_m_subgroupid>
dock_pv

> <b_m_subgroup_collapsed>
1

$$$$
CHEMBL1957_lig431
                    3D
 Schrodinger Suite 2021-1.
 29 31  0  0  1  0            999 V2000
    6.1859   -1.9063   22.5002 C   0  0  0  0  0  0
    6.6511   -2.8439   23.3610 O   0  0  0  0  0  0
    5.5708   -4.7100   22.1563 C   0  0  0  0  0  0
    6.3980   -4.1879   23.1799 C   0  0  0  0  0  0
    6.9865   -5.0069   24.1428 C   0  0  0  0  0  0
    6.7989   -6.3793   24.0914 C   0  0  0  0  0  0
    6.0467   -6.9313   23.0706 C   0  0  0  0  0  0
    5.4403   -6.1303   22.0977 C   0  0  0  0  0  0
    5.3778   -2.3274   21.3083 C   0  0  0  0  0  0
    4.9616   -3.6782   21.2188 C   0  0  0  0  0  0
    4.0111   -3.9924   20.2384 C   0  0  0  0  0  0
    3.6361   -3.0835   19.2608 C   0  0  0  0  0  0
    4.1157   -1.7856   19.2916 C   0  0  0  0  0  0
    4.9799   -1.4002   20.3110 C   0  0  0  0  0  0
    5.4141   -0.0970   20.2845 O   0  0  0  0  0  0
    2.8386   -3.5096   18.2389 O   0  0  0  0  0  0
    6.4285   -0.7454   22.8152 O   0  0  0  0  0  0
    7.3471   -7.2001   25.0371 O   0  0  0  0  0  0
    4.6955   -6.9115   21.0228 C   0  0  0  0  0  0
    7.5876   -4.5753   24.9296 H   0  0  0  0  0  0
    5.9372   -8.0063   23.0446 H   0  0  0  0  0  0
    3.5692   -4.9631   20.1508 H   0  0  0  0  0  0
    3.8262   -1.0845   18.5223 H   0  0  0  0  0  0
    5.2915    0.3402   19.4379 H   0  0  0  0  0  0
    2.6577   -2.8546   17.5597 H   0  0  0  0  0  0
    7.6538   -6.7083   25.8087 H   0  0  0  0  0  0
    4.9551   -6.5906   20.0176 H   0  0  0  0  0  0
    3.6247   -6.8175   21.1718 H   0  0  0  0  0  0
    4.9297   -7.9766   21.0490 H   0  0  0  0  0  0
  1  9  1  0  0  0
  1  2  1  0  0  0
  1 17  2  0  0  0
  2  4  1  0  0  0
  3 10  1  0  0  0
  3  4  1  0  0  0
  3  8  2  0  0  0
  4  5  2  0  0  0
  5  6  1  0  0  0
  5 20  1  0  0  0
  6  7  2  0  0  0
  6 18  1  0  0  0
  7  8  1  0  0  0
  7 21  1  0  0  0
  8 19  1  0  0  0
  9 10  2  0  0  0
  9 14  1  0  0  0
 10 11  1  0  0  0
 11 12  2  0  0  0
 11 22  1  0  0  0
 12 13  1  0  0  0
 12 16  1  0  0  0
 13 14  2  0  0  0
 13 23  1  0  0  0
 14 15  1  0  0  0
 15 24  1  0  0  0
 16 25  1  0  0  0
 18 26  1  0  0  0
 19 27  1  0  0  0
 19 28  1  0  0  0
 19 29  1  0  0  0
M  END
> <s_m_entry_id>
5696

> <s_m_entry_name>
dock_pv.91

> <s_m_Source_Path>
/home/csk/Desktop/cluster/DUD-E-result/igf1r

> <s_m_Source_File>
dock_pv.maegz

> <i_m_Source_File_Index>
91

> <chembl_id>
CHEMBL519982

> <chembl_pref_name>
ALTERNARIOL

> <i_lp_mmshare_version>
53161

> <r_lp_tautomer_probability>
1

> <s_lp_Force_Field>
OPLS_2005

> <r_lp_Energy>
31.059856

> <b_lp_Chiralities_Consistent>
1

> <s_lp_Variant>
CHEMBL1957_lig431-1

> <s_i_glide_gridfile>
glide-grid_2oj9

> <i_i_glide_lignum>
612

> <i_i_glide_rotatable_bonds>
3

> <r_i_docking_score>
-7.76321446070248

> <r_i_glide_ligand_efficiency>
-0.408590234773815

> <r_i_glide_ligand_efficiency_sa>
-1.09028285505204

> <r_i_glide_ligand_efficiency_ln>
-1.96814160434624

> <r_i_glide_gscore>
-7.76321446070248

> <r_i_glide_lipo>
-2.81372051375881

> <r_i_glide_hbond>
-0.420368708048832

> <r_i_glide_metal>
0

> <r_i_glide_rewards>
-1.79012439393939

> <r_i_glide_evdw>
-29.0656204223633

> <r_i_glide_ecoul>
-8.57146549224854

> <r_i_glide_erotb>
0

> <r_i_glide_esite>
0

> <r_i_glide_emodel>
-54.3675421058443

> <r_i_glide_energy>
-37.6370859146118

> <r_i_glide_einternal>
0.993068754673004

> <i_i_glide_confnum>
1

> <i_i_glide_posenum>
110

> <r_i_glide_eff_state_penalty>
0

> <s_user_duplicate_titles>
CHEMBL1957_lig431

> <i_f3d_flags>
0

> <s_m_subgroup_title>
dock_pv

> <s_m_subgroupid>
dock_pv

> <b_m_subgroup_collapsed>
1

$$$$
CHEMBL1957_lig822
                    3D
 Schrodinger Suite 2021-1.
 43 46  0  0  1  0            999 V2000
    3.9530   -1.6047   19.0185 N   0  0  0  0  0  0
    4.4828   -2.1655   20.1316 C   0  0  0  0  0  0
    4.3127   -3.4554   20.5186 N   0  0  0  0  0  0
    3.6320   -4.2688   19.6750 C   0  0  0  0  0  0
    3.0694   -3.7848   18.4937 C   0  0  0  0  0  0
    3.2381   -2.4307   18.2150 C   0  0  0  0  0  0
    3.5875   -5.6547   19.8899 N   0  0  0  0  0  0
    4.3216   -6.4996   20.7396 C   0  0  0  0  0  0
    4.9356   -6.0788   21.9244 C   0  0  0  0  0  0
    5.2379   -8.7335   21.0379 N   0  0  0  0  0  0
    4.4892   -7.8314   20.3562 C   0  0  0  0  0  0
    5.8495   -8.3251   22.1839 C   0  0  0  0  0  0
    5.7213   -6.9881   22.6707 C   0  0  0  0  0  0
    6.3886   -6.6177   23.8625 C   0  0  0  0  0  0
    7.1729   -7.5471   24.5398 C   0  0  0  0  0  0
    7.2957   -8.8505   24.0675 C   0  0  0  0  0  0
    6.6393   -9.2499   22.9056 C   0  0  0  0  0  0
    5.3079   -1.3395   20.8945 N   0  0  0  0  0  0
    6.0833   -1.6756   22.0102 C   0  0  0  0  0  0
    6.0385   -0.8449   23.1276 C   0  0  0  0  0  0
    6.7685   -1.1505   24.2834 C   0  0  0  0  0  0
    7.6117   -2.2630   24.2572 C   0  0  0  0  0  0
    7.6720   -3.0979   23.1436 C   0  0  0  0  0  0
    6.8973   -2.8119   22.0243 C   0  0  0  0  0  0
    6.7295   -0.3945   25.4380 O   0  0  0  0  0  0
    5.5148    0.2760   25.8075 C   0  0  0  0  0  0
    5.6380    0.7416   27.0389 F   0  0  0  0  0  0
    5.2601    1.3337   25.0377 F   0  0  0  0  0  0
    4.4740   -0.5585   25.8379 F   0  0  0  0  0  0
    2.5406   -4.4249   17.8017 H   0  0  0  0  0  0
    2.8377   -2.0032   17.3054 H   0  0  0  0  0  0
    3.1042   -6.1451   19.1534 H   0  0  0  0  0  0
    4.8375   -5.0708   22.2938 H   0  0  0  0  0  0
    4.0453   -8.2004   19.4426 H   0  0  0  0  0  0
    6.2958   -5.6081   24.2383 H   0  0  0  0  0  0
    7.6888   -7.2529   25.4407 H   0  0  0  0  0  0
    7.9026   -9.5602   24.6120 H   0  0  0  0  0  0
    6.7350  -10.2669   22.5492 H   0  0  0  0  0  0
    5.4745   -0.4329   20.4863 H   0  0  0  0  0  0
    5.4294    0.0387   23.0868 H   0  0  0  0  0  0
    8.2306   -2.4846   25.1133 H   0  0  0  0  0  0
    8.3236   -3.9608   23.1459 H   0  0  0  0  0  0
    6.9488   -3.4597   21.1624 H   0  0  0  0  0  0
  1  6  1  0  0  0
  1  2  2  0  0  0
  2 18  1  0  0  0
  2  3  1  0  0  0
  3  4  2  0  0  0
  4  7  1  0  0  0
  4  5  1  0  0  0
  5  6  2  0  0  0
  5 30  1  0  0  0
  6 31  1  0  0  0
  7  8  1  0  0  0
  7 32  1  0  0  0
  8  9  2  0  0  0
  8 11  1  0  0  0
  9 13  1  0  0  0
  9 33  1  0  0  0
 10 12  1  0  0  0
 10 11  2  0  0  0
 11 34  1  0  0  0
 12 17  2  0  0  0
 12 13  1  0  0  0
 13 14  2  0  0  0
 14 15  1  0  0  0
 14 35  1  0  0  0
 15 16  2  0  0  0
 15 36  1  0  0  0
 16 17  1  0  0  0
 16 37  1  0  0  0
 17 38  1  0  0  0
 18 19  1  0  0  0
 18 39  1  0  0  0
 19 20  2  0  0  0
 19 24  1  0  0  0
 20 21  1  0  0  0
 20 40  1  0  0  0
 21 22  2  0  0  0
 21 25  1  0  0  0
 22 23  1  0  0  0
 22 41  1  0  0  0
 23 24  2  0  0  0
 23 42  1  0  0  0
 24 43  1  0  0  0
 25 26  1  0  0  0
 26 27  1  0  0  0
 26 28  1  0  0  0
 26 29  1  0  0  0
M  END
> <s_m_entry_id>
5697

> <s_m_entry_name>
dock_pv.92

> <s_m_Source_Path>
/home/csk/Desktop/cluster/DUD-E-result/igf1r

> <s_m_Source_File>
dock_pv.maegz

> <i_m_Source_File_Index>
92

> <chembl_id>
CHEMBL1760053

> <chembl_pref_name>
None

> <i_lp_mmshare_version>
53161

> <r_lp_tautomer_probability>
0.999999624730965

> <s_lp_Force_Field>
OPLS_2005

> <r_lp_Energy>
11.590854

> <b_lp_Chiralities_Consistent>
1

> <s_lp_Variant>
CHEMBL1957_lig822-1

> <s_i_glide_gridfile>
glide-grid_2oj9

> <i_i_glide_lignum>
1053

> <i_i_glide_rotatable_bonds>
6

> <r_i_docking_score>
-7.75500865155432

> <r_i_glide_ligand_efficiency>
-0.267414091432908

> <r_i_glide_ligand_efficiency_sa>
-0.821580811612647

> <r_i_glide_ligand_efficiency_ln>
-1.77570033115397

> <r_i_glide_gscore>
-7.75500865155432

> <r_i_glide_lipo>
-3.78309196560383

> <r_i_glide_hbond>
-0.308195311217152

> <r_i_glide_metal>
0

> <r_i_glide_rewards>
-1.45646149456643

> <r_i_glide_evdw>
-45.6236915588379

> <r_i_glide_ecoul>
-3.40718340873718

> <r_i_glide_erotb>
0.619861012908193

> <r_i_glide_esite>
-0.0348588038226241

> <r_i_glide_emodel>
-67.6438590919757

> <r_i_glide_energy>
-49.0308749675751

> <r_i_glide_einternal>
2.95026397705078

> <i_i_glide_confnum>
14

> <i_i_glide_posenum>
206

> <r_i_glide_eff_state_penalty>
0

> <s_user_duplicate_titles>
CHEMBL1957_lig822

> <i_f3d_flags>
0

> <s_m_subgroup_title>
dock_pv

> <s_m_subgroupid>
dock_pv

> <b_m_subgroup_collapsed>
1

$$$$
CHEMBL1957_lig181
                    3D
 Schrodinger Suite 2021-1.
 61 65  0  0  1  0            999 V2000
    5.7932   -2.6740   22.6664 C   0  0  0  0  0  0
    4.8628   -2.7458   21.6209 C   0  0  0  0  0  0
    4.4953   -3.9636   21.0380 C   0  0  0  0  0  0
    6.4386   -3.8249   23.1444 C   0  0  0  0  0  0
    6.0581   -5.0393   22.5726 C   0  0  0  0  0  0
    5.0977   -5.1318   21.5453 C   0  0  0  0  0  0
    4.9055   -6.4429   21.1901 N   0  0  0  0  0  0
    5.7306   -7.1643   21.9241 C   0  0  0  0  0  0
    6.4257   -6.3440   22.7866 N   0  0  0  0  0  0
    6.0364   -1.4369   23.3040 N   0  0  0  0  0  0
    6.2901   -1.2168   24.6385 C   0  0  0  0  0  0
    6.4390    0.0405   24.9728 N   0  0  0  0  0  0
    6.3213    0.6894   23.8340 C   0  0  0  0  0  0
    6.0380   -0.1695   22.7752 C   0  0  0  0  0  0
    5.8817   -8.6529   21.8490 C   0  0  0  0  0  0
    6.6109   -9.3883   22.7565 C   0  0  0  0  0  0
    6.6477  -10.8408   22.6370 C   0  0  0  0  0  0
    6.0543  -11.4105   21.5801 C   0  0  0  0  0  0
    5.3931  -10.6946   20.6378 N   0  0  0  0  0  0
    5.2272   -9.3518   20.7122 C   0  0  0  0  0  0
    4.5266   -8.8542   19.8384 O   0  0  0  0  0  0
    3.4754   -3.9723   19.9130 C   0  0  0  0  0  0
    7.3686   -8.8559   23.7767 N   0  0  0  0  0  0
    8.7461   -8.3916   23.5694 C   0  0  1  0  0  0
    9.4201   -7.8214   24.8410 C   0  0  0  0  0  0
    9.6549   -9.4065   22.8216 C   0  0  0  0  0  0
   10.0382   -8.8541   21.5868 O   0  0  0  0  0  0
    9.5306   -8.8146   25.9919 C   0  0  0  0  0  0
   10.7063   -9.5358   26.2157 C   0  0  0  0  0  0
   10.7749  -10.4548   27.2621 C   0  0  0  0  0  0
    9.6723  -10.6516   28.0947 C   0  0  0  0  0  0
    8.4860   -9.9292   27.8849 C   0  0  0  0  0  0
    8.4373   -9.0144   26.8332 C   0  0  0  0  0  0
    7.3411  -10.0544   28.6468 O   0  0  0  0  0  0
    7.3365  -10.9581   29.7462 C   0  0  0  0  0  0
    4.3944   -1.8410   21.2633 H   0  0  0  0  0  0
    7.1712   -3.7836   23.9377 H   0  0  0  0  0  0
    7.1058   -6.7072   23.4358 H   0  0  0  0  0  0
    6.3413   -2.0530   25.3114 H   0  0  0  0  0  0
    6.4474    1.7608   23.7800 H   0  0  0  0  0  0
    5.8939   -0.0063   21.7167 H   0  0  0  0  0  0
    7.1322  -11.4406   23.3929 H   0  0  0  0  0  0
    6.0096  -12.4767   21.4026 H   0  0  0  0  0  0
    4.9262  -11.1296   19.8542 H   0  0  0  0  0  0
    2.8300   -3.0940   19.9441 H   0  0  0  0  0  0
    3.9752   -4.0046   18.9444 H   0  0  0  0  0  0
    2.8371   -4.8522   19.9925 H   0  0  0  0  0  0
    6.8719   -8.3202   24.4717 H   0  0  0  0  0  0
    8.6549   -7.5264   22.9115 H   0  0  0  0  0  0
    8.8757   -6.9423   25.1907 H   0  0  0  0  0  0
   10.4155   -7.4452   24.5962 H   0  0  0  0  0  0
   10.5315   -9.6932   23.4021 H   0  0  0  0  0  0
    9.1582  -10.3484   22.6078 H   0  0  0  0  0  0
   10.7625   -8.2255   21.7624 H   0  0  0  0  0  0
   11.5664   -9.3905   25.5775 H   0  0  0  0  0  0
   11.6842  -11.0135   27.4290 H   0  0  0  0  0  0
    9.7554  -11.3697   28.8954 H   0  0  0  0  0  0
    7.5335   -8.4527   26.6563 H   0  0  0  0  0  0
    6.3633  -10.9235   30.2358 H   0  0  0  0  0  0
    7.5053  -11.9856   29.4202 H   0  0  0  0  0  0
    8.0892  -10.6884   30.4889 H   0  0  0  0  0  0
  1  4  1  0  0  0
  1 10  1  0  0  0
  1  2  2  0  0  0
  2  3  1  0  0  0
  2 36  1  0  0  0
  3 22  1  0  0  0
  3  6  2  0  0  0
  4  5  2  0  0  0
  4 37  1  0  0  0
  5  9  1  0  0  0
  5  6  1  0  0  0
  6  7  1  0  0  0
  7  8  2  0  0  0
  8  9  1  0  0  0
  8 15  1  0  0  0
  9 38  1  0  0  0
 10 11  1  0  0  0
 10 14  1  0  0  0
 11 12  2  0  0  0
 11 39  1  0  0  0
 12 13  1  0  0  0
 13 14  2  0  0  0
 13 40  1  0  0  0
 14 41  1  0  0  0
 15 20  1  0  0  0
 15 16  2  0  0  0
 16 17  1  0  0  0
 16 23  1  0  0  0
 17 18  2  0  0  0
 17 42  1  0  0  0
 18 19  1  0  0  0
 18 43  1  0  0  0
 19 20  1  0  0  0
 19 44  1  0  0  0
 20 21  2  0  0  0
 22 45  1  0  0  0
 22 46  1  0  0  0
 22 47  1  0  0  0
 23 24  1  0  0  0
 23 48  1  0  0  0
 24 25  1  0  0  0
 24 26  1  0  0  0
 24 49  1  0  0  0
 25 28  1  0  0  0
 25 50  1  0  0  0
 25 51  1  0  0  0
 26 27  1  0  0  0
 26 52  1  0  0  0
 26 53  1  0  0  0
 27 54  1  0  0  0
 28 29  2  0  0  0
 28 33  1  0  0  0
 29 30  1  0  0  0
 29 55  1  0  0  0
 30 31  2  0  0  0
 30 56  1  0  0  0
 31 32  1  0  0  0
 31 57  1  0  0  0
 32 33  2  0  0  0
 32 34  1  0  0  0
 33 58  1  0  0  0
 34 35  1  0  0  0
 35 59  1  0  0  0
 35 60  1  0  0  0
 35 61  1  0  0  0
M  END
> <s_m_entry_id>
5698

> <s_m_entry_name>
dock_pv.93

> <s_m_Source_Path>
/home/csk/Desktop/cluster/DUD-E-result/igf1r

> <s_m_Source_File>
dock_pv.maegz

> <i_m_Source_File_Index>
93

> <chembl_id>
CHEMBL429106

> <chembl_pref_name>
None

> <i_lp_mmshare_version>
53161

> <r_lp_tautomer_probability>
0.999206294981429

> <s_lp_Force_Field>
OPLS_2005

> <r_lp_Energy>
45.043504

> <b_lp_Chiralities_Consistent>
1

> <s_lp_Variant>
CHEMBL1957_lig181-1

> <s_i_glide_gridfile>
glide-grid_2oj9

> <i_i_glide_lignum>
349

> <i_i_glide_rotatable_bonds>
9

> <r_i_docking_score>
-7.75372275957465

> <r_i_glide_ligand_efficiency>
-0.221534935987847

> <r_i_glide_ligand_efficiency_sa>
-0.724655464780831

> <r_i_glide_ligand_efficiency_ln>
-1.70211423033161

> <r_i_glide_gscore>
-7.75372275957465

> <r_i_glide_lipo>
-2.34835369254028

> <r_i_glide_hbond>
-0.991545300502648

> <r_i_glide_metal>
0

> <r_i_glide_rewards>
-1.2965270860321

> <r_i_glide_evdw>
-43.7669792175293

> <r_i_glide_ecoul>
-10.452094078064

> <r_i_glide_erotb>
0.638866392086442

> <r_i_glide_esite>
0

> <r_i_glide_emodel>
-72.3918916615382

> <r_i_glide_energy>
-54.2190732955933

> <r_i_glide_einternal>
14.0501184463501

> <i_i_glide_confnum>
16

> <i_i_glide_posenum>
43

> <r_i_glide_eff_state_penalty>
0

> <s_user_duplicate_titles>
CHEMBL1957_lig181,410378

> <i_f3d_flags>
0

> <s_m_subgroup_title>
dock_pv

> <s_m_subgroupid>
dock_pv

> <b_m_subgroup_collapsed>
1

$$$$
CHEMBL1957_lig1619
                    3D
 Schrodinger Suite 2021-1.
 41 44  0  0  1  0            999 V2000
    5.2631   -9.7470   20.6777 C   0  0  0  0  0  0
    6.0459  -10.3314   21.6762 C   0  0  0  0  0  0
    6.4392   -9.6540   22.7861 N   0  0  0  0  0  0
    6.0075   -8.3749   22.9013 C   0  0  0  0  0  0
    5.2440   -7.7341   21.9794 N   0  0  0  0  0  0
    4.8930   -8.4134   20.8555 C   0  0  0  0  0  0
    4.1638   -7.7771   19.8380 N   0  0  0  0  0  0
    6.3820   -7.7089   24.0773 N   0  0  0  0  0  0
    3.8175   -6.4508   19.7366 C   0  0  0  0  0  0
    6.1018   -6.2898   24.2908 C   0  0  0  0  0  0
    4.0098   -5.3934   20.6381 C   0  0  0  0  0  0
    3.6169   -4.2308   20.0123 C   0  0  0  0  0  0
    3.1985   -4.6664   18.7860 N   0  0  0  0  0  0
    3.2381   -5.9988   18.6423 N   0  0  0  0  0  0
    7.1295   -5.3704   23.6633 C   0  0  0  0  0  0
    8.2600   -4.7963   24.2381 C   0  0  0  0  0  0
    8.8380   -4.0542   23.2469 N   0  0  0  0  0  0
    8.0404   -4.2227   22.1512 C   0  0  0  0  0  0
    7.0150   -5.0024   22.3924 N   0  0  0  0  0  0
    3.6177   -2.7905   20.4583 C   0  0  0  0  0  0
    4.9021   -2.2292   21.0072 C   0  0  0  0  0  0
    4.3385   -1.7087   19.6946 C   0  0  0  0  0  0
    6.5062  -11.7711   21.5809 C   0  0  0  0  0  0
    4.9672  -10.3063   19.8062 H   0  0  0  0  0  0
    4.0369   -8.3516   19.0149 H   0  0  0  0  0  0
    7.1478   -8.1193   24.5893 H   0  0  0  0  0  0
    6.1167   -6.1324   25.3696 H   0  0  0  0  0  0
    5.0808   -6.0529   23.9895 H   0  0  0  0  0  0
    4.4384   -5.4436   21.6253 H   0  0  0  0  0  0
    2.8286   -4.0600   18.0667 H   0  0  0  0  0  0
    8.6928   -4.8570   25.2258 H   0  0  0  0  0  0
    8.2900   -3.7420   21.2166 H   0  0  0  0  0  0
    9.6950   -3.5048   23.2961 H   0  0  0  0  0  0
    2.6963   -2.4897   20.9586 H   0  0  0  0  0  0
    4.8393   -1.6541   21.9286 H   0  0  0  0  0  0
    5.7993   -2.8478   20.9767 H   0  0  0  0  0  0
    4.8377   -1.9690   18.7609 H   0  0  0  0  0  0
    3.9047   -0.7101   19.6630 H   0  0  0  0  0  0
    6.1859  -12.2339   20.6464 H   0  0  0  0  0  0
    7.5941  -11.8261   21.6318 H   0  0  0  0  0  0
    6.0926  -12.3509   22.4065 H   0  0  0  0  0  0
  1  2  2  0  0  0
  1  6  1  0  0  0
  1 24  1  0  0  0
  2  3  1  0  0  0
  2 23  1  0  0  0
  3  4  2  0  0  0
  4  5  1  0  0  0
  4  8  1  0  0  0
  5  6  2  0  0  0
  6  7  1  0  0  0
  7  9  1  0  0  0
  7 25  1  0  0  0
  8 10  1  0  0  0
  8 26  1  0  0  0
  9 11  1  0  0  0
  9 14  2  0  0  0
 10 27  1  0  0  0
 10 28  1  0  0  0
 10 15  1  0  0  0
 11 12  2  0  0  0
 11 29  1  0  0  0
 12 13  1  0  0  0
 12 20  1  0  0  0
 13 14  1  0  0  0
 13 30  1  0  0  0
 15 16  2  0  0  0
 15 19  1  0  0  0
 16 31  1  0  0  0
 16 17  1  0  0  0
 17 33  1  0  0  0
 17 18  1  0  0  0
 18 32  1  0  0  0
 18 19  2  0  0  0
 20 21  1  0  0  0
 20 22  1  0  0  0
 20 34  1  0  0  0
 21 22  1  0  0  0
 21 35  1  0  0  0
 21 36  1  0  0  0
 22 37  1  0  0  0
 22 38  1  0  0  0
 23 39  1  0  0  0
 23 40  1  0  0  0
 23 41  1  0  0  0
M  END
> <s_m_entry_id>
5699

> <s_m_entry_name>
dock_pv.94

> <s_m_Source_Path>
/home/csk/Desktop/cluster/DUD-E-result/igf1r

> <s_m_Source_File>
dock_pv.maegz

> <i_m_Source_File_Index>
94

> <chembl_id>
CHEMBL3963071

> <chembl_pref_name>
None

> <i_lp_mmshare_version>
53161

> <r_lp_tautomer_probability>
0.421299933010337

> <s_lp_Force_Field>
OPLS_2005

> <r_lp_Energy>
2.394391

> <b_lp_Chiralities_Consistent>
1

> <s_lp_Variant>
CHEMBL1957_lig1619-2

> <s_i_glide_gridfile>
glide-grid_2oj9

> <i_i_glide_lignum>
2346

> <i_i_glide_rotatable_bonds>
6

> <r_i_docking_score>
-7.7089499215353

> <r_i_glide_ligand_efficiency>
-0.335171735718926

> <r_i_glide_ligand_efficiency_sa>
-0.953183830794356

> <r_i_glide_ligand_efficiency_ln>
-1.86409399192045

> <r_i_glide_gscore>
-7.7089499215353

> <r_i_glide_lipo>
-2.41525466010387

> <r_i_glide_hbond>
-0.616182839419979

> <r_i_glide_metal>
0

> <r_i_glide_rewards>
-2.57740390912865

> <r_i_glide_evdw>
-33.2192573547363

> <r_i_glide_ecoul>
-8.14054203033447

> <r_i_glide_erotb>
0.807963857982225

> <r_i_glide_esite>
-0.0260281985780509

> <r_i_glide_emodel>
-57.4341921259388

> <r_i_glide_energy>
-41.3597993850708

> <r_i_glide_einternal>
5.59430122375488

> <i_i_glide_confnum>
41

> <i_i_glide_posenum>
183

> <r_i_glide_eff_state_penalty>
0

> <s_user_duplicate_titles>
CHEMBL1957_lig1619

> <i_f3d_flags>
0

> <s_m_subgroup_title>
dock_pv

> <s_m_subgroupid>
dock_pv

> <b_m_subgroup_collapsed>
1

$$$$
CHEMBL1957_lig3094
                    3D
 Schrodinger Suite 2021-1.
 31 33  0  0  1  0            999 V2000
    4.8650   -4.6098   21.7558 N   0  0  0  0  0  0
    3.6380   -6.0541   20.2380 N   0  0  0  0  0  0
    2.8380   -4.9540   18.2291 N   0  0  0  0  0  0
    3.1330   -2.6691   17.8380 N   0  0  0  0  0  0
    3.9497   -3.6434   19.9123 C   0  0  0  0  0  0
    4.0781   -4.8597   20.6382 C   0  0  0  0  0  0
    4.6289   -2.6184   20.6506 C   0  0  0  0  0  0
    5.1351   -3.2513   21.7736 C   0  0  0  0  0  0
    3.2870   -3.7597   18.6789 C   0  0  0  0  0  0
    5.3265   -5.6185   22.7347 C   0  0  0  0  0  0
    4.8255   -1.2354   20.2488 C   0  0  0  0  0  0
    3.0478   -6.0302   19.0213 C   0  0  0  0  0  0
    5.9507   -6.8762   22.0853 C   0  0  0  0  0  0
    6.4338   -5.1397   23.6964 C   0  0  0  0  0  0
    7.0279   -7.3995   23.0496 C   0  0  0  0  0  0
    7.0378   -6.4343   24.2374 C   0  0  0  0  0  0
    5.0228   -0.1031   19.8379 C   0  0  0  0  0  0
    3.5033   -1.7708   18.1121 H   0  0  0  0  0  0
    2.6331   -2.8076   16.9614 H   0  0  0  0  0  0
    5.7312   -2.8341   22.5709 H   0  0  0  0  0  0
    4.4441   -5.9072   23.3115 H   0  0  0  0  0  0
    2.7102   -6.9808   18.6378 H   0  0  0  0  0  0
    6.4322   -6.6236   21.1381 H   0  0  0  0  0  0
    5.1982   -7.6400   21.8825 H   0  0  0  0  0  0
    6.0547   -4.5041   24.4977 H   0  0  0  0  0  0
    7.2122   -4.5933   23.1599 H   0  0  0  0  0  0
    8.0021   -7.4081   22.5574 H   0  0  0  0  0  0
    6.8220   -8.4227   23.3693 H   0  0  0  0  0  0
    8.0372   -6.2873   24.6491 H   0  0  0  0  0  0
    6.4127   -6.8229   25.0436 H   0  0  0  0  0  0
    5.2380    0.8619   19.4381 H   0  0  0  0  0  0
  1  6  1  0  0  0
  1  8  1  0  0  0
  1 10  1  0  0  0
  2  6  1  0  0  0
  2 12  2  0  0  0
  3  9  2  0  0  0
  3 12  1  0  0  0
  4  9  1  0  0  0
  4 18  1  0  0  0
  4 19  1  0  0  0
  5  6  2  0  0  0
  5  7  1  0  0  0
  5  9  1  0  0  0
  7  8  2  0  0  0
  7 11  1  0  0  0
  8 20  1  0  0  0
 10 13  1  0  0  0
 10 14  1  0  0  0
 10 21  1  0  0  0
 11 17  3  0  0  0
 12 22  1  0  0  0
 13 15  1  0  0  0
 13 23  1  0  0  0
 13 24  1  0  0  0
 14 16  1  0  0  0
 14 25  1  0  0  0
 14 26  1  0  0  0
 15 16  1  0  0  0
 15 27  1  0  0  0
 15 28  1  0  0  0
 16 29  1  0  0  0
 16 30  1  0  0  0
 17 31  1  0  0  0
M  END
> <s_m_entry_id>
5700

> <s_m_entry_name>
dock_pv.95

> <s_m_Source_Path>
/home/csk/Desktop/cluster/DUD-E-result/igf1r

> <s_m_Source_File>
dock_pv.maegz

> <i_m_Source_File_Index>
95

> <chembl_id>
CHEMBL1993877

> <chembl_pref_name>
None

> <i_lp_mmshare_version>
53161

> <r_lp_tautomer_probability>
1

> <s_lp_Force_Field>
OPLS_2005

> <r_lp_Energy>
26.828746

> <b_lp_Chiralities_Consistent>
1

> <s_lp_Variant>
CHEMBL1957_lig3094-1

> <s_i_glide_gridfile>
glide-grid_2oj9

> <i_i_glide_lignum>
4303

> <i_i_glide_rotatable_bonds>
2

> <r_i_docking_score>
-7.70634561026489

> <r_i_glide_ligand_efficiency>
-0.453314447662641

> <r_i_glide_ligand_efficiency_sa>
-1.16559909295356

> <r_i_glide_ligand_efficiency_ln>
-2.01041395783889

> <r_i_glide_gscore>
-7.70634561026489

> <r_i_glide_lipo>
-2.07769867253218

> <r_i_glide_hbond>
-0.479922081306956

> <r_i_glide_metal>
0

> <r_i_glide_rewards>
-3.65225950921407

> <r_i_glide_evdw>
-24.4091205596924

> <r_i_glide_ecoul>
-4.93730878829956

> <r_i_glide_erotb>
0.464586999017867

> <r_i_glide_esite>
0

> <r_i_glide_emodel>
-43.229941008953

> <r_i_glide_energy>
-29.3464293479919

> <r_i_glide_einternal>
0.817341327667236

> <i_i_glide_confnum>
4

> <i_i_glide_posenum>
378

> <r_i_glide_eff_state_penalty>
0

> <s_user_duplicate_titles>
CHEMBL1957_lig3094

> <i_f3d_flags>
0

> <s_m_subgroup_title>
dock_pv

> <s_m_subgroupid>
dock_pv

> <b_m_subgroup_collapsed>
1

$$$$
CHEMBL1957_lig2749
                    3D
 Schrodinger Suite 2021-1.
 41 44  0  0  1  0            999 V2000
    6.6787   -4.0772   23.5493 N   0  0  0  0  0  0
    5.4651   -0.7884   20.6377 N   0  0  0  0  0  0
    6.8397   -2.8695   24.1045 N   0  0  0  0  0  0
    4.1746   -0.8538   18.5733 N   0  0  0  0  0  0
    3.2376   -3.0182   18.0579 N   0  0  0  0  0  0
    4.4382   -7.1045   22.8749 N   0  0  0  0  0  0
    5.1291   -2.0782   20.9078 C   0  0  0  0  0  0
    4.2831   -2.8080   20.0443 C   0  0  0  0  0  0
    5.7791   -2.6686   22.1046 C   0  0  0  0  0  0
    3.8847   -2.1183   18.8678 C   0  0  0  0  0  0
    6.0387   -4.0063   22.3396 C   0  0  0  0  0  0
    7.1374   -5.2776   24.2528 C   0  0  2  0  0  0
    6.3252   -2.0342   23.2326 C   0  0  0  0  0  0
    3.6899   -4.1145   19.9696 C   0  0  0  0  0  0
    8.0713   -6.1358   23.3434 C   0  0  0  0  0  0
    4.9611   -0.2514   19.5003 C   0  0  0  0  0  0
    3.1915   -4.2370   18.6891 C   0  0  0  0  0  0
    5.9037   -6.0463   24.7811 C   0  0  0  0  0  0
    9.2753   -5.3682   22.7601 C   0  0  0  0  0  0
    8.7324   -7.3078   24.1035 C   0  0  0  0  0  0
   10.3348   -5.4714   23.8474 C   0  0  0  0  0  0
   10.1894   -6.9003   24.3739 C   0  0  0  0  0  0
    5.0792   -6.6420   23.7184 C   0  0  0  0  0  0
    2.8546   -2.8574   17.1334 H   0  0  0  0  0  0
    5.8413   -4.8960   21.7609 H   0  0  0  0  0  0
    7.7215   -4.9496   25.1136 H   0  0  0  0  0  0
    6.3376   -0.9687   23.4057 H   0  0  0  0  0  0
    3.7485   -4.9243   20.6810 H   0  0  0  0  0  0
    7.4921   -6.5430   22.5097 H   0  0  0  0  0  0
    5.2376    0.7695   19.2897 H   0  0  0  0  0  0
    2.7548   -5.0851   18.1854 H   0  0  0  0  0  0
    6.2032   -6.8596   25.4377 H   0  0  0  0  0  0
    5.2589   -5.3966   25.3747 H   0  0  0  0  0  0
    9.0705   -4.3265   22.5109 H   0  0  0  0  0  0
    9.6244   -5.8460   21.8409 H   0  0  0  0  0  0
    8.6946   -8.2236   23.5116 H   0  0  0  0  0  0
    8.2355   -7.5340   25.0464 H   0  0  0  0  0  0
   10.1165   -4.7521   24.6370 H   0  0  0  0  0  0
   11.3350   -5.2550   23.4693 H   0  0  0  0  0  0
   10.4375   -6.9713   25.4328 H   0  0  0  0  0  0
   10.8642   -7.5701   23.8386 H   0  0  0  0  0  0
  1  3  1  0  0  0
  1 11  1  0  0  0
  1 12  1  0  0  0
  2  7  2  0  0  0
  2 16  1  0  0  0
  3 13  2  0  0  0
  4 10  1  0  0  0
  4 16  2  0  0  0
  5 10  1  0  0  0
  5 17  1  0  0  0
  5 24  1  0  0  0
  6 23  3  0  0  0
  7  8  1  0  0  0
  7  9  1  0  0  0
  8 10  2  0  0  0
  8 14  1  0  0  0
  9 11  2  0  0  0
  9 13  1  0  0  0
 11 25  1  0  0  0
 12 15  1  0  0  0
 12 18  1  0  0  0
 12 26  1  0  0  0
 13 27  1  0  0  0
 14 17  2  0  0  0
 14 28  1  0  0  0
 15 19  1  0  0  0
 15 20  1  0  0  0
 15 29  1  0  0  0
 16 30  1  0  0  0
 17 31  1  0  0  0
 18 23  1  0  0  0
 18 32  1  0  0  0
 18 33  1  0  0  0
 19 21  1  0  0  0
 19 34  1  0  0  0
 19 35  1  0  0  0
 20 22  1  0  0  0
 20 36  1  0  0  0
 20 37  1  0  0  0
 21 22  1  0  0  0
 21 38  1  0  0  0
 21 39  1  0  0  0
 22 40  1  0  0  0
 22 41  1  0  0  0
M  END
> <s_m_entry_id>
5701

> <s_m_entry_name>
dock_pv.96

> <s_m_Source_Path>
/home/csk/Desktop/cluster/DUD-E-result/igf1r

> <s_m_Source_File>
dock_pv.maegz

> <i_m_Source_File_Index>
96

> <chembl_id>
CHEMBL2002099

> <chembl_pref_name>
None

> <i_lp_mmshare_version>
53161

> <r_lp_tautomer_probability>
0.999998369746258

> <s_lp_Force_Field>
OPLS_2005

> <r_lp_Energy>
26.449238

> <b_lp_Chiralities_Consistent>
1

> <s_lp_Variant>
CHEMBL1957_lig2749-1

> <s_i_glide_gridfile>
glide-grid_2oj9

> <i_i_glide_lignum>
3801

> <i_i_glide_rotatable_bonds>
4

> <r_i_docking_score>
-7.70321419682818

> <r_i_glide_ligand_efficiency>
-0.334922356383834

> <r_i_glide_ligand_efficiency_sa>
-0.95247462913857

> <r_i_glide_ligand_efficiency_ln>
-1.86270704167759

> <r_i_glide_gscore>
-7.70321419682818

> <r_i_glide_lipo>
-1.92750639119668

> <r_i_glide_hbond>
-0.319388516397729

> <r_i_glide_metal>
0

> <r_i_glide_rewards>
-3.48866179103419

> <r_i_glide_evdw>
-37.5086708068848

> <r_i_glide_ecoul>
-4.55069494247437

> <r_i_glide_erotb>
0.590380283515821

> <r_i_glide_esite>
0

> <r_i_glide_emodel>
-58.2638829002536

> <r_i_glide_energy>
-42.0593657493591

> <r_i_glide_einternal>
2.92902827262878

> <i_i_glide_confnum>
41

> <i_i_glide_posenum>
355

> <r_i_glide_eff_state_penalty>
0

> <s_user_duplicate_titles>
CHEMBL1957_lig2749

> <i_f3d_flags>
0

> <s_m_subgroup_title>
dock_pv

> <s_m_subgroupid>
dock_pv

> <b_m_subgroup_collapsed>
1

$$$$
CHEMBL1957_lig2697
                    3D
 Schrodinger Suite 2021-1.
 43 46  0  0  1  0            999 V2000
    5.0435   -7.4422   21.7969 O   0  0  0  0  0  0
    9.0209  -12.0642   22.0311 O   0  0  0  0  0  0
    7.6386   -2.0543   24.1661 N   0  0  0  0  0  0
    8.2593   -4.3425   24.6179 N   0  0  0  0  0  0
    7.0615   -7.3399   22.8575 N   0  0  0  0  0  0
    6.7184   -3.6272   22.8345 C   0  0  0  0  0  0
    6.2742   -2.3329   22.3748 C   0  0  0  0  0  0
    7.5980   -3.4066   23.9337 C   0  0  0  0  0  0
    6.5242   -4.9604   22.4371 C   0  0  0  0  0  0
    7.1683   -5.9743   23.1634 C   0  0  0  0  0  0
    5.3912   -2.0111   21.2139 C   0  0  0  0  0  0
    6.8102   -1.4225   23.2738 C   0  0  0  0  0  0
    8.0187   -5.6164   24.2138 C   0  0  0  0  0  0
    6.0906   -7.9805   22.1679 C   0  0  0  0  0  0
    6.3604   -9.4367   21.8356 C   0  0  0  0  0  0
    5.6380   -0.8415   20.4855 C   0  0  0  0  0  0
    4.3739   -2.8771   20.8049 C   0  0  0  0  0  0
    7.5810  -10.0655   22.1538 C   0  0  0  0  0  0
    7.8380  -11.3953   21.7829 C   0  0  0  0  0  0
    5.3917  -10.1842   21.1495 C   0  0  0  0  0  0
    4.8793   -0.5446   19.3582 C   0  0  0  0  0  0
    3.6132   -2.5810   19.6775 C   0  0  0  0  0  0
    6.8501  -12.1034   21.1017 C   0  0  0  0  0  0
    5.6328  -11.5067   20.7889 C   0  0  0  0  0  0
    3.8740   -1.4196   18.9562 C   0  0  0  0  0  0
   10.0926  -11.3801   22.6736 C   0  0  0  0  0  0
    8.2034   -1.5550   24.8430 H   0  0  0  0  0  0
    7.8109   -7.9127   23.2079 H   0  0  0  0  0  0
    5.9058   -5.1847   21.5839 H   0  0  0  0  0  0
    6.7182   -0.3474   23.3147 H   0  0  0  0  0  0
    8.5389   -6.3738   24.7844 H   0  0  0  0  0  0
    6.4368   -0.1725   20.7687 H   0  0  0  0  0  0
    4.1659   -3.7800   21.3575 H   0  0  0  0  0  0
    8.3528   -9.5195   22.6703 H   0  0  0  0  0  0
    4.4407   -9.7460   20.8790 H   0  0  0  0  0  0
    5.0907    0.3473   18.7871 H   0  0  0  0  0  0
    2.8334   -3.2558   19.3569 H   0  0  0  0  0  0
    7.0330  -13.1263   20.8077 H   0  0  0  0  0  0
    4.8791  -12.0645   20.2513 H   0  0  0  0  0  0
    3.2921   -1.1988   18.0731 H   0  0  0  0  0  0
   10.9434  -12.0545   22.7696 H   0  0  0  0  0  0
   10.4236  -10.5164   22.0944 H   0  0  0  0  0  0
    9.8168  -11.0538   23.6773 H   0  0  0  0  0  0
  1 14  2  0  0  0
  2 19  1  0  0  0
  2 26  1  0  0  0
  3  8  1  0  0  0
  3 12  1  0  0  0
  3 27  1  0  0  0
  4  8  2  0  0  0
  4 13  1  0  0  0
  5 10  1  0  0  0
  5 14  1  0  0  0
  5 28  1  0  0  0
  6  7  1  0  0  0
  6  8  1  0  0  0
  6  9  2  0  0  0
  7 11  1  0  0  0
  7 12  2  0  0  0
  9 10  1  0  0  0
  9 29  1  0  0  0
 10 13  2  0  0  0
 11 16  2  0  0  0
 11 17  1  0  0  0
 12 30  1  0  0  0
 13 31  1  0  0  0
 14 15  1  0  0  0
 15 18  2  0  0  0
 15 20  1  0  0  0
 16 21  1  0  0  0
 16 32  1  0  0  0
 17 22  2  0  0  0
 17 33  1  0  0  0
 18 19  1  0  0  0
 18 34  1  0  0  0
 19 23  2  0  0  0
 20 24  2  0  0  0
 20 35  1  0  0  0
 21 25  2  0  0  0
 21 36  1  0  0  0
 22 25  1  0  0  0
 22 37  1  0  0  0
 23 24  1  0  0  0
 23 38  1  0  0  0
 24 39  1  0  0  0
 25 40  1  0  0  0
 26 41  1  0  0  0
 26 42  1  0  0  0
 26 43  1  0  0  0
M  END
> <s_m_entry_id>
5702

> <s_m_entry_name>
dock_pv.97

> <s_m_Source_Path>
/home/csk/Desktop/cluster/DUD-E-result/igf1r

> <s_m_Source_File>
dock_pv.maegz

> <i_m_Source_File_Index>
97

> <chembl_id>
CHEMBL1982924

> <chembl_pref_name>
None

> <i_lp_mmshare_version>
53161

> <r_lp_tautomer_probability>
0.999998432528457

> <s_lp_Force_Field>
OPLS_2005

> <r_lp_Energy>
27.783578

> <b_lp_Chiralities_Consistent>
1

> <s_lp_Variant>
CHEMBL1957_lig2697-1

> <s_i_glide_gridfile>
glide-grid_2oj9

> <i_i_glide_lignum>
3729

> <i_i_glide_rotatable_bonds>
5

> <r_i_docking_score>
-7.69237328386761

> <r_i_glide_ligand_efficiency>
-0.295860510917985

> <r_i_glide_ligand_efficiency_sa>
-0.876485599439635

> <r_i_glide_ligand_efficiency_ln>
-1.80652862498084

> <r_i_glide_gscore>
-7.69237328386761

> <r_i_glide_lipo>
-3.14751267755407

> <r_i_glide_hbond>
-0.199666078249153

> <r_i_glide_metal>
0

> <r_i_glide_rewards>
-2.5687474288641

> <r_i_glide_evdw>
-41.9574546813965

> <r_i_glide_ecoul>
-2.14844298362732

> <r_i_glide_erotb>
0.643692082413636

> <r_i_glide_esite>
0

> <r_i_glide_emodel>
-63.5113471166525

> <r_i_glide_energy>
-44.1058976650238

> <r_i_glide_einternal>
1.29502439498901

> <i_i_glide_confnum>
8

> <i_i_glide_posenum>
398

> <r_i_glide_eff_state_penalty>
0

> <s_user_duplicate_titles>
CHEMBL1957_lig2697

> <i_f3d_flags>
0

> <s_m_subgroup_title>
dock_pv

> <s_m_subgroupid>
dock_pv

> <b_m_subgroup_collapsed>
1

$$$$
CHEMBL1957_lig2019
                    3D
 Schrodinger Suite 2021-1.
 55 60  0  0  1  0            999 V2000
    7.2379   -0.4537   25.4379 O   0  0  0  0  0  0
    7.0851   -1.2539   24.2889 C   0  0  1  0  0  0
    8.0380   -2.4271   24.2008 C   0  0  0  0  0  0
    7.3643   -3.3795   23.2018 C   0  0  2  0  0  0
    5.9619   -2.9672   23.0920 N   0  0  0  0  0  0
    5.7419   -1.8730   24.0369 C   0  0  0  0  0  0
    5.1981   -3.1588   21.9492 C   0  0  0  0  0  0
    4.8380   -4.4361   21.7133 N   0  0  0  0  0  0
    4.0575   -4.6838   20.6380 C   0  0  0  0  0  0
    3.7406   -6.0124   20.3238 N   0  0  0  0  0  0
    4.4380   -7.1500   20.6790 C   0  0  0  0  0  0
    5.2236   -7.5901   21.7408 C   0  0  0  0  0  0
    5.5950   -8.9199   21.4377 C   0  0  0  0  0  0
    5.1099   -9.2758   20.2706 N   0  0  0  0  0  0
    4.4352   -8.2195   19.8380 N   0  0  0  0  0  0
    6.4127   -9.9245   22.2331 C   0  0  0  0  0  0
    6.0372  -11.3914   22.2380 C   0  0  0  0  0  0
    7.2897  -10.9448   21.5270 C   0  0  0  0  0  0
    3.7363   -3.6556   19.7280 C   0  0  0  0  0  0
    3.1115   -3.5196   18.4619 C   0  0  0  0  0  0
    3.2379   -2.1884   18.1039 C   0  0  0  0  0  0
    3.9149   -1.4960   19.0954 C   0  0  0  0  0  0
    4.2296   -2.3825   20.0901 N   0  0  0  0  0  0
    4.9276   -2.0769   21.1871 N   0  0  0  0  0  0
    7.4735   -4.8509   23.6677 C   0  0  0  0  0  0
    6.7724   -5.2527   24.5995 O   0  0  0  0  0  0
    8.3503   -5.6238   22.9934 N   0  0  0  0  0  0
    8.7359   -6.9388   23.2885 C   0  0  0  0  0  0
    8.7302   -7.4770   24.5863 C   0  0  0  0  0  0
    9.1783   -8.7328   24.8450 N   0  0  0  0  0  0
    9.6416   -9.4518   23.7909 C   0  0  0  0  0  0
    9.6410   -8.9273   22.4965 C   0  0  0  0  0  0
    9.1848   -7.6746   22.2381 N   0  0  0  0  0  0
    8.1662   -0.1557   25.4382 H   0  0  0  0  0  0
    7.2380   -0.5920   23.4401 H   0  0  0  0  0  0
    8.2302   -2.8665   25.1770 H   0  0  0  0  0  0
    8.9700   -2.0334   23.8376 H   0  0  0  0  0  0
    7.8311   -3.2998   22.2167 H   0  0  0  0  0  0
    5.4005   -2.3038   24.9785 H   0  0  0  0  0  0
    5.0217   -1.1339   23.6944 H   0  0  0  0  0  0
    3.1204   -6.0526   19.5313 H   0  0  0  0  0  0
    5.4769   -7.0332   22.6315 H   0  0  0  0  0  0
    4.0346   -8.2060   18.9080 H   0  0  0  0  0  0
    6.7838   -9.5291   23.1788 H   0  0  0  0  0  0
    6.1201  -11.9374   23.1780 H   0  0  0  0  0  0
    5.1738  -11.7144   21.6549 H   0  0  0  0  0  0
    7.3073  -10.9671   20.4371 H   0  0  0  0  0  0
    8.2481  -11.2287   21.9594 H   0  0  0  0  0  0
    2.6446   -4.2766   17.8487 H   0  0  0  0  0  0
    2.8511   -1.7645   17.1880 H   0  0  0  0  0  0
    4.2103   -0.4599   19.1512 H   0  0  0  0  0  0
    8.7972   -5.2239   22.1829 H   0  0  0  0  0  0
    8.4154   -6.8999   25.4380 H   0  0  0  0  0  0
   10.0196  -10.4422   23.9965 H   0  0  0  0  0  0
   10.0336   -9.4904   21.6631 H   0  0  0  0  0  0
  1  2  1  0  0  0
  1 34  1  0  0  0
  2  3  1  0  0  0
  2  6  1  0  0  0
  2 35  1  0  0  0
  3  4  1  0  0  0
  3 36  1  0  0  0
  3 37  1  0  0  0
  4  5  1  0  0  0
  4 25  1  0  0  0
  4 38  1  0  0  0
  5  6  1  0  0  0
  5  7  1  0  0  0
  6 39  1  0  0  0
  6 40  1  0  0  0
  7  8  1  0  0  0
  7 24  2  0  0  0
  8  9  2  0  0  0
  9 10  1  0  0  0
  9 19  1  0  0  0
 10 11  1  0  0  0
 10 41  1  0  0  0
 11 12  2  0  0  0
 11 15  1  0  0  0
 12 13  1  0  0  0
 12 42  1  0  0  0
 13 14  2  0  0  0
 13 16  1  0  0  0
 14 15  1  0  0  0
 15 43  1  0  0  0
 16 17  1  0  0  0
 16 18  1  0  0  0
 16 44  1  0  0  0
 17 18  1  0  0  0
 17 45  1  0  0  0
 17 46  1  0  0  0
 18 47  1  0  0  0
 18 48  1  0  0  0
 19 20  2  0  0  0
 19 23  1  0  0  0
 20 21  1  0  0  0
 20 49  1  0  0  0
 21 22  2  0  0  0
 21 50  1  0  0  0
 22 23  1  0  0  0
 22 51  1  0  0  0
 23 24  1  0  0  0
 25 26  2  0  0  0
 25 27  1  0  0  0
 27 28  1  0  0  0
 27 52  1  0  0  0
 28 29  2  0  0  0
 28 33  1  0  0  0
 29 30  1  0  0  0
 29 53  1  0  0  0
 30 31  2  0  0  0
 31 32  1  0  0  0
 31 54  1  0  0  0
 32 33  2  0  0  0
 32 55  1  0  0  0
M  END
> <s_m_entry_id>
5703

> <s_m_entry_name>
dock_pv.98

> <s_m_Source_Path>
/home/csk/Desktop/cluster/DUD-E-result/igf1r

> <s_m_Source_File>
dock_pv.maegz

> <i_m_Source_File_Index>
98

> <chembl_id>
CHEMBL3655747

> <chembl_pref_name>
None

> <i_lp_mmshare_version>
53161

> <r_lp_tautomer_probability>
0.157399999843308

> <s_lp_Force_Field>
OPLS_2005

> <r_lp_Energy>
50.905032

> <b_lp_Chiralities_Consistent>
1

> <s_lp_Variant>
CHEMBL1957_lig2019-2

> <s_i_glide_gridfile>
glide-grid_2oj9

> <i_i_glide_lignum>
2960

> <i_i_glide_rotatable_bonds>
8

> <r_i_docking_score>
-7.6922663300203

> <r_i_glide_ligand_efficiency>
-0.233098979697585

> <r_i_glide_ligand_efficiency_sa>
-0.747672978795589

> <r_i_glide_ligand_efficiency_ln>
-1.71072020337303

> <r_i_glide_gscore>
-7.6922663300203

> <r_i_glide_lipo>
-2.59493039447904

> <r_i_glide_hbond>
-0.820907124335852

> <r_i_glide_metal>
0

> <r_i_glide_rewards>
-1.29809090310308

> <r_i_glide_evdw>
-40.0509567260742

> <r_i_glide_ecoul>
-11.1914882659912

> <r_i_glide_erotb>
0.702933168100059

> <r_i_glide_esite>
0

> <r_i_glide_emodel>
-68.4593326662619

> <r_i_glide_energy>
-51.2424449920654

> <r_i_glide_einternal>
11.2945938110352

> <i_i_glide_confnum>
6

> <i_i_glide_posenum>
35

> <r_i_glide_eff_state_penalty>
0

> <s_user_duplicate_titles>
CHEMBL1957_lig2019

> <i_f3d_flags>
0

> <s_m_subgroup_title>
dock_pv

> <s_m_subgroupid>
dock_pv

> <b_m_subgroup_collapsed>
1

$$$$
CHEMBL1957_lig3025
                    3D
 Schrodinger Suite 2021-1.
 52 55  0  0  1  0            999 V2000
    8.8374   -7.3313   21.8747 O   0  0  0  0  0  0
    9.1263   -6.8599   24.1026 N   0  0  0  0  0  0
    9.2380   -3.4632   25.4382 N   0  0  0  0  0  0
   10.0365   -9.8523   22.3590 N   0  0  0  0  0  0
    4.0367   -0.8541   18.6389 N   0  0  0  0  0  0
    5.9969   -8.8382   22.2408 C   0  0  0  0  0  0
    6.8761   -9.9356   22.5342 C   0  0  0  0  0  0
    5.2316   -8.8870   21.0327 C   0  0  0  0  0  0
    7.8647   -9.8915   23.7068 C   0  0  0  0  0  0
    9.2223   -9.1860   23.3984 C   0  0  2  0  0  0
    9.0596   -7.6841   23.0385 C   0  0  0  0  0  0
    6.8656  -11.0662   21.7162 C   0  0  0  0  0  0
    8.8585   -5.4873   24.1668 C   0  0  0  0  0  0
    5.8372   -7.6950   23.0779 C   0  0  0  0  0  0
    5.2510  -10.0542   20.2402 C   0  0  0  0  0  0
    4.4420   -7.7748   20.6502 C   0  0  0  0  0  0
    7.8206   -3.4078   23.4671 C   0  0  0  0  0  0
    6.0433  -11.1362   20.6012 C   0  0  0  0  0  0
    8.0483   -4.7774   23.2656 C   0  0  0  0  0  0
    5.0209   -6.6357   22.6963 C   0  0  0  0  0  0
    9.4067   -4.7913   25.2423 C   0  0  0  0  0  0
    4.3474   -6.6656   21.4827 C   0  0  0  0  0  0
    8.4380   -2.8036   24.5662 C   0  0  0  0  0  0
    6.9940   -2.5856   22.5670 C   0  0  0  0  0  0
    5.2921   -2.2244   20.7441 C   0  0  0  0  0  0
    6.0389   -3.0340   21.7273 C   0  0  0  0  0  0
    5.6741   -0.9173   20.4058 C   0  0  0  0  0  0
    4.2160   -2.7998   20.0563 C   0  0  0  0  0  0
    5.0337   -0.2747   19.3499 C   0  0  0  0  0  0
    3.6223   -2.0894   19.0123 C   0  0  0  0  0  0
    9.4108   -7.2758   24.9755 H   0  0  0  0  0  0
   10.9183   -9.3636   22.2382 H   0  0  0  0  0  0
   10.2835  -10.7923   22.6336 H   0  0  0  0  0  0
    8.0779  -10.9124   24.0268 H   0  0  0  0  0  0
    7.3857   -9.4583   24.5847 H   0  0  0  0  0  0
    9.8068   -9.2370   24.3197 H   0  0  0  0  0  0
    7.5156  -11.8997   21.9395 H   0  0  0  0  0  0
    6.3593   -7.6280   24.0188 H   0  0  0  0  0  0
    4.6461  -10.0945   19.3472 H   0  0  0  0  0  0
    3.8913   -7.8058   19.7205 H   0  0  0  0  0  0
    6.0491  -12.0212   19.9821 H   0  0  0  0  0  0
    7.5986   -5.2786   22.4229 H   0  0  0  0  0  0
    4.9202   -5.7776   23.3456 H   0  0  0  0  0  0
   10.0175   -5.2926   25.9791 H   0  0  0  0  0  0
    3.7205   -5.8369   21.1954 H   0  0  0  0  0  0
    8.3140   -1.7476   24.7558 H   0  0  0  0  0  0
    7.2270   -1.5316   22.5808 H   0  0  0  0  0  0
    5.8057   -4.0878   21.7295 H   0  0  0  0  0  0
    6.4939   -0.4168   20.8956 H   0  0  0  0  0  0
    3.8807   -3.7995   20.2822 H   0  0  0  0  0  0
    5.3422    0.7150   19.0400 H   0  0  0  0  0  0
    2.8178   -2.5201   18.4329 H   0  0  0  0  0  0
  1 11  2  0  0  0
  2 11  1  0  0  0
  2 13  1  0  0  0
  2 31  1  0  0  0
  3 21  1  0  0  0
  3 23  2  0  0  0
  4 10  1  0  0  0
  4 32  1  0  0  0
  4 33  1  0  0  0
  5 29  2  0  0  0
  5 30  1  0  0  0
  6  7  1  0  0  0
  6  8  1  0  0  0
  6 14  2  0  0  0
  7  9  1  0  0  0
  7 12  2  0  0  0
  8 15  1  0  0  0
  8 16  2  0  0  0
  9 10  1  0  0  0
  9 34  1  0  0  0
  9 35  1  0  0  0
 10 11  1  0  0  0
 10 36  1  0  0  0
 12 18  1  0  0  0
 12 37  1  0  0  0
 13 19  1  0  0  0
 13 21  2  0  0  0
 14 20  1  0  0  0
 14 38  1  0  0  0
 15 18  2  0  0  0
 15 39  1  0  0  0
 16 22  1  0  0  0
 16 40  1  0  0  0
 17 19  2  0  0  0
 17 23  1  0  0  0
 17 24  1  0  0  0
 18 41  1  0  0  0
 19 42  1  0  0  0
 20 22  2  0  0  0
 20 43  1  0  0  0
 21 44  1  0  0  0
 22 45  1  0  0  0
 23 46  1  0  0  0
 24 26  2  3  0  0
 24 47  1  0  0  0
 25 26  1  0  0  0
 25 27  2  0  0  0
 25 28  1  0  0  0
 26 48  1  0  0  0
 27 29  1  0  0  0
 27 49  1  0  0  0
 28 30  2  0  0  0
 28 50  1  0  0  0
 29 51  1  0  0  0
 30 52  1  0  0  0
M  END
> <s_m_entry_id>
5704

> <s_m_entry_name>
dock_pv.99

> <s_m_Source_Path>
/home/csk/Desktop/cluster/DUD-E-result/igf1r

> <s_m_Source_File>
dock_pv.maegz

> <i_m_Source_File_Index>
99

> <chembl_id>
CHEMBL1985580

> <chembl_pref_name>
None

> <i_lp_mmshare_version>
53161

> <r_lp_tautomer_probability>
1

> <s_lp_Force_Field>
OPLS_2005

> <r_lp_Energy>
29.433265

> <b_lp_Chiralities_Consistent>
1

> <s_lp_Variant>
CHEMBL1957_lig3025-1

> <s_i_glide_gridfile>
glide-grid_2oj9

> <i_i_glide_lignum>
4191

> <i_i_glide_rotatable_bonds>
7

> <r_i_docking_score>
-7.67077801046692

> <r_i_glide_ligand_efficiency>
-0.255692600348897

> <r_i_glide_ligand_efficiency_sa>
-0.794496358435217

> <r_i_glide_ligand_efficiency_ln>
-1.74288434379873

> <r_i_glide_gscore>
-7.67077801046692

> <r_i_glide_lipo>
-4.1524769576827

> <r_i_glide_hbond>
-0.0644235335881665

> <r_i_glide_metal>
0

> <r_i_glide_rewards>
-0.815756099322661

> <r_i_glide_evdw>
-48.0130729675293

> <r_i_glide_ecoul>
-6.35096883773804

> <r_i_glide_erotb>
0.753644637696072

> <r_i_glide_esite>
-0.0384670835322942

> <r_i_glide_emodel>
-77.3535103282836

> <r_i_glide_energy>
-54.3640418052673

> <r_i_glide_einternal>
2.51634120941162

> <i_i_glide_confnum>
1

> <i_i_glide_posenum>
103

> <r_i_glide_eff_state_penalty>
0

> <s_user_duplicate_titles>
CHEMBL1957_lig3025

> <i_f3d_flags>
0

> <s_m_subgroup_title>
dock_pv

> <s_m_subgroupid>
dock_pv

> <b_m_subgroup_collapsed>
1

$$$$
CHEMBL1957_lig3271
                    3D
 Schrodinger Suite 2021-1.
 40 43  0  0  1  0            999 V2000
    8.2197   -3.2024   24.2370 N   0  0  0  0  0  0
    7.2455   -3.4142   23.3206 C   0  0  0  0  0  0
    6.8327   -4.6369   22.8909 N   0  0  0  0  0  0
    7.4508   -5.7250   23.4228 C   0  0  0  0  0  0
    8.4779   -5.5922   24.3578 C   0  0  0  0  0  0
    8.8373   -4.3007   24.7372 C   0  0  0  0  0  0
    7.0875   -7.0307   23.0612 N   0  0  0  0  0  0
    6.2227   -7.6347   22.1257 C   0  0  0  0  0  0
    6.1001   -9.0515   22.0659 C   0  0  0  0  0  0
    5.2534   -9.6122   21.0889 C   0  0  0  0  0  0
    4.5601   -8.8107   20.1922 C   0  0  0  0  0  0
    4.6805   -7.4316   20.2519 C   0  0  0  0  0  0
    5.5050   -6.8541   21.2088 C   0  0  0  0  0  0
    6.8404   -9.9868   23.0125 C   0  0  0  0  0  0
    6.7355  -11.3120   22.7180 O   0  0  0  0  0  0
    7.4959   -9.5972   23.9774 O   0  0  0  0  0  0
    6.7273   -2.2410   22.7592 N   0  0  0  0  0  0
    5.8605   -1.9984   21.6818 C   0  0  0  0  0  0
    4.9094   -2.9265   21.2431 C   0  0  0  0  0  0
    5.2717   -0.4628   19.8772 C   0  0  0  0  0  0
    5.9996   -0.7753   21.0242 C   0  0  0  0  0  0
    4.3789   -1.4203   19.3817 C   0  0  0  0  0  0
    4.1880   -2.6574   20.0717 C   0  0  0  0  0  0
    3.2416   -3.3507   19.2760 C   0  0  0  0  0  0
    2.9953   -2.5215   18.2104 N   0  0  0  0  0  0
    3.6383   -1.3434   18.2387 N   0  0  0  0  0  0
    8.9771   -6.4499   24.7832 H   0  0  0  0  0  0
    9.6216   -4.1301   25.4606 H   0  0  0  0  0  0
    7.5691   -7.7280   23.6141 H   0  0  0  0  0  0
    5.1248  -10.6824   20.9994 H   0  0  0  0  0  0
    3.9362   -9.2581   19.4340 H   0  0  0  0  0  0
    4.1505   -6.8114   19.5434 H   0  0  0  0  0  0
    5.5895   -5.7836   21.1924 H   0  0  0  0  0  0
    7.1939  -11.8225   23.3862 H   0  0  0  0  0  0
    7.2166   -1.4282   23.0980 H   0  0  0  0  0  0
    4.7488   -3.8510   21.7708 H   0  0  0  0  0  0
    5.4317    0.4747   19.3618 H   0  0  0  0  0  0
    6.7246   -0.0582   21.3744 H   0  0  0  0  0  0
    2.7841   -4.3256   19.3348 H   0  0  0  0  0  0
    2.3899   -2.7621   17.4311 H   0  0  0  0  0  0
  1  2  2  0  0  0
  1  6  1  0  0  0
  2  3  1  0  0  0
  2 17  1  0  0  0
  3  4  2  0  0  0
  4  7  1  0  0  0
  4  5  1  0  0  0
  5  6  2  0  0  0
  5 27  1  0  0  0
  6 28  1  0  0  0
  7  8  1  0  0  0
  7 29  1  0  0  0
  8 13  1  0  0  0
  8  9  2  0  0  0
  9 14  1  0  0  0
  9 10  1  0  0  0
 10 11  2  0  0  0
 10 30  1  0  0  0
 11 12  1  0  0  0
 11 31  1  0  0  0
 12 13  2  0  0  0
 12 32  1  0  0  0
 13 33  1  0  0  0
 14 15  1  0  0  0
 14 16  2  0  0  0
 15 34  1  0  0  0
 17 18  1  0  0  0
 17 35  1  0  0  0
 18 19  2  0  0  0
 18 21  1  0  0  0
 19 36  1  0  0  0
 19 23  1  0  0  0
 20 22  1  0  0  0
 20 37  1  0  0  0
 20 21  2  0  0  0
 21 38  1  0  0  0
 22 26  2  0  0  0
 22 23  1  0  0  0
 23 24  2  0  0  0
 24 39  1  0  0  0
 24 25  1  0  0  0
 25 40  1  0  0  0
 25 26  1  0  0  0
M  END
> <s_m_entry_id>
5705

> <s_m_entry_name>
dock_pv.100

> <s_m_Source_Path>
/home/csk/Desktop/cluster/DUD-E-result/igf1r

> <s_m_Source_File>
dock_pv.maegz

> <i_m_Source_File_Index>
100

> <chembl_id>
CHEMBL396523

> <chembl_pref_name>
None

> <i_lp_mmshare_version>
53161

> <r_lp_tautomer_probability>
0.01682948890584

> <s_lp_Force_Field>
OPLS_2005

> <r_lp_Energy>
31.740416

> <b_lp_Chiralities_Consistent>
1

> <s_lp_Variant>
CHEMBL1957_lig3271-2

> <s_i_glide_gridfile>
glide-grid_2oj9

> <i_i_glide_lignum>
4583

> <i_i_glide_rotatable_bonds>
6

> <r_i_docking_score>
-7.66210848473804

> <r_i_glide_ligand_efficiency>
-0.294696480182232

> <r_i_glide_ligand_efficiency_sa>
-0.873037162965208

> <r_i_glide_ligand_efficiency_ln>
-1.79942103621216

> <r_i_glide_gscore>
-7.66210848473804

> <r_i_glide_lipo>
-3.15995235045312

> <r_i_glide_hbond>
-0.32

> <r_i_glide_metal>
0

> <r_i_glide_rewards>
-2.28674374755308

> <r_i_glide_evdw>
-44.1814804077148

> <r_i_glide_ecoul>
-3.19179606437683

> <r_i_glide_erotb>
0.792431043310425

> <r_i_glide_esite>
0

> <r_i_glide_emodel>
-70.6582567184871

> <r_i_glide_energy>
-47.3732764720917

> <r_i_glide_einternal>
1.31834614276886

> <i_i_glide_confnum>
1

> <i_i_glide_posenum>
328

> <r_i_glide_eff_state_penalty>
0

> <s_user_duplicate_titles>
CHEMBL1957_lig3271,CHEMBL1957_lig3271

> <i_f3d_flags>
0

> <s_m_subgroup_title>
dock_pv

> <s_m_subgroupid>
dock_pv

> <b_m_subgroup_collapsed>
1

$$$$
CHEMBL1957_lig3334
                    3D
 Schrodinger Suite 2021-1.
 52 56  0  0  1  0            999 V2000
   10.0353  -10.0670   26.2611 O   0  0  0  0  0  0
    3.2999   -5.1565   20.6368 O   0  0  0  0  0  0
    4.8380    1.0449   19.8382 O   0  0  0  0  0  0
    8.8700   -9.9315   23.1514 N   0  0  0  0  0  0
    9.0241  -12.0804   22.0234 N   0  0  0  0  0  0
    7.0687  -12.6773   20.7050 N   0  0  0  0  0  0
    5.1433  -11.3742   20.6379 N   0  0  0  0  0  0
    7.1125  -10.5450   21.8360 C   0  0  0  0  0  0
    8.3959  -10.9344   22.3216 C   0  0  0  0  0  0
    6.8813   -9.1950   22.2900 C   0  0  0  0  0  0
    7.9422   -8.9134   23.1344 C   0  0  0  0  0  0
    6.4571  -11.5226   21.0586 C   0  0  0  0  0  0
    5.8301   -8.2130   21.9026 C   0  0  0  0  0  0
   10.1399   -9.9738   23.8970 C   0  0  2  0  0  0
    8.3163  -12.8808   21.1893 C   0  0  0  0  0  0
    5.2379   -8.2481   20.6375 C   0  0  0  0  0  0
    5.5021   -7.1831   22.7856 C   0  0  0  0  0  0
   10.0802  -10.9184   25.1103 C   0  0  0  0  0  0
   10.5910   -8.6571   24.5118 C   0  0  0  0  0  0
    4.1386   -6.1548   21.0753 C   0  0  0  0  0  0
    4.4141   -7.2146   20.2195 C   0  0  0  0  0  0
    4.6628   -6.1599   22.3698 C   0  0  0  0  0  0
    9.9340   -8.6958   25.8864 C   0  0  0  0  0  0
    3.7867   -3.9098   20.2940 C   0  0  0  0  0  0
    3.2377   -3.2887   19.1718 C   0  0  0  0  0  0
    4.7667   -3.2387   21.0386 C   0  0  0  0  0  0
    4.6662   -1.3765   19.5118 C   0  0  0  0  0  0
    3.6674   -2.0244   18.7805 C   0  0  0  0  0  0
    5.2061   -1.9800   20.6467 C   0  0  0  0  0  0
    5.2341   -0.0538   19.0391 C   0  0  0  0  0  0
    5.4598    1.7641   19.6231 H   0  0  0  0  0  0
    4.6215  -10.5581   20.9185 H   0  0  0  0  0  0
    4.7501  -12.0769   20.0271 H   0  0  0  0  0  0
    8.1385   -8.0054   23.6837 H   0  0  0  0  0  0
   10.8413  -10.3012   23.1304 H   0  0  0  0  0  0
    8.8085  -13.7870   20.8776 H   0  0  0  0  0  0
    5.4993   -9.0083   19.9195 H   0  0  0  0  0  0
    5.9240   -7.1467   23.7794 H   0  0  0  0  0  0
    9.1927  -11.5528   25.0793 H   0  0  0  0  0  0
   10.9818  -11.5314   25.1354 H   0  0  0  0  0  0
   11.6775   -8.6555   24.6195 H   0  0  0  0  0  0
   10.3433   -7.7713   23.9248 H   0  0  0  0  0  0
    4.0002   -7.2241   19.2219 H   0  0  0  0  0  0
    4.4382   -5.3604   23.0543 H   0  0  0  0  0  0
   10.4347   -8.0546   26.6111 H   0  0  0  0  0  0
    8.8842   -8.3994   25.8587 H   0  0  0  0  0  0
    2.4769   -3.7933   18.5945 H   0  0  0  0  0  0
    5.2099   -3.6771   21.9161 H   0  0  0  0  0  0
    3.2476   -1.5689   17.8949 H   0  0  0  0  0  0
    5.9820   -1.4834   21.2114 H   0  0  0  0  0  0
    4.9558    0.1219   18.0001 H   0  0  0  0  0  0
    6.3218   -0.1193   19.0500 H   0  0  0  0  0  0
  1 18  1  0  0  0
  1 23  1  0  0  0
  2 20  1  0  0  0
  2 24  1  0  0  0
  3 30  1  0  0  0
  3 31  1  0  0  0
  4  9  1  0  0  0
  4 11  1  0  0  0
  4 14  1  0  0  0
  5  9  1  0  0  0
  5 15  2  0  0  0
  6 12  2  0  0  0
  6 15  1  0  0  0
  7 12  1  0  0  0
  7 32  1  0  0  0
  7 33  1  0  0  0
  8  9  2  0  0  0
  8 10  1  0  0  0
  8 12  1  0  0  0
 10 11  2  0  0  0
 10 13  1  0  0  0
 11 34  1  0  0  0
 13 16  2  0  0  0
 13 17  1  0  0  0
 14 18  1  0  0  0
 14 19  1  0  0  0
 14 35  1  0  0  0
 15 36  1  0  0  0
 16 21  1  0  0  0
 16 37  1  0  0  0
 17 22  2  0  0  0
 17 38  1  0  0  0
 18 39  1  0  0  0
 18 40  1  0  0  0
 19 23  1  0  0  0
 19 41  1  0  0  0
 19 42  1  0  0  0
 20 21  2  0  0  0
 20 22  1  0  0  0
 21 43  1  0  0  0
 22 44  1  0  0  0
 23 45  1  0  0  0
 23 46  1  0  0  0
 24 25  2  0  0  0
 24 26  1  0  0  0
 25 28  1  0  0  0
 25 47  1  0  0  0
 26 29  2  0  0  0
 26 48  1  0  0  0
 27 28  2  0  0  0
 27 29  1  0  0  0
 27 30  1  0  0  0
 28 49  1  0  0  0
 29 50  1  0  0  0
 30 51  1  0  0  0
 30 52  1  0  0  0
M  END
> <s_m_entry_id>
5706

> <s_m_entry_name>
dock_pv.101

> <s_m_Source_Path>
/home/csk/Desktop/cluster/DUD-E-result/igf1r

> <s_m_Source_File>
dock_pv.maegz

> <i_m_Source_File_Index>
101

> <chembl_id>
CHEMBL1976376

> <chembl_pref_name>
None

> <i_lp_mmshare_version>
53161

> <r_lp_tautomer_probability>
1

> <s_lp_Force_Field>
OPLS_2005

> <r_lp_Energy>
37.738373

> <b_lp_Chiralities_Consistent>
1

> <s_lp_Variant>
CHEMBL1957_lig3334-1

> <s_i_glide_gridfile>
glide-grid_2oj9

> <i_i_glide_lignum>
4687

> <i_i_glide_rotatable_bonds>
6

> <r_i_docking_score>
-7.65673079437097

> <r_i_glide_ligand_efficiency>
-0.255224359812366

> <r_i_glide_ligand_efficiency_sa>
-0.79304142622115

> <r_i_glide_ligand_efficiency_ln>
-1.73969266324505

> <r_i_glide_gscore>
-7.65673079437097

> <r_i_glide_lipo>
-3.78315346528638

> <r_i_glide_hbond>
-0.388427396608321

> <r_i_glide_metal>
0

> <r_i_glide_rewards>
-0.878158781602648

> <r_i_glide_evdw>
-37.7839126586914

> <r_i_glide_ecoul>
-7.61243677139282

> <r_i_glide_erotb>
0.424069997769873

> <r_i_glide_esite>
0

> <r_i_glide_emodel>
-62.1580528804956

> <r_i_glide_energy>
-45.3963494300842

> <r_i_glide_einternal>
6.99875545501709

> <i_i_glide_confnum>
38

> <i_i_glide_posenum>
222

> <r_i_glide_eff_state_penalty>
0

> <s_user_duplicate_titles>
CHEMBL1957_lig3334

> <i_f3d_flags>
0

> <s_m_subgroup_title>
dock_pv

> <s_m_subgroupid>
dock_pv

> <b_m_subgroup_collapsed>
1

$$$$
CHEMBL1957_lig738
                    3D
 Schrodinger Suite 2021-1.
 34 36  0  0  1  0            999 V2000
    5.5959   -4.9390   21.8388 N   0  0  0  0  0  0
    5.8386   -3.6388   22.1990 C   0  0  0  0  0  0
    6.6316   -3.7084   23.3569 C   0  0  0  0  0  0
    6.8061   -5.0763   23.6575 C   0  0  0  0  0  0
    6.1730   -5.8466   22.6858 C   0  0  0  0  0  0
    7.1266   -2.6024   24.1336 C   0  0  0  0  0  0
    6.3987   -1.6970   24.5355 O   0  0  0  0  0  0
    8.4378   -2.6210   24.3628 N   0  0  0  0  0  0
    5.3211   -2.5165   21.3544 C   0  0  0  0  0  0
    4.1621   -2.6741   20.5836 C   0  0  0  0  0  0
    3.7417   -1.6539   19.7363 C   0  0  0  0  0  0
    4.4847   -0.4754   19.6634 C   0  0  0  0  0  0
    5.6374   -0.3063   20.4172 C   0  0  0  0  0  0
    6.0384   -1.3221   21.2734 C   0  0  0  0  0  0
    5.4009   -9.0311   21.0455 C   0  0  0  0  0  0
    5.4656   -7.7004   21.2940 N   0  0  0  0  0  0
    6.0657   -7.3178   22.4594 C   0  0  0  0  0  0
    6.5712   -8.2535   23.3669 C   0  0  0  0  0  0
    6.4403   -9.6020   23.0226 C   0  0  0  0  0  0
    5.8670  -10.0104   21.8586 N   0  0  0  0  0  0
    4.8378   -9.4209   19.8389 N   0  0  0  0  0  0
    5.0575   -5.2056   21.0261 H   0  0  0  0  0  0
    7.3578   -5.4637   24.5042 H   0  0  0  0  0  0
    9.0283   -3.3189   23.9333 H   0  0  0  0  0  0
    8.8598   -1.8355   24.8405 H   0  0  0  0  0  0
    3.5866   -3.5862   20.6298 H   0  0  0  0  0  0
    2.8480   -1.7729   19.1392 H   0  0  0  0  0  0
    4.1657    0.3403   19.0380 H   0  0  0  0  0  0
    6.2113    0.6059   20.3353 H   0  0  0  0  0  0
    6.9450   -1.1850   21.8409 H   0  0  0  0  0  0
    7.0431   -7.9507   24.2894 H   0  0  0  0  0  0
    6.8016  -10.3810   23.6790 H   0  0  0  0  0  0
    4.8339  -10.4022   19.5970 H   0  0  0  0  0  0
    4.5536   -8.7128   19.1747 H   0  0  0  0  0  0
  1  2  1  0  0  0
  1  5  1  0  0  0
  1 22  1  0  0  0
  2  3  2  0  0  0
  2  9  1  0  0  0
  3  4  1  0  0  0
  3  6  1  0  0  0
  4  5  2  0  0  0
  4 23  1  0  0  0
  5 17  1  0  0  0
  6  7  2  0  0  0
  6  8  1  0  0  0
  8 24  1  0  0  0
  8 25  1  0  0  0
  9 10  1  0  0  0
  9 14  2  0  0  0
 10 11  2  0  0  0
 10 26  1  0  0  0
 11 12  1  0  0  0
 11 27  1  0  0  0
 12 13  2  0  0  0
 12 28  1  0  0  0
 13 14  1  0  0  0
 13 29  1  0  0  0
 14 30  1  0  0  0
 15 16  1  0  0  0
 15 20  2  0  0  0
 15 21  1  0  0  0
 16 17  2  0  0  0
 17 18  1  0  0  0
 18 19  2  0  0  0
 18 31  1  0  0  0
 19 20  1  0  0  0
 19 32  1  0  0  0
 21 33  1  0  0  0
 21 34  1  0  0  0
M  END
> <s_m_entry_id>
5707

> <s_m_entry_name>
dock_pv.102

> <s_m_Source_Path>
/home/csk/Desktop/cluster/DUD-E-result/igf1r

> <s_m_Source_File>
dock_pv.maegz

> <i_m_Source_File_Index>
102

> <chembl_id>
CHEMBL1270230

> <chembl_pref_name>
None

> <i_lp_mmshare_version>
53161

> <r_lp_tautomer_probability>
0.999999987636

> <s_lp_Force_Field>
OPLS_2005

> <r_lp_Energy>
0.265656

> <b_lp_Chiralities_Consistent>
1

> <s_lp_Variant>
CHEMBL1957_lig738-1

> <s_i_glide_gridfile>
glide-grid_2oj9

> <i_i_glide_lignum>
965

> <i_i_glide_rotatable_bonds>
3

> <r_i_docking_score>
-7.65518494063836

> <r_i_glide_ligand_efficiency>
-0.364532616220874

> <r_i_glide_ligand_efficiency_sa>
-1.00571784695059

> <r_i_glide_ligand_efficiency_ln>
-1.89272900781515

> <r_i_glide_gscore>
-7.65518494063836

> <r_i_glide_lipo>
-2.23968813007587

> <r_i_glide_hbond>
-0.578076818107494

> <r_i_glide_metal>
0

> <r_i_glide_rewards>
-2.36535955857899

> <r_i_glide_evdw>
-34.9076690673828

> <r_i_glide_ecoul>
-7.72334432601929

> <r_i_glide_erotb>
0.462542270002731

> <r_i_glide_esite>
-0.0307176016067091

> <r_i_glide_emodel>
-61.3909036471373

> <r_i_glide_energy>
-42.6310133934021

> <r_i_glide_einternal>
2.52021718025208

> <i_i_glide_confnum>
3

> <i_i_glide_posenum>
17

> <r_i_glide_eff_state_penalty>
0

> <s_user_duplicate_titles>
CHEMBL1957_lig738

> <i_f3d_flags>
0

> <s_m_subgroup_title>
dock_pv

> <s_m_subgroupid>
dock_pv

> <b_m_subgroup_collapsed>
1

$$$$
CHEMBL1957_lig117
                    3D
 Schrodinger Suite 2021-1.
 54 58  0  0  1  0            999 V2000
    4.9700   -9.5308   20.6379 N   0  0  0  0  0  0
    5.4925  -10.3340   21.5838 C   0  0  0  0  0  0
    6.0812   -9.8293   22.7328 C   0  0  0  0  0  0
    4.9994   -8.1973   20.8368 C   0  0  0  0  0  0
    5.5777   -7.5824   21.9593 C   0  0  0  0  0  0
    6.1462   -8.4652   22.9003 N   0  0  0  0  0  0
    6.7391   -7.6497   23.8469 C   0  0  0  0  0  0
    6.4284   -6.3907   23.6447 N   0  0  0  0  0  0
    5.8156   -6.2733   22.4838 C   0  0  0  0  0  0
    4.4383   -7.4499   19.8374 N   0  0  0  0  0  0
    5.4955   -4.9014   21.9473 C   0  0  0  0  0  0
    6.2934   -3.8251   22.3526 C   0  0  0  0  0  0
    5.9902   -2.5088   21.9851 C   0  0  0  0  0  0
    4.9594   -2.2771   21.0798 C   0  0  0  0  0  0
    4.1732   -3.3321   20.6334 C   0  0  0  0  0  0
    4.4379   -4.6276   21.0736 C   0  0  0  0  0  0
    6.6458   -1.4128   22.4913 O   0  0  0  0  0  0
    7.0956   -1.4682   23.8454 C   0  0  0  0  0  0
    6.3299   -0.4455   24.6691 C   0  0  0  0  0  0
    5.2377   -0.8539   25.4377 C   0  0  0  0  0  0
    4.5559    0.0556   26.2381 C   0  0  0  0  0  0
    4.9525    1.3876   26.2287 C   0  0  0  0  0  0
    6.0152    1.8180   25.4379 C   0  0  0  0  0  0
    6.7107    0.8973   24.6630 C   0  0  0  0  0  0
    7.5924   -8.0656   25.0378 C   0  0  2  0  0  0
    9.0417   -7.5378   25.0021 C   0  0  0  0  0  0
    9.4536   -8.8477   25.6975 C   0  0  1  0  0  0
    8.1853   -9.4876   25.0986 C   0  0  0  0  0  0
   10.7662   -9.4381   25.1472 C   0  0  0  0  0  0
   11.7117   -9.6532   25.8973 O   0  0  0  0  0  0
   10.8380   -9.7014   23.8413 N   0  0  0  0  0  0
    5.4149  -11.3986   21.4131 H   0  0  0  0  0  0
    6.4495  -10.4754   23.5095 H   0  0  0  0  0  0
    4.6397   -6.4643   19.8237 H   0  0  0  0  0  0
    4.2413   -7.9411   18.9700 H   0  0  0  0  0  0
    7.1404   -4.0175   22.9930 H   0  0  0  0  0  0
    4.7437   -1.2692   20.7574 H   0  0  0  0  0  0
    3.3415   -3.1444   19.9707 H   0  0  0  0  0  0
    3.7282   -5.3864   20.8021 H   0  0  0  0  0  0
    7.0060   -2.4312   24.3473 H   0  0  0  0  0  0
    8.1606   -1.2540   23.8405 H   0  0  0  0  0  0
    4.9073   -1.8804   25.4298 H   0  0  0  0  0  0
    3.7233   -0.2655   26.8474 H   0  0  0  0  0  0
    4.4378    2.1024   26.8479 H   0  0  0  0  0  0
    6.3200    2.8548   25.4460 H   0  0  0  0  0  0
    7.5586    1.2238   24.0825 H   0  0  0  0  0  0
    7.0798   -7.8021   25.9635 H   0  0  0  0  0  0
    9.4198   -7.4302   23.9814 H   0  0  0  0  0  0
    9.2302   -6.6230   25.5671 H   0  0  0  0  0  0
    9.4541   -8.7857   26.7885 H   0  0  0  0  0  0
    7.6736  -10.1967   25.7491 H   0  0  0  0  0  0
    8.3549   -9.9229   24.1143 H   0  0  0  0  0  0
   11.7098  -10.0533   23.4497 H   0  0  0  0  0  0
   10.0910   -9.4315   23.2221 H   0  0  0  0  0  0
  1  4  2  0  0  0
  1  2  1  0  0  0
  2  3  2  0  0  0
  2 32  1  0  0  0
  3  6  1  0  0  0
  3 33  1  0  0  0
  4  5  1  0  0  0
  4 10  1  0  0  0
  5  9  2  0  0  0
  5  6  1  0  0  0
  6  7  1  0  0  0
  7  8  2  0  0  0
  7 25  1  0  0  0
  8  9  1  0  0  0
  9 11  1  0  0  0
 10 34  1  0  0  0
 10 35  1  0  0  0
 11 16  1  0  0  0
 11 12  2  0  0  0
 12 13  1  0  0  0
 12 36  1  0  0  0
 13 17  1  0  0  0
 13 14  2  0  0  0
 14 15  1  0  0  0
 14 37  1  0  0  0
 15 16  2  0  0  0
 15 38  1  0  0  0
 16 39  1  0  0  0
 17 18  1  0  0  0
 18 19  1  0  0  0
 18 40  1  0  0  0
 18 41  1  0  0  0
 19 20  2  0  0  0
 19 24  1  0  0  0
 20 21  1  0  0  0
 20 42  1  0  0  0
 21 22  2  0  0  0
 21 43  1  0  0  0
 22 23  1  0  0  0
 22 44  1  0  0  0
 23 24  2  0  0  0
 23 45  1  0  0  0
 24 46  1  0  0  0
 25 26  1  0  0  0
 25 28  1  0  0  0
 25 47  1  0  0  0
 26 27  1  0  0  0
 26 48  1  0  0  0
 26 49  1  0  0  0
 27 28  1  0  0  0
 27 29  1  0  0  0
 27 50  1  0  0  0
 28 51  1  0  0  0
 28 52  1  0  0  0
 29 30  2  0  0  0
 29 31  1  0  0  0
 31 53  1  0  0  0
 31 54  1  0  0  0
M  END
> <s_m_entry_id>
5708

> <s_m_entry_name>
dock_pv.103

> <s_m_Source_Path>
/home/csk/Desktop/cluster/DUD-E-result/igf1r

> <s_m_Source_File>
dock_pv.maegz

> <i_m_Source_File_Index>
103

> <chembl_id>
CHEMBL391868

> <chembl_pref_name>
None

> <i_lp_mmshare_version>
53161

> <r_lp_tautomer_probability>
1

> <s_lp_Force_Field>
OPLS_2005

> <r_lp_Energy>
37.826966

> <b_lp_Chiralities_Consistent>
1

> <s_lp_Variant>
CHEMBL1957_lig117-1

> <s_i_glide_gridfile>
glide-grid_2oj9

> <i_i_glide_lignum>
282

> <i_i_glide_rotatable_bonds>
6

> <r_i_docking_score>
-7.65116326988117

> <r_i_glide_ligand_efficiency>
-0.246811718383264

> <r_i_glide_ligand_efficiency_sa>
-0.775329556025167

> <r_i_glide_ligand_efficiency_ln>
-1.72557179735244

> <r_i_glide_gscore>
-7.65116326988117

> <r_i_glide_lipo>
-3.39917203896674

> <r_i_glide_hbond>
-0.595768578624888

> <r_i_glide_metal>
0

> <r_i_glide_rewards>
-1.05666503877365

> <r_i_glide_evdw>
-42.9428405761719

> <r_i_glide_ecoul>
-6.55682182312012

> <r_i_glide_erotb>
0.576997257104161

> <r_i_glide_esite>
-0.0458895683434366

> <r_i_glide_emodel>
-62.5938989609432

> <r_i_glide_energy>
-49.499662399292

> <r_i_glide_einternal>
15.1275177001953

> <i_i_glide_confnum>
51

> <i_i_glide_posenum>
322

> <r_i_glide_eff_state_penalty>
0

> <s_user_duplicate_titles>
CHEMBL1957_lig117,408910

> <i_f3d_flags>
0

> <s_m_subgroup_title>
dock_pv

> <s_m_subgroupid>
dock_pv

> <b_m_subgroup_collapsed>
1

$$$$
CHEMBL1957_lig613
                    3D
 Schrodinger Suite 2021-1.
 28 30  0  0  1  0            999 V2000
    3.2380   -4.6505   18.8493 C   0  0  0  0  0  0
    3.7551   -4.5558   20.2038 C   0  0  0  0  0  0
    3.8483   -2.8540   20.6706 S   0  0  0  0  0  0
    3.5495   -2.3459   18.9879 C   0  0  0  0  0  0
    3.2127   -3.4312   18.2953 N   0  0  0  0  0  0
    3.6380   -1.1943   18.5778 O   0  0  0  0  0  0
    2.8880   -5.6540   18.2380 O   0  0  0  0  0  0
    4.2325   -5.5726   20.9634 C   0  0  0  0  0  0
    4.4788   -6.9926   20.7306 C   0  0  0  0  0  0
    4.0380   -7.9626   19.8380 C   0  0  0  0  0  0
    4.7321   -9.1407   20.1049 C   0  0  0  0  0  0
    5.5980   -8.8651   21.1488 C   0  0  0  0  0  0
    5.4193   -7.5707   21.5271 O   0  0  0  0  0  0
    6.6490   -9.6570   21.8493 C   0  0  0  0  0  0
    7.4938   -9.0527   22.7876 C   0  0  0  0  0  0
    8.5047   -9.7914   23.3963 C   0  0  0  0  0  0
    8.6683  -11.1360   23.0722 C   0  0  0  0  0  0
    7.8257  -11.7489   22.1478 C   0  0  0  0  0  0
    6.8166  -11.0099   21.5362 C   0  0  0  0  0  0
   10.0577  -12.1429   23.8951 Br  0  0  0  0  0  0
    2.9324   -3.3309   17.3296 H   0  0  0  0  0  0
    4.5918   -5.2853   21.9417 H   0  0  0  0  0  0
    3.3009   -7.8501   19.0579 H   0  0  0  0  0  0
    4.6328  -10.0772   19.5750 H   0  0  0  0  0  0
    7.3828   -8.0077   23.0386 H   0  0  0  0  0  0
    9.1643   -9.3214   24.1113 H   0  0  0  0  0  0
    7.9583  -12.7921   21.9019 H   0  0  0  0  0  0
    6.1750  -11.4921   20.8129 H   0  0  0  0  0  0
  1  5  1  0  0  0
  1  2  1  0  0  0
  1  7  2  0  0  0
  2  3  1  0  0  0
  2  8  2  0  0  0
  3  4  1  0  0  0
  4  5  1  0  0  0
  4  6  2  0  0  0
  5 21  1  0  0  0
  8  9  1  0  0  0
  8 22  1  0  0  0
  9 13  1  0  0  0
  9 10  2  0  0  0
 10 11  1  0  0  0
 10 23  1  0  0  0
 11 12  2  0  0  0
 11 24  1  0  0  0
 12 13  1  0  0  0
 12 14  1  0  0  0
 14 15  2  0  0  0
 14 19  1  0  0  0
 15 16  1  0  0  0
 15 25  1  0  0  0
 16 17  2  0  0  0
 16 26  1  0  0  0
 17 18  1  0  0  0
 17 20  1  0  0  0
 18 19  2  0  0  0
 18 27  1  0  0  0
 19 28  1  0  0  0
M  END
> <s_m_entry_id>
5709

> <s_m_entry_name>
dock_pv.104

> <s_m_Source_Path>
/home/csk/Desktop/cluster/DUD-E-result/igf1r

> <s_m_Source_File>
dock_pv.maegz

> <i_m_Source_File_Index>
104

> <chembl_id>
CHEMBL602919

> <chembl_pref_name>
None

> <i_lp_mmshare_version>
53161

> <r_lp_tautomer_probability>
1

> <s_lp_Force_Field>
OPLS_2005

> <r_lp_Energy>
11.814144

> <b_lp_Chiralities_Consistent>
1

> <s_lp_Variant>
CHEMBL1957_lig613-1

> <s_i_glide_gridfile>
glide-grid_2oj9

> <i_i_glide_lignum>
825

> <i_i_glide_rotatable_bonds>
2

> <r_i_docking_score>
-7.64419851946881

> <r_i_glide_ligand_efficiency>
-0.382209925973441

> <r_i_glide_ligand_efficiency_sa>
-1.03747735526374

> <r_i_glide_ligand_efficiency_ln>
-1.91309076688206

> <r_i_glide_gscore>
-7.64419851946881

> <r_i_glide_lipo>
-2.12430791527048

> <r_i_glide_hbond>
-0.488164852373769

> <r_i_glide_metal>
0

> <r_i_glide_rewards>
-2.83311062121212

> <r_i_glide_evdw>
-32.7739143371582

> <r_i_glide_ecoul>
-5.18326091766357

> <r_i_glide_erotb>
0.217569723895

> <r_i_glide_esite>
0

> <r_i_glide_emodel>
-51.9275527128498

> <r_i_glide_energy>
-37.9571752548218

> <r_i_glide_einternal>
2.64998245239258

> <i_i_glide_confnum>
3

> <i_i_glide_posenum>
348

> <r_i_glide_eff_state_penalty>
0

> <s_user_duplicate_titles>
CHEMBL1957_lig613

> <i_f3d_flags>
0

> <s_m_subgroup_title>
dock_pv

> <s_m_subgroupid>
dock_pv

> <b_m_subgroup_collapsed>
1

$$$$
CHEMBL1957_lig3289
                    3D
 Schrodinger Suite 2021-1.
 42 45  0  0  1  0            999 V2000
    6.0380    0.7258   23.5074 O   0  0  0  0  0  0
    6.1836   -5.8991   22.5315 N   0  0  0  0  0  0
    4.4077   -5.8017   21.1958 N   0  0  0  0  0  0
    7.3968   -8.1287   23.8044 N   0  0  0  0  0  0
    8.9846   -6.5451   24.6620 N   0  0  0  0  0  0
    5.9622   -1.2793   22.4433 N   0  0  0  0  0  0
    4.8659    0.3461   26.8267 N   0  0  0  0  0  0
    5.2886   -5.0563   21.8381 C   0  0  0  0  0  0
    7.3700   -5.7164   23.3204 C   0  0  0  0  0  0
    5.6924   -7.2072   22.3200 C   0  0  0  0  0  0
    5.1204   -3.5039   21.8047 C   0  0  2  0  0  0
    7.8811   -6.8964   23.9249 C   0  0  0  0  0  0
    4.6337   -7.0629   21.4207 C   0  0  0  0  0  0
    6.3305   -8.2672   22.9812 C   0  0  0  0  0  0
    4.8098   -2.9285   20.3805 C   0  0  2  0  0  0
    8.2793   -4.6519   23.6687 C   0  0  0  0  0  0
    6.2674   -2.7190   22.4594 C   0  0  0  0  0  0
    9.2088   -5.2005   24.5233 C   0  0  0  0  0  0
    4.8257   -1.3927   20.2822 C   0  0  0  0  0  0
    5.8961   -0.6635   21.1051 C   0  0  0  0  0  0
    6.0380   -0.5064   23.5592 C   0  0  0  0  0  0
    3.5385   -3.4368   19.6558 C   0  0  0  0  0  0
    5.9088   -1.1624   24.9405 C   0  0  0  0  0  0
    5.3273   -0.3156   25.9960 C   0  0  0  0  0  0
    9.5638   -7.1528   25.2218 H   0  0  0  0  0  0
    4.2371   -3.2720   22.4016 H   0  0  0  0  0  0
    4.0380   -7.8352   20.9614 H   0  0  0  0  0  0
    5.9727   -9.2802   22.8597 H   0  0  0  0  0  0
    5.6822   -3.2540   19.8380 H   0  0  0  0  0  0
    8.3413   -3.6189   23.3799 H   0  0  0  0  0  0
    7.1771   -2.8374   21.8688 H   0  0  0  0  0  0
    6.3937   -3.0746   23.4775 H   0  0  0  0  0  0
   10.0380   -4.7408   25.0270 H   0  0  0  0  0  0
    3.8569   -1.0610   20.6380 H   0  0  0  0  0  0
    4.8565   -1.0649   19.2417 H   0  0  0  0  0  0
    5.6555    0.4003   21.1347 H   0  0  0  0  0  0
    6.8380   -0.7881   20.5972 H   0  0  0  0  0  0
    2.6733   -3.3965   20.3176 H   0  0  0  0  0  0
    3.3047   -2.8331   18.7767 H   0  0  0  0  0  0
    3.6378   -4.4521   19.2767 H   0  0  0  0  0  0
    6.8951   -1.4852   25.2734 H   0  0  0  0  0  0
    5.2621   -2.0382   24.8949 H   0  0  0  0  0  0
  1 21  2  0  0  0
  2  8  1  0  0  0
  2  9  1  0  0  0
  2 10  1  0  0  0
  3  8  2  0  0  0
  3 13  1  0  0  0
  4 12  1  0  0  0
  4 14  2  0  0  0
  5 12  1  0  0  0
  5 18  1  0  0  0
  5 25  1  0  0  0
  6 17  1  0  0  0
  6 20  1  0  0  0
  6 21  1  0  0  0
  7 24  3  0  0  0
  8 11  1  0  0  0
  9 12  2  0  0  0
  9 16  1  0  0  0
 10 13  2  0  0  0
 10 14  1  0  0  0
 11 15  1  0  0  0
 11 17  1  0  0  0
 11 26  1  0  0  0
 13 27  1  0  0  0
 14 28  1  0  0  0
 15 19  1  0  0  0
 15 22  1  0  0  0
 15 29  1  0  0  0
 16 18  2  0  0  0
 16 30  1  0  0  0
 17 31  1  0  0  0
 17 32  1  0  0  0
 18 33  1  0  0  0
 19 20  1  0  0  0
 19 34  1  0  0  0
 19 35  1  0  0  0
 20 36  1  0  0  0
 20 37  1  0  0  0
 21 23  1  0  0  0
 22 38  1  0  0  0
 22 39  1  0  0  0
 22 40  1  0  0  0
 23 24  1  0  0  0
 23 41  1  0  0  0
 23 42  1  0  0  0
M  END
> <s_m_entry_id>
5710

> <s_m_entry_name>
dock_pv.105

> <s_m_Source_Path>
/home/csk/Desktop/cluster/DUD-E-result/igf1r

> <s_m_Source_File>
dock_pv.maegz

> <i_m_Source_File_Index>
105

> <chembl_id>
CHEMBL1966175

> <chembl_pref_name>
None

> <i_lp_mmshare_version>
53161

> <r_lp_tautomer_probability>
1

> <s_lp_Force_Field>
OPLS_2005

> <r_lp_Energy>
61.622179

> <b_lp_Chiralities_Consistent>
1

> <s_lp_Variant>
CHEMBL1957_lig3289-1

> <s_i_glide_gridfile>
glide-grid_2oj9

> <i_i_glide_lignum>
4616

> <i_i_glide_rotatable_bonds>
3

> <r_i_docking_score>
-7.64202280943752

> <r_i_glide_ligand_efficiency>
-0.318417617059897

> <r_i_glide_ligand_efficiency_sa>
-0.918475341792901

> <r_i_glide_ligand_efficiency_ln>
-1.82908672787519

> <r_i_glide_gscore>
-7.64202280943752

> <r_i_glide_lipo>
-2.55334680295528

> <r_i_glide_hbond>
-0.144834458899298

> <r_i_glide_metal>
0

> <r_i_glide_rewards>
-2.87529122758441

> <r_i_glide_evdw>
-36.1872444152832

> <r_i_glide_ecoul>
-4.12714242935181

> <r_i_glide_erotb>
0.3598832651684

> <r_i_glide_esite>
0

> <r_i_glide_emodel>
-47.2012484875483

> <r_i_glide_energy>
-40.314386844635

> <r_i_glide_einternal>
19.123363494873

> <i_i_glide_confnum>
6

> <i_i_glide_posenum>
27

> <r_i_glide_eff_state_penalty>
0

> <s_user_duplicate_titles>
CHEMBL1957_lig3289

> <i_f3d_flags>
0

> <s_m_subgroup_title>
dock_pv

> <s_m_subgroupid>
dock_pv

> <b_m_subgroup_collapsed>
1

$$$$
CHEMBL1957_lig702
                    3D
 Schrodinger Suite 2021-1.
 47 50  0  0  1  0            999 V2000
    8.4415   -4.3948   24.1221 C   0  0  0  0  0  0
    9.3635   -5.0527   23.3017 C   0  0  0  0  0  0
    8.9262   -5.8962   22.2929 C   0  0  0  0  0  0
    7.5696   -6.1034   22.1132 C   0  0  0  0  0  0
    6.6288   -5.5302   22.9860 C   0  0  0  0  0  0
    7.0806   -4.6644   23.9864 C   0  0  0  0  0  0
    8.8584   -3.4660   25.0380 O   0  0  0  0  0  0
   10.7041   -4.8540   23.4380 O   0  0  0  0  0  0
    5.1180   -5.7788   22.8559 C   0  0  0  0  0  0
    4.7225   -6.3379   21.5526 N   0  0  0  0  0  0
    3.8243   -5.5720   20.6380 C   0  0  0  0  0  0
    4.9494   -7.7414   21.3712 C   0  0  0  0  0  0
    4.5287   -8.3920   20.2055 C   0  0  0  0  0  0
    5.6480   -8.5056   22.3417 C   0  0  0  0  0  0
    4.8380   -9.7178   19.9364 C   0  0  0  0  0  0
    4.0380   -4.0540   20.4077 C   0  0  0  0  0  0
    5.0192   -3.2672   21.0380 C   0  0  0  0  0  0
    5.1783   -1.9178   20.7430 C   0  0  0  0  0  0
    4.3832   -1.3289   19.7605 C   0  0  0  0  0  0
    3.4207   -2.0922   19.1032 C   0  0  0  0  0  0
    3.2413   -3.4358   19.4343 C   0  0  0  0  0  0
    6.1093   -1.1871   21.4381 O   0  0  0  0  0  0
    4.5346   -0.0067   19.4380 O   0  0  0  0  0  0
    5.9835   -9.8273   22.0447 C   0  0  0  0  0  0
    5.5901  -10.4494   20.8504 C   0  0  0  0  0  0
    6.1182  -11.7698   20.9358 C   0  0  0  0  0  0
    6.7760  -11.9460   22.0519 N   0  0  0  0  0  0
    6.7036  -10.7853   22.7296 N   0  0  0  0  0  0
    9.6380   -6.3757   21.6379 H   0  0  0  0  0  0
    7.2792   -6.7303   21.2872 H   0  0  0  0  0  0
    6.3765   -4.1750   24.6423 H   0  0  0  0  0  0
    9.7908   -3.2627   24.9321 H   0  0  0  0  0  0
   10.9272   -3.9373   23.2069 H   0  0  0  0  0  0
    4.7860   -6.4227   23.6713 H   0  0  0  0  0  0
    4.5816   -4.8540   23.0370 H   0  0  0  0  0  0
    3.8725   -5.9730   19.6306 H   0  0  0  0  0  0
    2.7986   -5.7263   20.9726 H   0  0  0  0  0  0
    3.9580   -7.9010   19.4380 H   0  0  0  0  0  0
    5.9928   -8.0952   23.2757 H   0  0  0  0  0  0
    4.4739  -10.1693   19.0380 H   0  0  0  0  0  0
    5.7157   -3.6599   21.7447 H   0  0  0  0  0  0
    2.8260   -1.6501   18.3204 H   0  0  0  0  0  0
    2.4991   -4.0069   18.8959 H   0  0  0  0  0  0
    6.1938   -0.2877   21.1153 H   0  0  0  0  0  0
    5.4286    0.2391   19.1796 H   0  0  0  0  0  0
    6.0256  -12.5623   20.2075 H   0  0  0  0  0  0
    7.1338  -10.6995   23.6382 H   0  0  0  0  0  0
  1  2  2  0  0  0
  1  7  1  0  0  0
  1  6  1  0  0  0
  2  8  1  0  0  0
  2  3  1  0  0  0
  3  4  2  0  0  0
  3 29  1  0  0  0
  4  5  1  0  0  0
  4 30  1  0  0  0
  5  9  1  0  0  0
  5  6  2  0  0  0
  6 31  1  0  0  0
  7 32  1  0  0  0
  8 33  1  0  0  0
  9 10  1  0  0  0
  9 34  1  0  0  0
  9 35  1  0  0  0
 10 11  1  0  0  0
 10 12  1  0  0  0
 11 16  1  0  0  0
 11 36  1  0  0  0
 11 37  1  0  0  0
 12 14  1  0  0  0
 12 13  2  0  0  0
 13 15  1  0  0  0
 13 38  1  0  0  0
 14 24  2  0  0  0
 14 39  1  0  0  0
 15 25  2  0  0  0
 15 40  1  0  0  0
 16 17  2  0  0  0
 16 21  1  0  0  0
 17 18  1  0  0  0
 17 41  1  0  0  0
 18 19  2  0  0  0
 18 22  1  0  0  0
 19 20  1  0  0  0
 19 23  1  0  0  0
 20 21  2  0  0  0
 20 42  1  0  0  0
 21 43  1  0  0  0
 22 44  1  0  0  0
 23 45  1  0  0  0
 24 25  1  0  0  0
 24 28  1  0  0  0
 25 26  1  0  0  0
 26 27  2  0  0  0
 26 46  1  0  0  0
 27 28  1  0  0  0
 28 47  1  0  0  0
M  END
> <s_m_entry_id>
5711

> <s_m_entry_name>
dock_pv.106

> <s_m_Source_Path>
/home/csk/Desktop/cluster/DUD-E-result/igf1r

> <s_m_Source_File>
dock_pv.maegz

> <i_m_Source_File_Index>
106

> <chembl_id>
CHEMBL1241669

> <chembl_pref_name>
None

> <i_lp_mmshare_version>
53161

> <r_lp_tautomer_probability>
0.980392156862306

> <s_lp_Force_Field>
OPLS_2005

> <r_lp_Energy>
13.610269

> <b_lp_Chiralities_Consistent>
1

> <s_lp_Variant>
CHEMBL1957_lig702-1

> <s_i_glide_gridfile>
glide-grid_2oj9

> <i_i_glide_lignum>
928

> <i_i_glide_rotatable_bonds>
9

> <r_i_docking_score>
-7.63055224740627

> <r_i_glide_ligand_efficiency>
-0.272519723121653

> <r_i_glide_ligand_efficiency_sa>
-0.827530384930652

> <r_i_glide_ligand_efficiency_ln>
-1.76135550145062

> <r_i_glide_gscore>
-7.63055224740627

> <r_i_glide_lipo>
-3.90967048162392

> <r_i_glide_hbond>
0

> <r_i_glide_metal>
0

> <r_i_glide_rewards>
-1.29602517513905

> <r_i_glide_evdw>
-38.7568016052246

> <r_i_glide_ecoul>
-7.70749235153198

> <r_i_glide_erotb>
0.67993228922588

> <r_i_glide_esite>
-0.0108249468781499

> <r_i_glide_emodel>
-63.8088942872579

> <r_i_glide_energy>
-46.4642939567566

> <r_i_glide_einternal>
9.84592247009277

> <i_i_glide_confnum>
36

> <i_i_glide_posenum>
29

> <r_i_glide_eff_state_penalty>
0

> <s_user_duplicate_titles>
CHEMBL1957_lig702,CHEMBL1957_lig702

> <i_f3d_flags>
0

> <s_m_subgroup_title>
dock_pv

> <s_m_subgroupid>
dock_pv

> <b_m_subgroup_collapsed>
1

$$$$
CHEMBL1957_lig2980
                    3D
 Schrodinger Suite 2021-1.
 36 39  0  0  1  0            999 V2000
    7.1439   -2.4608   22.8468 O   0  0  0  0  0  0
    5.7537  -10.3368   21.3390 O   0  0  0  0  0  0
    6.0380   -1.3427   21.2105 N   0  0  0  0  0  0
    7.2884   -6.2102   24.6380 N   0  0  0  0  0  0
    5.3829   -3.4631   21.4857 C   0  0  0  0  0  0
    4.6126   -2.8540   20.4152 C   0  0  0  0  0  0
    6.0604   -5.5321   22.8691 C   0  0  0  0  0  0
    6.2512   -6.9598   22.8054 C   0  0  0  0  0  0
    5.0723   -1.5682   20.2624 C   0  0  0  0  0  0
    6.2926   -2.4271   21.9630 C   0  0  0  0  0  0
    7.0313   -7.3555   23.9289 C   0  0  0  0  0  0
    5.3135   -4.7475   21.9022 C   0  0  0  0  0  0
    6.6905   -5.1383   24.0350 C   0  0  0  0  0  0
    5.8310   -7.9487   21.9036 C   0  0  0  0  0  0
    3.6353   -3.3605   19.5578 C   0  0  0  0  0  0
    6.1587   -9.2911   22.1420 C   0  0  0  0  0  0
    7.3898   -8.6839   24.1666 C   0  0  0  0  0  0
    4.5972   -0.7412   19.2490 C   0  0  0  0  0  0
    6.9294   -9.6299   23.2517 C   0  0  0  0  0  0
    3.1558   -2.5548   18.5265 C   0  0  0  0  0  0
    3.6380   -1.2540   18.3719 C   0  0  0  0  0  0
    4.9006  -10.0704   20.2336 C   0  0  0  0  0  0
    6.5520   -0.4814   21.3071 H   0  0  0  0  0  0
    7.7623   -6.1297   25.5329 H   0  0  0  0  0  0
    4.5654   -5.3534   21.4122 H   0  0  0  0  0  0
    6.7660   -4.1696   24.5062 H   0  0  0  0  0  0
    5.2466   -7.6606   21.0457 H   0  0  0  0  0  0
    3.2724   -4.3730   19.6521 H   0  0  0  0  0  0
    7.9820   -8.9738   25.0223 H   0  0  0  0  0  0
    4.9753    0.2622   19.1129 H   0  0  0  0  0  0
    7.1676  -10.6713   23.4129 H   0  0  0  0  0  0
    2.4189   -2.9405   17.8381 H   0  0  0  0  0  0
    3.2649   -0.6423   17.5648 H   0  0  0  0  0  0
    4.5255  -11.0123   19.8381 H   0  0  0  0  0  0
    4.0381   -9.4686   20.5187 H   0  0  0  0  0  0
    5.4385   -9.5566   19.4379 H   0  0  0  0  0  0
  1 10  2  0  0  0
  2 16  1  0  0  0
  2 22  1  0  0  0
  3  9  1  0  0  0
  3 10  1  0  0  0
  3 23  1  0  0  0
  4 11  1  0  0  0
  4 13  1  0  0  0
  4 24  1  0  0  0
  5  6  1  0  0  0
  5 10  1  0  0  0
  5 12  2  3  0  0
  6  9  1  0  0  0
  6 15  2  0  0  0
  7  8  1  0  0  0
  7 12  1  0  0  0
  7 13  2  0  0  0
  8 11  1  0  0  0
  8 14  2  0  0  0
  9 18  2  0  0  0
 11 17  2  0  0  0
 12 25  1  0  0  0
 13 26  1  0  0  0
 14 16  1  0  0  0
 14 27  1  0  0  0
 15 20  1  0  0  0
 15 28  1  0  0  0
 16 19  2  0  0  0
 17 19  1  0  0  0
 17 29  1  0  0  0
 18 21  1  0  0  0
 18 30  1  0  0  0
 19 31  1  0  0  0
 20 21  2  0  0  0
 20 32  1  0  0  0
 21 33  1  0  0  0
 22 34  1  0  0  0
 22 35  1  0  0  0
 22 36  1  0  0  0
M  END
> <s_m_entry_id>
5712

> <s_m_entry_name>
dock_pv.107

> <s_m_Source_Path>
/home/csk/Desktop/cluster/DUD-E-result/igf1r

> <s_m_Source_File>
dock_pv.maegz

> <i_m_Source_File_Index>
107

> <chembl_id>
CHEMBL1997275

> <chembl_pref_name>
None

> <i_lp_mmshare_version>
53161

> <r_lp_tautomer_probability>
1

> <s_lp_Force_Field>
OPLS_2005

> <r_lp_Energy>
38.834641

> <b_lp_Chiralities_Consistent>
1

> <s_lp_Variant>
CHEMBL1957_lig2980-2

> <s_i_glide_gridfile>
glide-grid_2oj9

> <i_i_glide_lignum>
4126

> <i_i_glide_rotatable_bonds>
2

> <r_i_docking_score>
-7.62907614000295

> <r_i_glide_ligand_efficiency>
-0.346776188181952

> <r_i_glide_ligand_efficiency_sa>
-0.971680517219415

> <r_i_glide_ligand_efficiency_ln>
-1.8648244859303

> <r_i_glide_gscore>
-7.62907614000295

> <r_i_glide_lipo>
-3.28158014723706

> <r_i_glide_hbond>
-0.279759079872652

> <r_i_glide_metal>
0

> <r_i_glide_rewards>
-2.11223748698197

> <r_i_glide_evdw>
-34.8877601623535

> <r_i_glide_ecoul>
-2.56936097145081

> <r_i_glide_erotb>
0.216211536352508

> <r_i_glide_esite>
-0.0419188084284775

> <r_i_glide_emodel>
-54.6574141590437

> <r_i_glide_energy>
-37.4571211338043

> <r_i_glide_einternal>
0.105251424014568

> <i_i_glide_confnum>
2

> <i_i_glide_posenum>
120

> <r_i_glide_eff_state_penalty>
0

> <s_user_duplicate_titles>
CHEMBL1957_lig2980

> <i_f3d_flags>
0

> <s_m_subgroup_title>
dock_pv

> <s_m_subgroupid>
dock_pv

> <b_m_subgroup_collapsed>
1

$$$$
CHEMBL1957_lig3085
                    3D
 Schrodinger Suite 2021-1.
 38 40  0  0  1  0            999 V2000
    5.2379    0.7460   19.6512 O   0  0  0  0  0  0
    3.9921   -3.2550   20.4178 N   0  0  0  0  0  0
    3.4963   -5.4161   20.1092 N   0  0  0  0  0  0
    7.8986   -2.5075   23.8712 N   0  0  0  0  0  0
    4.8177   -3.9865   21.2548 C   0  0  0  0  0  0
    4.4380   -5.3278   21.0380 C   0  0  0  0  0  0
    5.8772   -3.4199   22.1442 C   0  0  0  0  0  0
    4.9787   -6.5688   21.6821 C   0  0  0  0  0  0
    3.2380   -4.1869   19.7551 C   0  0  0  0  0  0
    3.8837   -1.8089   20.2515 C   0  0  0  0  0  0
    7.1493   -4.0000   22.1231 C   0  0  0  0  0  0
    5.6382   -2.3678   23.0376 C   0  0  0  0  0  0
    5.1027   -7.7549   20.9472 C   0  0  0  0  0  0
    5.3702   -6.5506   23.0255 C   0  0  0  0  0  0
    8.1194   -3.5283   23.0049 C   0  0  0  0  0  0
    6.6697   -1.9377   23.8727 C   0  0  0  0  0  0
    5.6380   -8.8963   21.5392 C   0  0  0  0  0  0
    5.9025   -7.6901   23.6197 C   0  0  0  0  0  0
    4.2466   -1.3192   18.8288 C   0  0  0  0  0  0
    6.0381   -8.8571   22.8727 C   0  0  0  0  0  0
    5.4498   -0.3568   18.7889 C   0  0  0  0  0  0
    5.9102    1.4264   19.4391 H   0  0  0  0  0  0
    2.5169   -3.8701   19.0162 H   0  0  0  0  0  0
    2.8528   -1.5460   20.4912 H   0  0  0  0  0  0
    4.5120   -1.3182   20.9860 H   0  0  0  0  0  0
    7.3761   -4.8167   21.4531 H   0  0  0  0  0  0
    4.6613   -1.9157   23.1123 H   0  0  0  0  0  0
    4.8018   -7.7906   19.9099 H   0  0  0  0  0  0
    5.2635   -5.6539   23.6170 H   0  0  0  0  0  0
    9.1091   -3.9637   23.0197 H   0  0  0  0  0  0
    6.5182   -1.1322   24.5763 H   0  0  0  0  0  0
    5.7394   -9.8079   20.9679 H   0  0  0  0  0  0
    6.2068   -7.6669   24.6557 H   0  0  0  0  0  0
    4.4382   -2.1573   18.1577 H   0  0  0  0  0  0
    3.3840   -0.8163   18.3911 H   0  0  0  0  0  0
    6.4465   -9.7444   23.3348 H   0  0  0  0  0  0
    6.3486   -0.8560   19.1514 H   0  0  0  0  0  0
    5.6424   -0.0028   17.7752 H   0  0  0  0  0  0
  1 21  1  0  0  0
  1 22  1  0  0  0
  2  5  1  0  0  0
  2  9  1  0  0  0
  2 10  1  0  0  0
  3  6  1  0  0  0
  3  9  2  0  0  0
  4 15  2  0  0  0
  4 16  1  0  0  0
  5  6  2  0  0  0
  5  7  1  0  0  0
  6  8  1  0  0  0
  7 11  2  0  0  0
  7 12  1  0  0  0
  8 13  2  0  0  0
  8 14  1  0  0  0
  9 23  1  0  0  0
 10 19  1  0  0  0
 10 24  1  0  0  0
 10 25  1  0  0  0
 11 15  1  0  0  0
 11 26  1  0  0  0
 12 16  2  0  0  0
 12 27  1  0  0  0
 13 17  1  0  0  0
 13 28  1  0  0  0
 14 18  2  0  0  0
 14 29  1  0  0  0
 15 30  1  0  0  0
 16 31  1  0  0  0
 17 20  2  0  0  0
 17 32  1  0  0  0
 18 20  1  0  0  0
 18 33  1  0  0  0
 19 21  1  0  0  0
 19 34  1  0  0  0
 19 35  1  0  0  0
 20 36  1  0  0  0
 21 37  1  0  0  0
 21 38  1  0  0  0
M  END
> <s_m_entry_id>
5713

> <s_m_entry_name>
dock_pv.108

> <s_m_Source_Path>
/home/csk/Desktop/cluster/DUD-E-result/igf1r

> <s_m_Source_File>
dock_pv.maegz

> <i_m_Source_File_Index>
108

> <chembl_id>
CHEMBL2002373

> <chembl_pref_name>
None

> <i_lp_mmshare_version>
53161

> <r_lp_tautomer_probability>
1

> <s_lp_Force_Field>
OPLS_2005

> <r_lp_Energy>
15.254415

> <b_lp_Chiralities_Consistent>
1

> <s_lp_Variant>
CHEMBL1957_lig3085-1

> <s_i_glide_gridfile>
glide-grid_2oj9

> <i_i_glide_lignum>
4288

> <i_i_glide_rotatable_bonds>
6

> <r_i_docking_score>
-7.59160050034968

> <r_i_glide_ligand_efficiency>
-0.361504785730937

> <r_i_glide_ligand_efficiency_sa>
-0.997364292218393

> <r_i_glide_ligand_efficiency_ln>
-1.87700788343823

> <r_i_glide_gscore>
-7.59160050034968

> <r_i_glide_lipo>
-3.36317365048833

> <r_i_glide_hbond>
-0.16

> <r_i_glide_metal>
0

> <r_i_glide_rewards>
-2.2807412205702

> <r_i_glide_evdw>
-31.7691059112549

> <r_i_glide_ecoul>
-6.72319507598877

> <r_i_glide_erotb>
0.809248927669908

> <r_i_glide_esite>
0

> <r_i_glide_emodel>
-54.6512977240322

> <r_i_glide_energy>
-38.4923009872437

> <r_i_glide_einternal>
5.42788648605347

> <i_i_glide_confnum>
121

> <i_i_glide_posenum>
93

> <r_i_glide_eff_state_penalty>
0

> <s_user_duplicate_titles>
CHEMBL1957_lig3085

> <i_f3d_flags>
0

> <s_m_subgroup_title>
dock_pv

> <s_m_subgroupid>
dock_pv

> <b_m_subgroup_collapsed>
1

$$$$
CHEMBL1957_lig2726
                    3D
 Schrodinger Suite 2021-1.
 41 44  0  0  1  0            999 V2000
    7.0272   -7.1443   23.8462 S   0  0  0  0  0  0
    6.4625   -5.9226   24.4269 O   0  0  0  0  0  0
    7.2379   -8.3548   24.6457 O   0  0  0  0  0  0
    5.3385   -1.6746   20.9616 N   0  0  0  0  0  0
    4.3414   -3.9037   20.7318 N   0  0  0  0  0  0
    3.0667   -4.2251   18.6986 N   0  0  0  0  0  0
    3.6380   -6.0539   19.9793 N   0  0  0  0  0  0
    8.5597   -6.7292   23.1243 N   0  0  0  0  0  0
    4.5544   -2.6409   20.3373 C   0  0  0  0  0  0
    4.0349   -2.0753   19.1416 C   0  0  0  0  0  0
    3.6380   -4.6603   19.8476 C   0  0  0  0  0  0
    6.1053   -1.8108   22.1381 C   0  0  0  0  0  0
    5.3248   -0.5463   20.1604 C   0  0  0  0  0  0
    4.5395   -0.7479   19.0444 C   0  0  0  0  0  0
    3.2382   -2.9226   18.3637 C   0  0  0  0  0  0
    4.4378   -6.9645   20.6978 C   0  0  0  0  0  0
    6.0039   -7.5942   22.4493 C   0  0  0  0  0  0
    5.2084   -6.6297   21.8199 C   0  0  0  0  0  0
    6.0842   -0.7937   23.0972 C   0  0  0  0  0  0
    6.8622   -2.9678   22.3564 C   0  0  0  0  0  0
    4.4579   -8.2858   20.2383 C   0  0  0  0  0  0
    6.0137   -8.9081   21.9748 C   0  0  0  0  0  0
    5.2382   -9.2537   20.8703 C   0  0  0  0  0  0
    6.8380   -0.9195   24.2584 C   0  0  0  0  0  0
    7.6329   -3.0792   23.5090 C   0  0  0  0  0  0
    7.6223   -2.0540   24.4485 C   0  0  0  0  0  0
    3.1358   -6.4831   19.2188 H   0  0  0  0  0  0
    8.8103   -5.7400   23.1701 H   0  0  0  0  0  0
    9.3317   -7.3750   23.3126 H   0  0  0  0  0  0
    5.9285    0.3110   20.4286 H   0  0  0  0  0  0
    4.4085   -0.0540   18.2313 H   0  0  0  0  0  0
    2.8015   -2.5863   17.4379 H   0  0  0  0  0  0
    5.2057   -5.6284   22.2176 H   0  0  0  0  0  0
    5.5176    0.1084   22.9395 H   0  0  0  0  0  0
    6.8861   -3.7656   21.6277 H   0  0  0  0  0  0
    3.8704   -8.5726   19.3788 H   0  0  0  0  0  0
    6.6212   -9.6604   22.4584 H   0  0  0  0  0  0
    5.2432  -10.2692   20.5007 H   0  0  0  0  0  0
    6.8504   -0.1255   24.9908 H   0  0  0  0  0  0
    8.2455   -3.9510   23.6752 H   0  0  0  0  0  0
    8.2425   -2.1330   25.3296 H   0  0  0  0  0  0
  1  2  2  0  0  0
  1  3  2  0  0  0
  1  8  1  0  0  0
  1 17  1  0  0  0
  4  9  1  0  0  0
  4 12  1  0  0  0
  4 13  1  0  0  0
  5  9  2  0  0  0
  5 11  1  0  0  0
  6 11  2  0  0  0
  6 15  1  0  0  0
  7 11  1  0  0  0
  7 16  1  0  0  0
  7 27  1  0  0  0
  8 28  1  0  0  0
  8 29  1  0  0  0
  9 10  1  0  0  0
 10 14  1  0  0  0
 10 15  2  0  0  0
 12 19  2  0  0  0
 12 20  1  0  0  0
 13 14  2  0  0  0
 13 30  1  0  0  0
 14 31  1  0  0  0
 15 32  1  0  0  0
 16 18  2  0  0  0
 16 21  1  0  0  0
 17 18  1  0  0  0
 17 22  2  0  0  0
 18 33  1  0  0  0
 19 24  1  0  0  0
 19 34  1  0  0  0
 20 25  2  0  0  0
 20 35  1  0  0  0
 21 23  2  0  0  0
 21 36  1  0  0  0
 22 23  1  0  0  0
 22 37  1  0  0  0
 23 38  1  0  0  0
 24 26  2  0  0  0
 24 39  1  0  0  0
 25 26  1  0  0  0
 25 40  1  0  0  0
 26 41  1  0  0  0
M  END
> <s_m_entry_id>
5714

> <s_m_entry_name>
dock_pv.109

> <s_m_Source_Path>
/home/csk/Desktop/cluster/DUD-E-result/igf1r

> <s_m_Source_File>
dock_pv.maegz

> <i_m_Source_File_Index>
109

> <chembl_id>
CHEMBL1988163

> <chembl_pref_name>
None

> <i_lp_mmshare_version>
53161

> <r_lp_tautomer_probability>
1

> <s_lp_Force_Field>
OPLS_2005

> <r_lp_Energy>
17.914909

> <b_lp_Chiralities_Consistent>
1

> <s_lp_Variant>
CHEMBL1957_lig2726-1

> <s_i_glide_gridfile>
glide-grid_2oj9

> <i_i_glide_lignum>
3773

> <i_i_glide_rotatable_bonds>
4

> <r_i_docking_score>
-7.57842365891678

> <r_i_glide_ligand_efficiency>
-0.291477833035261

> <r_i_glide_ligand_efficiency_sa>
-0.863501933457069

> <r_i_glide_ligand_efficiency_ln>
-1.77976792946035

> <r_i_glide_gscore>
-7.57842365891678

> <r_i_glide_lipo>
-3.18126587466586

> <r_i_glide_hbond>
0

> <r_i_glide_metal>
0

> <r_i_glide_rewards>
-2.28418898328935

> <r_i_glide_evdw>
-43.5684242248535

> <r_i_glide_ecoul>
-2.36107087135315

> <r_i_glide_erotb>
0.432186503357526

> <r_i_glide_esite>
-0.0125734623734564

> <r_i_glide_emodel>
-61.4024359416233

> <r_i_glide_energy>
-45.9294950962067

> <r_i_glide_einternal>
5.21488666534424

> <i_i_glide_confnum>
8

> <i_i_glide_posenum>
261

> <r_i_glide_eff_state_penalty>
0

> <s_user_duplicate_titles>
CHEMBL1957_lig2726

> <i_f3d_flags>
0

> <s_m_subgroup_title>
dock_pv

> <s_m_subgroupid>
dock_pv

> <b_m_subgroup_collapsed>
1

$$$$
CHEMBL1957_lig3093
                    3D
 Schrodinger Suite 2021-1.
 52 55  0  0  1  0            999 V2000
    7.6761   -3.9856   22.6165 S   0  0  0  0  0  0
    9.6322   -4.4651   26.0021 O   0  0  0  0  0  0
    5.2382   -8.4136   22.9834 O   0  0  0  0  0  0
    3.6379   -1.2567   18.2381 N   0  0  0  0  0  0
    3.1241   -2.4836   18.0575 N   0  0  0  0  0  0
    9.4200   -5.8496   24.2202 N   0  0  0  0  0  0
    6.8091   -2.4748   22.7117 C   0  0  0  0  0  0
    5.9266   -2.1068   21.5735 C   0  0  0  0  0  0
    4.3186   -2.7258   19.8911 C   0  0  0  0  0  0
    7.0788   -1.7847   23.8980 C   0  0  0  0  0  0
    8.4271   -3.7033   24.1593 C   0  0  0  0  0  0
    4.4096   -1.4085   19.3450 C   0  0  0  0  0  0
    5.0492   -3.0546   21.0382 C   0  0  0  0  0  0
    3.4740   -3.4278   18.9911 C   0  0  0  0  0  0
    8.0599   -2.4540   24.6379 C   0  0  0  0  0  0
    6.0179   -0.8291   21.0170 C   0  0  0  0  0  0
    9.2383   -4.6781   24.8543 C   0  0  0  0  0  0
    5.2535   -0.4515   19.9174 C   0  0  0  0  0  0
    9.7014   -7.1444   24.8552 C   0  0  1  0  0  0
    6.4823   -0.4581   24.3304 C   0  0  0  0  0  0
    8.6750   -8.2125   24.4212 C   0  0  0  0  0  0
    3.0321   -4.8716   18.9088 C   0  0  0  0  0  0
    7.3990   -7.8246   23.9826 C   0  0  0  0  0  0
    8.9989   -9.5768   24.3879 C   0  0  0  0  0  0
    6.4830   -8.7506   23.4692 C   0  0  0  0  0  0
   11.1684   -7.5640   24.6379 C   0  0  0  0  0  0
    6.8388  -10.0977   23.4384 C   0  0  0  0  0  0
    8.0851  -10.5132   23.9045 C   0  0  0  0  0  0
    4.8196   -7.0522   23.0216 C   0  0  0  0  0  0
    2.5238   -2.6823   17.2642 H   0  0  0  0  0  0
    9.4340   -5.8431   23.2112 H   0  0  0  0  0  0
    4.9894   -4.0499   21.4530 H   0  0  0  0  0  0
    8.4397   -2.0573   25.5686 H   0  0  0  0  0  0
    6.7183   -0.1151   21.4178 H   0  0  0  0  0  0
    5.3540    0.5358   19.4871 H   0  0  0  0  0  0
    9.5558   -7.0371   25.9339 H   0  0  0  0  0  0
    6.0597    0.1299   23.5186 H   0  0  0  0  0  0
    5.7027   -0.6012   25.0791 H   0  0  0  0  0  0
    7.2372    0.1797   24.7937 H   0  0  0  0  0  0
    3.8782   -5.5557   18.8603 H   0  0  0  0  0  0
    2.4434   -5.1673   19.7773 H   0  0  0  0  0  0
    2.4381   -5.0658   18.0173 H   0  0  0  0  0  0
    7.1289   -6.7817   24.0238 H   0  0  0  0  0  0
    9.9657   -9.9245   24.7202 H   0  0  0  0  0  0
   11.5029   -8.2564   25.4109 H   0  0  0  0  0  0
   11.2875   -8.0693   23.6824 H   0  0  0  0  0  0
   11.8473   -6.7099   24.6380 H   0  0  0  0  0  0
    6.1374  -10.8258   23.0558 H   0  0  0  0  0  0
    8.3483  -11.5606   23.8786 H   0  0  0  0  0  0
    3.7968   -6.9717   22.6547 H   0  0  0  0  0  0
    4.8374   -6.6556   24.0380 H   0  0  0  0  0  0
    5.4460   -6.4263   22.3844 H   0  0  0  0  0  0
  1  7  1  0  0  0
  1 11  1  0  0  0
  2 17  2  0  0  0
  3 25  1  0  0  0
  3 29  1  0  0  0
  4  5  1  0  0  0
  4 12  2  0  0  0
  5 30  1  0  0  0
  5 14  1  0  0  0
  6 17  1  0  0  0
  6 19  1  0  0  0
  6 31  1  0  0  0
  7 10  2  0  0  0
  7  8  1  0  0  0
  8 16  1  0  0  0
  8 13  2  0  0  0
  9 13  1  0  0  0
  9 12  1  0  0  0
  9 14  2  0  0  0
 10 15  1  0  0  0
 10 20  1  0  0  0
 11 15  2  0  0  0
 11 17  1  0  0  0
 12 18  1  0  0  0
 13 32  1  0  0  0
 14 22  1  0  0  0
 15 33  1  0  0  0
 16 18  2  0  0  0
 16 34  1  0  0  0
 18 35  1  0  0  0
 19 21  1  0  0  0
 19 26  1  0  0  0
 19 36  1  0  0  0
 20 37  1  0  0  0
 20 38  1  0  0  0
 20 39  1  0  0  0
 21 23  2  0  0  0
 21 24  1  0  0  0
 22 40  1  0  0  0
 22 41  1  0  0  0
 22 42  1  0  0  0
 23 25  1  0  0  0
 23 43  1  0  0  0
 24 28  2  0  0  0
 24 44  1  0  0  0
 25 27  2  0  0  0
 26 45  1  0  0  0
 26 46  1  0  0  0
 26 47  1  0  0  0
 27 28  1  0  0  0
 27 48  1  0  0  0
 28 49  1  0  0  0
 29 50  1  0  0  0
 29 51  1  0  0  0
 29 52  1  0  0  0
M  END
> <s_m_entry_id>
5715

> <s_m_entry_name>
dock_pv.110

> <s_m_Source_Path>
/home/csk/Desktop/cluster/DUD-E-result/igf1r

> <s_m_Source_File>
dock_pv.maegz

> <i_m_Source_File_Index>
110

> <chembl_id>
CHEMBL1997534

> <chembl_pref_name>
None

> <i_lp_mmshare_version>
53161

> <r_lp_tautomer_probability>
0.0196078431372549

> <s_lp_Force_Field>
OPLS_2005

> <r_lp_Energy>
33.076805

> <b_lp_Chiralities_Consistent>
1

> <s_lp_Variant>
CHEMBL1957_lig3093-4

> <s_i_glide_gridfile>
glide-grid_2oj9

> <i_i_glide_lignum>
4302

> <i_i_glide_rotatable_bonds>
6

> <r_i_docking_score>
-7.57636968725794

> <r_i_glide_ligand_efficiency>
-0.261254127146826

> <r_i_glide_ligand_efficiency_sa>
-0.802655449712136

> <r_i_glide_ligand_efficiency_ln>
-1.73479653822338

> <r_i_glide_gscore>
-7.57636968725794

> <r_i_glide_lipo>
-3.24836169892998

> <r_i_glide_hbond>
-0.32

> <r_i_glide_metal>
0

> <r_i_glide_rewards>
-1.93145339368854

> <r_i_glide_evdw>
-45.3634338378906

> <r_i_glide_ecoul>
-2.70643520355225

> <r_i_glide_erotb>
0.597582377787943

> <r_i_glide_esite>
0

> <r_i_glide_emodel>
-58.8695327987173

> <r_i_glide_energy>
-48.0698690414429

> <r_i_glide_einternal>
14.5927486419678

> <i_i_glide_confnum>
13

> <i_i_glide_posenum>
62

> <r_i_glide_eff_state_penalty>
0

> <s_user_duplicate_titles>
CHEMBL1957_lig3093

> <i_f3d_flags>
0

> <s_m_subgroup_title>
dock_pv

> <s_m_subgroupid>
dock_pv

> <b_m_subgroup_collapsed>
1

$$$$
CHEMBL1957_lig439
                    3D
 Schrodinger Suite 2021-1.
 32 34  0  0  1  0            999 V2000
    3.6380   -5.5291   20.0950 C   0  0  0  0  0  0
    4.0380   -6.2319   21.1917 O   0  0  0  0  0  0
    5.3871   -4.3590   22.0633 C   0  0  0  0  0  0
    4.9167   -5.6914   22.1133 C   0  0  0  0  0  0
    5.3421   -6.5811   23.1018 C   0  0  0  0  0  0
    6.2841   -6.1795   24.0419 C   0  0  0  0  0  0
    6.8395   -4.9102   23.9533 C   0  0  0  0  0  0
    6.4380   -4.0104   22.9593 C   0  0  0  0  0  0
    3.9171   -4.0541   20.0254 C   0  0  0  0  0  0
    4.7350   -3.4724   21.0192 C   0  0  0  0  0  0
    4.9049   -2.0877   20.9771 C   0  0  0  0  0  0
    4.4185   -1.2963   19.9278 C   0  0  0  0  0  0
    3.6927   -1.9039   18.9133 C   0  0  0  0  0  0
    3.4604   -3.2739   18.9359 C   0  0  0  0  0  0
    2.8380   -3.8251   17.8385 O   0  0  0  0  0  0
    4.6096    0.0683   19.8406 O   0  0  0  0  0  0
    3.1119   -6.1823   19.1961 O   0  0  0  0  0  0
    6.6954   -7.0341   25.0307 O   0  0  0  0  0  0
    7.2576   -2.7279   22.8761 C   0  0  0  0  0  0
    5.6381    0.6502   20.6403 C   0  0  0  0  0  0
    4.9471   -7.5860   23.1414 H   0  0  0  0  0  0
    7.6163   -4.6328   24.6527 H   0  0  0  0  0  0
    5.4105   -1.6166   21.7895 H   0  0  0  0  0  0
    3.3420   -1.3054   18.0861 H   0  0  0  0  0  0
    2.5096   -3.2061   17.1753 H   0  0  0  0  0  0
    7.2370   -6.6002   25.7033 H   0  0  0  0  0  0
    7.4282   -2.4411   21.8391 H   0  0  0  0  0  0
    8.2567   -2.8681   23.2926 H   0  0  0  0  0  0
    6.7808   -1.9149   23.4229 H   0  0  0  0  0  0
    5.5796    1.7328   20.6373 H   0  0  0  0  0  0
    5.6055    0.3955   21.6969 H   0  0  0  0  0  0
    6.6028    0.3458   20.2381 H   0  0  0  0  0  0
  1  9  1  0  0  0
  1  2  1  0  0  0
  1 17  2  0  0  0
  2  4  1  0  0  0
  3 10  1  0  0  0
  3  4  1  0  0  0
  3  8  2  0  0  0
  4  5  2  0  0  0
  5  6  1  0  0  0
  5 21  1  0  0  0
  6  7  2  0  0  0
  6 18  1  0  0  0
  7  8  1  0  0  0
  7 22  1  0  0  0
  8 19  1  0  0  0
  9 10  2  0  0  0
  9 14  1  0  0  0
 10 11  1  0  0  0
 11 12  2  0  0  0
 11 23  1  0  0  0
 12 13  1  0  0  0
 12 16  1  0  0  0
 13 14  2  0  0  0
 13 24  1  0  0  0
 14 15  1  0  0  0
 15 25  1  0  0  0
 16 20  1  0  0  0
 18 26  1  0  0  0
 19 27  1  0  0  0
 19 28  1  0  0  0
 19 29  1  0  0  0
 20 30  1  0  0  0
 20 31  1  0  0  0
 20 32  1  0  0  0
M  END
> <s_m_entry_id>
5716

> <s_m_entry_name>
dock_pv.111

> <s_m_Source_Path>
/home/csk/Desktop/cluster/DUD-E-result/igf1r

> <s_m_Source_File>
dock_pv.maegz

> <i_m_Source_File_Index>
111

> <chembl_id>
CHEMBL483526

> <chembl_pref_name>
None

> <i_lp_mmshare_version>
53161

> <r_lp_tautomer_probability>
1

> <s_lp_Force_Field>
OPLS_2005

> <r_lp_Energy>
34.726994

> <b_lp_Chiralities_Consistent>
1

> <s_lp_Variant>
CHEMBL1957_lig439-1

> <s_i_glide_gridfile>
glide-grid_2oj9

> <i_i_glide_lignum>
623

> <i_i_glide_rotatable_bonds>
3

> <r_i_docking_score>
-7.5698492815364

> <r_i_glide_ligand_efficiency>
-0.37849246407682

> <r_i_glide_ligand_efficiency_sa>
-1.02738661121261

> <r_i_glide_ligand_efficiency_ln>
-1.89448360482957

> <r_i_glide_gscore>
-7.5698492815364

> <r_i_glide_lipo>
-3.02882683937347

> <r_i_glide_hbond>
-0.306823774518781

> <r_i_glide_metal>
0

> <r_i_glide_rewards>
-1.71985378467906

> <r_i_glide_evdw>
-25.8869552612305

> <r_i_glide_ecoul>
-8.13331413269043

> <r_i_glide_erotb>
0

> <r_i_glide_esite>
0

> <r_i_glide_emodel>
-43.8713655418289

> <r_i_glide_energy>
-34.0202693939209

> <r_i_glide_einternal>
6.35202407836914

> <i_i_glide_confnum>
1

> <i_i_glide_posenum>
2

> <r_i_glide_eff_state_penalty>
0

> <s_user_duplicate_titles>
CHEMBL1957_lig439

> <i_f3d_flags>
0

> <s_m_subgroup_title>
dock_pv

> <s_m_subgroupid>
dock_pv

> <b_m_subgroup_collapsed>
1

$$$$
CHEMBL1957_lig3497
                    3D
 Schrodinger Suite 2021-1.
 41 44  0  0  1  0            999 V2000
    7.1256   -4.0340   23.9887 C   0  0  0  0  0  0
    7.6255   -2.7578   24.2378 C   0  0  0  0  0  0
    7.2845   -1.6545   23.5365 N   0  0  0  0  0  0
    6.2268   -4.2541   22.9380 C   0  0  0  0  0  0
    5.8525   -3.1127   22.1582 C   0  0  0  0  0  0
    6.4542   -1.8780   22.5272 C   0  0  0  0  0  0
    6.1415   -0.8668   21.6660 O   0  0  0  0  0  0
    5.0283   -2.7729   21.0499 C   0  0  0  0  0  0
    5.3173   -1.4177   20.7321 C   0  0  0  0  0  0
    4.8086   -0.7473   19.6153 C   0  0  0  0  0  0
    3.9688   -1.4782   18.7791 C   0  0  0  0  0  0
    3.6203   -2.7927   19.0864 C   0  0  0  0  0  0
    4.0842   -3.4274   20.2381 C   0  0  0  0  0  0
    5.8486   -5.5993   22.7817 N   0  0  0  0  0  0
    5.0995   -6.1366   21.6613 C   0  0  0  0  0  0
    5.2932   -7.6291   21.4009 C   0  0  0  0  0  0
    6.0300   -8.4780   22.2427 C   0  0  0  0  0  0
    6.1810   -9.8423   21.9363 C   0  0  0  0  0  0
    5.5752  -10.3451   20.7846 C   0  0  0  0  0  0
    4.8381   -9.5124   19.9465 C   0  0  0  0  0  0
    4.6997   -8.1622   20.2533 C   0  0  0  0  0  0
    2.8380   -3.5263   18.2090 N   0  0  0  0  0  0
    6.9027  -10.7424   22.6945 O   0  0  0  0  0  0
    7.5550  -10.2919   23.8756 C   0  0  0  0  0  0
    7.4608   -4.8533   24.6103 H   0  0  0  0  0  0
    8.3377   -2.5991   25.0354 H   0  0  0  0  0  0
    5.0801    0.2759   19.3962 H   0  0  0  0  0  0
    3.5910   -1.0162   17.8787 H   0  0  0  0  0  0
    3.7512   -4.4275   20.4340 H   0  0  0  0  0  0
    6.1362   -6.2480   23.4984 H   0  0  0  0  0  0
    5.4101   -5.6255   20.7576 H   0  0  0  0  0  0
    4.0381   -5.9621   21.8336 H   0  0  0  0  0  0
    6.4934   -8.0773   23.1289 H   0  0  0  0  0  0
    5.6831  -11.3905   20.5343 H   0  0  0  0  0  0
    4.3797   -9.9093   19.0522 H   0  0  0  0  0  0
    4.1315   -7.5287   19.5872 H   0  0  0  0  0  0
    2.6318   -4.4875   18.4274 H   0  0  0  0  0  0
    2.5191   -3.1226   17.3325 H   0  0  0  0  0  0
    8.0687  -11.1311   24.3440 H   0  0  0  0  0  0
    8.3027   -9.5287   23.6545 H   0  0  0  0  0  0
    6.8413   -9.8977   24.5997 H   0  0  0  0  0  0
  1  2  2  0  0  0
  1  4  1  0  0  0
  1 25  1  0  0  0
  2  3  1  0  0  0
  2 26  1  0  0  0
  3  6  2  0  0  0
  4  5  2  0  0  0
  4 14  1  0  0  0
  5  6  1  0  0  0
  5  8  1  0  0  0
  6  7  1  0  0  0
  7  9  1  0  0  0
  8  9  2  0  0  0
  8 13  1  0  0  0
  9 10  1  0  0  0
 10 11  2  0  0  0
 10 27  1  0  0  0
 11 12  1  0  0  0
 11 28  1  0  0  0
 12 13  2  0  0  0
 12 22  1  0  0  0
 13 29  1  0  0  0
 14 15  1  0  0  0
 14 30  1  0  0  0
 15 16  1  0  0  0
 15 31  1  0  0  0
 15 32  1  0  0  0
 16 17  2  0  0  0
 16 21  1  0  0  0
 17 18  1  0  0  0
 17 33  1  0  0  0
 18 19  2  0  0  0
 18 23  1  0  0  0
 19 20  1  0  0  0
 19 34  1  0  0  0
 20 21  2  0  0  0
 20 35  1  0  0  0
 21 36  1  0  0  0
 22 37  1  0  0  0
 22 38  1  0  0  0
 23 24  1  0  0  0
 24 39  1  0  0  0
 24 40  1  0  0  0
 24 41  1  0  0  0
M  END
> <s_m_entry_id>
5718

> <s_m_entry_name>
dock_pv.113

> <s_m_Source_Path>
/home/csk/Desktop/cluster/DUD-E-result/igf1r

> <s_m_Source_File>
dock_pv.maegz

> <i_m_Source_File_Index>
113

> <chembl_id>
CHEMBL4210187

> <chembl_pref_name>
None

> <i_lp_mmshare_version>
53161

> <r_lp_tautomer_probability>
1

> <s_lp_Force_Field>
OPLS_2005

> <r_lp_Energy>
17.861783

> <b_lp_Chiralities_Consistent>
1

> <s_lp_Variant>
CHEMBL1957_lig3497-1

> <s_i_glide_gridfile>
glide-grid_2oj9

> <i_i_glide_lignum>
4907

> <i_i_glide_rotatable_bonds>
4

> <r_i_docking_score>
-7.5671625689623

> <r_i_glide_ligand_efficiency>
-0.315298440373429

> <r_i_glide_ligand_efficiency_sa>
-0.909478079330892

> <r_i_glide_ligand_efficiency_ln>
-1.81116923721687

> <r_i_glide_gscore>
-7.5671625689623

> <r_i_glide_lipo>
-3.912964065698

> <r_i_glide_hbond>
-0.32

> <r_i_glide_metal>
0

> <r_i_glide_rewards>
-1.53165558348721

> <r_i_glide_evdw>
-37.9947052001953

> <r_i_glide_ecoul>
-3.01082277297974

> <r_i_glide_erotb>
0.548815756179636

> <r_i_glide_esite>
0

> <r_i_glide_emodel>
-52.879925991321

> <r_i_glide_energy>
-41.005527973175

> <r_i_glide_einternal>
9.71476459503174

> <i_i_glide_confnum>
14

> <i_i_glide_posenum>
69

> <r_i_glide_eff_state_penalty>
0

> <s_user_duplicate_titles>
CHEMBL1957_lig3497

> <i_f3d_flags>
0

> <s_m_subgroup_title>
dock_pv

> <s_m_subgroupid>
dock_pv

> <b_m_subgroup_collapsed>
1

$$$$
CHEMBL1957_lig2080
                    3D
 Schrodinger Suite 2021-1.
 55 60  0  0  1  0            999 V2000
    7.0266   -0.7017   24.1632 C   0  0  0  0  0  0
    6.3633   -1.3115   23.0245 N   0  0  0  0  0  0
    6.0380   -0.5804   21.9456 N   0  0  0  0  0  0
    5.4122   -1.4241   21.1523 C   0  0  0  0  0  0
    4.7955   -1.1085   19.7932 C   0  0  0  0  0  0
    3.5478   -2.0206   19.5669 C   0  0  0  0  0  0
    3.7913   -3.4877   19.9457 C   0  0  0  0  0  0
    3.2426   -4.5825   19.2691 C   0  0  0  0  0  0
    3.4388   -5.8748   19.6521 N   0  0  0  0  0  0
    4.2361   -6.0821   20.7348 C   0  0  0  0  0  0
    4.5318   -7.4234   21.0385 N   0  0  0  0  0  0
    5.3685   -8.0118   22.0152 C   0  0  0  0  0  0
    5.6313   -7.3510   23.2187 C   0  0  0  0  0  0
    6.5457   -7.8310   24.1443 C   0  0  0  0  0  0
    7.2018   -9.0311   23.9194 C   0  0  0  0  0  0
    6.8973   -9.8027   22.7760 C   0  0  0  0  0  0
    7.5135  -11.0616   22.5737 C   0  0  0  0  0  0
    7.1957  -11.8296   21.4610 C   0  0  0  0  0  0
    6.2709  -11.3699   20.5345 C   0  0  0  0  0  0
    5.6567  -10.1296   20.6899 C   0  0  0  0  0  0
    5.9561   -9.3054   21.8144 C   0  0  0  0  0  0
    4.8383   -5.0898   21.4380 N   0  0  0  0  0  0
    4.6101   -3.8134   21.0381 C   0  0  0  0  0  0
    5.3062   -2.6989   21.7177 C   0  0  0  0  0  0
    5.9942   -2.6265   22.9143 C   0  0  0  0  0  0
    6.3342   -3.6835   23.9450 C   0  0  0  0  0  0
    7.7110   -4.2840   23.7690 C   0  0  0  0  0  0
    8.3053   -4.3486   22.5103 C   0  0  0  0  0  0
    9.5834   -4.8541   22.3981 C   0  0  0  0  0  0
   10.2629   -5.3104   23.5216 C   0  0  0  0  0  0
    9.6380   -5.3394   24.7560 C   0  0  0  0  0  0
    8.3685   -4.8191   24.8723 C   0  0  0  0  0  0
    7.9496   -1.2540   24.3543 H   0  0  0  0  0  0
    7.2373    0.3528   23.9812 H   0  0  0  0  0  0
    6.3785   -0.7770   25.0359 H   0  0  0  0  0  0
    5.5292   -1.2543   19.0001 H   0  0  0  0  0  0
    4.5106   -0.0578   19.7287 H   0  0  0  0  0  0
    3.2120   -1.9442   18.5312 H   0  0  0  0  0  0
    2.7225   -1.6544   20.1784 H   0  0  0  0  0  0
    2.6102   -4.4306   18.4066 H   0  0  0  0  0  0
    4.1792   -8.0652   20.3461 H   0  0  0  0  0  0
    5.1046   -6.4482   23.4594 H   0  0  0  0  0  0
    6.7419   -7.2698   25.0470 H   0  0  0  0  0  0
    7.9169   -9.4004   24.6404 H   0  0  0  0  0  0
    8.2288  -11.4281   23.2959 H   0  0  0  0  0  0
    7.6671  -12.7908   21.3173 H   0  0  0  0  0  0
    6.0392  -11.9809   19.6756 H   0  0  0  0  0  0
    4.9512   -9.7973   19.9429 H   0  0  0  0  0  0
    5.6380   -4.5117   23.8603 H   0  0  0  0  0  0
    6.2005   -3.3072   24.9596 H   0  0  0  0  0  0
    7.8067   -3.9797   21.6256 H   0  0  0  0  0  0
   10.0380   -4.8428   21.4391 H   0  0  0  0  0  0
   11.2776   -5.6638   23.4381 H   0  0  0  0  0  0
   10.1399   -5.7327   25.6256 H   0  0  0  0  0  0
    7.9121   -4.8541   25.8379 H   0  0  0  0  0  0
  1  2  1  0  0  0
  1 33  1  0  0  0
  1 34  1  0  0  0
  1 35  1  0  0  0
  2  3  1  0  0  0
  2 25  1  0  0  0
  3  4  2  0  0  0
  4  5  1  0  0  0
  4 24  1  0  0  0
  5  6  1  0  0  0
  5 36  1  0  0  0
  5 37  1  0  0  0
  6  7  1  0  0  0
  6 38  1  0  0  0
  6 39  1  0  0  0
  7  8  2  0  0  0
  7 23  1  0  0  0
  8  9  1  0  0  0
  8 40  1  0  0  0
  9 10  2  0  0  0
 10 11  1  0  0  0
 10 22  1  0  0  0
 11 12  1  0  0  0
 11 41  1  0  0  0
 12 13  2  0  0  0
 12 21  1  0  0  0
 13 14  1  0  0  0
 13 42  1  0  0  0
 14 15  2  0  0  0
 14 43  1  0  0  0
 15 16  1  0  0  0
 15 44  1  0  0  0
 16 17  2  0  0  0
 16 21  1  0  0  0
 17 18  1  0  0  0
 17 45  1  0  0  0
 18 19  2  0  0  0
 18 46  1  0  0  0
 19 20  1  0  0  0
 19 47  1  0  0  0
 20 21  2  0  0  0
 20 48  1  0  0  0
 22 23  2  0  0  0
 23 24  1  0  0  0
 24 25  2  0  0  0
 25 26  1  0  0  0
 26 27  1  0  0  0
 26 49  1  0  0  0
 26 50  1  0  0  0
 27 28  2  0  0  0
 27 32  1  0  0  0
 28 29  1  0  0  0
 28 51  1  0  0  0
 29 30  2  0  0  0
 29 52  1  0  0  0
 30 31  1  0  0  0
 30 53  1  0  0  0
 31 32  2  0  0  0
 31 54  1  0  0  0
 32 55  1  0  0  0
M  END
> <s_m_entry_id>
5719

> <s_m_entry_name>
dock_pv.114

> <s_m_Source_Path>
/home/csk/Desktop/cluster/DUD-E-result/igf1r

> <s_m_Source_File>
dock_pv.maegz

> <i_m_Source_File_Index>
114

> <chembl_id>
CHEMBL3652856

> <chembl_pref_name>
None

> <i_lp_mmshare_version>
53161

> <r_lp_tautomer_probability>
0.999999987636

> <s_lp_Force_Field>
OPLS_2005

> <r_lp_Energy>
17.5271

> <b_lp_Chiralities_Consistent>
1

> <s_lp_Variant>
CHEMBL1957_lig2080-1

> <s_i_glide_gridfile>
glide-grid_2oj9

> <i_i_glide_lignum>
3045

> <i_i_glide_rotatable_bonds>
4

> <r_i_docking_score>
-7.5492103212335

> <r_i_glide_ligand_efficiency>
-0.235912822538547

> <r_i_glide_ligand_efficiency_sa>
-0.748976524475702

> <r_i_glide_ligand_efficiency_ln>
-1.69047397462547

> <r_i_glide_gscore>
-7.5492103212335

> <r_i_glide_lipo>
-4.23349562149565

> <r_i_glide_hbond>
0

> <r_i_glide_metal>
0

> <r_i_glide_rewards>
-1.60887389690389

> <r_i_glide_evdw>
-35.8556518554688

> <r_i_glide_ecoul>
-2.45089292526245

> <r_i_glide_erotb>
0.453575728728846

> <r_i_glide_esite>
0

> <r_i_glide_emodel>
-49.3737008062

> <r_i_glide_energy>
-38.3065447807312

> <r_i_glide_einternal>
1.97132754325867

> <i_i_glide_confnum>
21

> <i_i_glide_posenum>
244

> <r_i_glide_eff_state_penalty>
0

> <s_user_duplicate_titles>
CHEMBL1957_lig2080

> <i_f3d_flags>
0

> <s_m_subgroup_title>
dock_pv

> <s_m_subgroupid>
dock_pv

> <b_m_subgroup_collapsed>
1

$$$$
CHEMBL1957_lig2002
                    3D
 Schrodinger Suite 2021-1.
 61 66  0  0  1  0            999 V2000
    7.6820   -6.8534   21.1364 O   0  0  0  0  0  0
    7.1430   -6.6753   22.2294 C   0  0  0  0  0  0
    5.6812   -7.1962   22.4347 C   0  0  2  0  0  0
    5.6187   -8.7297   22.4516 C   0  0  0  0  0  0
    5.2382   -9.1225   21.0330 C   0  0  0  0  0  0
    4.6585   -7.8408   20.4213 C   0  0  0  0  0  0
    4.7656   -6.7312   21.3769 N   0  0  0  0  0  0
    4.4381   -5.3903   21.0947 C   0  0  0  0  0  0
    5.1051   -4.4450   21.8078 N   0  0  0  0  0  0
    5.1432   -3.1925   21.3049 C   0  0  0  0  0  0
    6.0926   -2.2997   21.7979 N   0  0  0  0  0  0
    6.2344   -1.9117   23.0944 C   0  0  0  0  0  0
    5.2413   -1.5494   23.9994 C   0  0  0  0  0  0
    5.8542   -0.8551   25.0293 C   0  0  0  0  0  0
    7.1829   -1.0131   24.7330 N   0  0  0  0  0  0
    7.4165   -1.6546   23.5842 N   0  0  0  0  0  0
    5.3386   -0.1107   26.2498 C   0  0  0  0  0  0
    4.4381    1.0854   26.2186 C   0  0  0  0  0  0
    3.8917   -0.2687   26.6425 C   0  0  0  0  0  0
    4.3993   -2.8242   20.1799 C   0  0  0  0  0  0
    4.2188   -1.6708   19.3701 C   0  0  0  0  0  0
    3.4521   -2.0816   18.2955 C   0  0  0  0  0  0
    3.0647   -3.4045   18.4738 C   0  0  0  0  0  0
    3.6382   -3.8741   19.6256 N   0  0  0  0  0  0
    3.6056   -5.1512   20.0483 N   0  0  0  0  0  0
    7.7704   -6.0080   23.2341 N   0  0  0  0  0  0
    9.0532   -5.3216   22.9643 C   0  0  0  0  0  0
   10.2287   -5.6494   23.9128 C   0  0  0  0  0  0
   10.4370   -7.1418   24.2381 C   0  0  0  0  0  0
    9.6039   -7.6605   25.3124 N   0  0  1  0  0  0
    8.1675   -7.6949   25.0799 C   0  0  0  0  0  0
    7.5282   -6.3605   24.6378 C   0  0  0  0  0  0
    5.2604   -6.7862   23.3475 H   0  0  0  0  0  0
    6.5459   -9.2104   22.7668 H   0  0  0  0  0  0
    4.8567   -9.0519   23.1644 H   0  0  0  0  0  0
    6.1247   -9.4509   20.4918 H   0  0  0  0  0  0
    4.5187   -9.9424   21.0291 H   0  0  0  0  0  0
    5.2287   -7.5805   19.5272 H   0  0  0  0  0  0
    3.6382   -7.9768   20.0706 H   0  0  0  0  0  0
    6.3233   -1.6096   21.1009 H   0  0  0  0  0  0
    4.1859   -1.6602   23.8427 H   0  0  0  0  0  0
    7.9487   -0.6085   25.2593 H   0  0  0  0  0  0
    6.0511   -0.0526   27.0541 H   0  0  0  0  0  0
    4.5169    1.8357   27.0071 H   0  0  0  0  0  0
    4.1889    1.5413   25.2606 H   0  0  0  0  0  0
    3.2361   -0.8376   25.9825 H   0  0  0  0  0  0
    3.6546   -0.4414   27.6939 H   0  0  0  0  0  0
    4.6626   -0.6912   19.4821 H   0  0  0  0  0  0
    3.2249   -1.4702   17.4387 H   0  0  0  0  0  0
    2.4829   -4.0512   17.8377 H   0  0  0  0  0  0
    9.3735   -5.4126   21.9252 H   0  0  0  0  0  0
    8.8518   -4.2618   23.1300 H   0  0  0  0  0  0
   10.0382   -5.1119   24.8430 H   0  0  0  0  0  0
   11.1436   -5.2302   23.4935 H   0  0  0  0  0  0
   11.4875   -7.3179   24.4748 H   0  0  0  0  0  0
   10.2205   -7.7368   23.3493 H   0  0  0  0  0  0
    9.9418   -8.5714   25.5929 H   0  0  0  0  0  0
    7.9882   -8.4527   24.3182 H   0  0  0  0  0  0
    7.6525   -8.0836   25.9594 H   0  0  0  0  0  0
    6.4665   -6.4652   24.8302 H   0  0  0  0  0  0
    7.7977   -5.5303   25.2905 H   0  0  0  0  0  0
  1  2  2  0  0  0
  2  3  1  0  0  0
  2 26  1  0  0  0
  3  4  1  0  0  0
  3  7  1  0  0  0
  3 33  1  0  0  0
  4  5  1  0  0  0
  4 34  1  0  0  0
  4 35  1  0  0  0
  5  6  1  0  0  0
  5 36  1  0  0  0
  5 37  1  0  0  0
  6  7  1  0  0  0
  6 38  1  0  0  0
  6 39  1  0  0  0
  7  8  1  0  0  0
  8  9  1  0  0  0
  8 25  2  0  0  0
  9 10  2  0  0  0
 10 11  1  0  0  0
 10 20  1  0  0  0
 11 12  1  0  0  0
 11 40  1  0  0  0
 12 13  1  0  0  0
 12 16  2  0  0  0
 13 14  2  0  0  0
 13 41  1  0  0  0
 14 15  1  0  0  0
 14 17  1  0  0  0
 15 16  1  0  0  0
 15 42  1  0  0  0
 17 18  1  0  0  0
 17 19  1  0  0  0
 17 43  1  0  0  0
 18 19  1  0  0  0
 18 44  1  0  0  0
 18 45  1  0  0  0
 19 46  1  0  0  0
 19 47  1  0  0  0
 20 21  2  0  0  0
 20 24  1  0  0  0
 21 22  1  0  0  0
 21 48  1  0  0  0
 22 23  2  0  0  0
 22 49  1  0  0  0
 23 24  1  0  0  0
 23 50  1  0  0  0
 24 25  1  0  0  0
 26 27  1  0  0  0
 26 32  1  0  0  0
 27 28  1  0  0  0
 27 51  1  0  0  0
 27 52  1  0  0  0
 28 29  1  0  0  0
 28 53  1  0  0  0
 28 54  1  0  0  0
 29 30  1  0  0  0
 29 55  1  0  0  0
 29 56  1  0  0  0
 30 31  1  0  0  0
 30 57  1  0  0  0
 31 32  1  0  0  0
 31 58  1  0  0  0
 31 59  1  0  0  0
 32 60  1  0  0  0
 32 61  1  0  0  0
M  END
> <s_m_entry_id>
5720

> <s_m_entry_name>
dock_pv.115

> <s_m_Source_Path>
/home/csk/Desktop/cluster/DUD-E-result/igf1r

> <s_m_Source_File>
dock_pv.maegz

> <i_m_Source_File_Index>
115

> <chembl_id>
CHEMBL3655729

> <chembl_pref_name>
None

> <i_lp_mmshare_version>
53161

> <r_lp_tautomer_probability>
0.842599999161192

> <s_lp_Force_Field>
OPLS_2005

> <r_lp_Energy>
74.779857

> <b_lp_Chiralities_Consistent>
1

> <s_lp_Variant>
CHEMBL1957_lig2002-1

> <s_i_glide_gridfile>
glide-grid_2oj9

> <i_i_glide_lignum>
2913

> <i_i_glide_rotatable_bonds>
6

> <r_i_docking_score>
-7.54285944062516

> <r_i_glide_ligand_efficiency>
-0.235714357519536

> <r_i_glide_ligand_efficiency_sa>
-0.748346437316517

> <r_i_glide_ligand_efficiency_ln>
-1.68905183933879

> <r_i_glide_gscore>
-7.54285944062516

> <r_i_glide_lipo>
-3.75552750973982

> <r_i_glide_hbond>
-0.25004758687599

> <r_i_glide_metal>
0

> <r_i_glide_rewards>
-1.45024848165739

> <r_i_glide_evdw>
-43.0955123901367

> <r_i_glide_ecoul>
-3.52103185653687

> <r_i_glide_erotb>
0.630265949172371

> <r_i_glide_esite>
-0.0343714135369692

> <r_i_glide_emodel>
-40.1975532915838

> <r_i_glide_energy>
-46.6165442466736

> <r_i_glide_einternal>
13.1622123718262

> <i_i_glide_confnum>
51

> <i_i_glide_posenum>
293

> <r_i_glide_eff_state_penalty>
0

> <s_user_duplicate_titles>
CHEMBL1957_lig2002

> <i_f3d_flags>
0

> <s_m_subgroup_title>
dock_pv

> <s_m_subgroupid>
dock_pv

> <b_m_subgroup_collapsed>
1

$$$$
CHEMBL1957_lig953
                    3D
 Schrodinger Suite 2021-1.
 37 39  0  0  1  0            999 V2000
    5.2382   -8.5585   21.1530 C   0  0  0  0  0  0
    6.0362   -8.8637   22.2593 C   0  0  0  0  0  0
    6.3391   -7.9480   23.2155 N   0  0  0  0  0  0
    5.7741   -6.7219   23.0658 C   0  0  0  0  0  0
    4.9670   -6.3512   22.0491 N   0  0  0  0  0  0
    4.7365   -7.2538   21.0636 C   0  0  0  0  0  0
    4.0380   -6.8536   19.9133 N   0  0  0  0  0  0
    3.6312   -5.5878   19.5471 C   0  0  0  0  0  0
    3.6634   -4.3585   20.2366 C   0  0  0  0  0  0
    3.2380   -3.3808   19.3619 C   0  0  0  0  0  0
    2.9522   -4.0812   18.2232 N   0  0  0  0  0  0
    3.1699   -5.3989   18.3318 N   0  0  0  0  0  0
    6.0381   -5.6965   23.9700 N   0  0  0  0  0  0
    4.8846   -9.8893   19.8381 Br  0  0  0  0  0  0
    3.0498   -1.8918   19.4931 C   0  0  0  0  0  0
    7.3941   -5.4798   24.4597 C   0  0  0  0  0  0
    8.2451   -4.6013   23.5189 C   0  0  0  0  0  0
    7.5211   -3.3504   23.0625 C   0  0  0  0  0  0
    6.9309   -3.4196   21.8407 O   0  0  0  0  0  0
    6.2869   -2.2459   21.6351 C   0  0  0  0  0  0
    6.4380   -1.4212   22.7346 C   0  0  0  0  0  0
    7.2437   -2.1189   23.6379 C   0  0  0  0  0  0
    6.4566   -9.8510   22.3854 H   0  0  0  0  0  0
    3.9821   -7.5935   19.2270 H   0  0  0  0  0  0
    4.0381   -4.1779   21.2305 H   0  0  0  0  0  0
    2.5905   -3.6657   17.3716 H   0  0  0  0  0  0
    5.5508   -4.8436   23.7432 H   0  0  0  0  0  0
    3.7200   -1.4596   20.2332 H   0  0  0  0  0  0
    3.2346   -1.3687   18.5550 H   0  0  0  0  0  0
    2.0381   -1.6542   19.8204 H   0  0  0  0  0  0
    7.9095   -6.4229   24.6520 H   0  0  0  0  0  0
    7.3548   -5.0108   25.4380 H   0  0  0  0  0  0
    8.6137   -5.2029   22.6870 H   0  0  0  0  0  0
    9.1743   -4.3525   24.0316 H   0  0  0  0  0  0
    5.7947   -2.1453   20.6801 H   0  0  0  0  0  0
    6.0382   -0.4262   22.8568 H   0  0  0  0  0  0
    7.5775   -1.7776   24.6068 H   0  0  0  0  0  0
  1  6  1  0  0  0
  1  2  2  0  0  0
  1 14  1  0  0  0
  2  3  1  0  0  0
  2 23  1  0  0  0
  3  4  2  0  0  0
  4 13  1  0  0  0
  4  5  1  0  0  0
  5  6  2  0  0  0
  6  7  1  0  0  0
  7  8  1  0  0  0
  7 24  1  0  0  0
  8 12  2  0  0  0
  8  9  1  0  0  0
  9 10  2  0  0  0
  9 25  1  0  0  0
 10 11  1  0  0  0
 10 15  1  0  0  0
 11 12  1  0  0  0
 11 26  1  0  0  0
 13 16  1  0  0  0
 13 27  1  0  0  0
 15 28  1  0  0  0
 15 29  1  0  0  0
 15 30  1  0  0  0
 16 17  1  0  0  0
 16 31  1  0  0  0
 16 32  1  0  0  0
 17 18  1  0  0  0
 17 33  1  0  0  0
 17 34  1  0  0  0
 18 19  1  0  0  0
 18 22  2  0  0  0
 19 20  1  0  0  0
 20 21  2  0  0  0
 20 35  1  0  0  0
 21 22  1  0  0  0
 21 36  1  0  0  0
 22 37  1  0  0  0
M  END
> <s_m_entry_id>
5721

> <s_m_entry_name>
dock_pv.116

> <s_m_Source_Path>
/home/csk/Desktop/cluster/DUD-E-result/igf1r

> <s_m_Source_File>
dock_pv.maegz

> <i_m_Source_File_Index>
116

> <chembl_id>
CHEMBL2088103

> <chembl_pref_name>
None

> <i_lp_mmshare_version>
53161

> <r_lp_tautomer_probability>
0.842599732729633

> <s_lp_Force_Field>
OPLS_2005

> <r_lp_Energy>
-1.418689

> <b_lp_Chiralities_Consistent>
1

> <s_lp_Variant>
CHEMBL1957_lig953-1

> <s_i_glide_gridfile>
glide-grid_2oj9

> <i_i_glide_lignum>
1196

> <i_i_glide_rotatable_bonds>
6

> <r_i_docking_score>
-7.54063232179773

> <r_i_glide_ligand_efficiency>
-0.34275601462717

> <r_i_glide_ligand_efficiency_sa>
-0.96041583281446

> <r_i_glide_ligand_efficiency_ln>
-1.84320559069429

> <r_i_glide_gscore>
-7.54063232179773

> <r_i_glide_lipo>
-2.84550779733499

> <r_i_glide_hbond>
-0.591162616543341

> <r_i_glide_metal>
0

> <r_i_glide_rewards>
-2.09196883646846

> <r_i_glide_evdw>
-37.1299934387207

> <r_i_glide_ecoul>
-4.4344539642334

> <r_i_glide_erotb>
0.509674695120106

> <r_i_glide_esite>
0

> <r_i_glide_emodel>
-56.3340481111291

> <r_i_glide_energy>
-41.5644474029541

> <r_i_glide_einternal>
6.56667375564575

> <i_i_glide_confnum>
5

> <i_i_glide_posenum>
273

> <r_i_glide_eff_state_penalty>
0

> <s_user_duplicate_titles>
CHEMBL1957_lig953

> <i_f3d_flags>
0

> <s_m_subgroup_title>
dock_pv

> <s_m_subgroupid>
dock_pv

> <b_m_subgroup_collapsed>
1

$$$$
CHEMBL1957_lig3405
                    3D
 Schrodinger Suite 2021-1.
 26 28  0  0  1  0            999 V2000
    6.8941   -9.8650   23.1854 Cl  0  0  0  0  0  0
    4.8432   -4.6664   21.4246 O   0  0  0  0  0  0
    6.2845   -0.9754   23.0127 O   0  0  0  0  0  0
    9.4482   -2.8540   25.4380 O   0  0  0  0  0  0
    7.8089   -2.0543   24.1836 N   0  0  0  0  0  0
    4.6491   -2.4541   21.3236 N   0  0  0  0  0  0
    9.6380   -6.3191   25.0371 N   0  0  0  0  0  0
    6.9531   -4.5576   23.2660 C   0  0  0  0  0  0
    6.3574   -3.3933   22.8145 C   0  0  0  0  0  0
    6.4285   -5.8850   22.7844 C   0  0  0  0  0  0
    8.0972   -4.4210   24.2016 C   0  0  0  0  0  0
    5.3931   -5.8526   21.8380 C   0  0  0  0  0  0
    5.2626   -3.4290   21.8379 C   0  0  0  0  0  0
    6.7833   -2.0619   23.3089 C   0  0  0  0  0  0
    8.4379   -3.1785   24.5903 C   0  0  0  0  0  0
    6.8622   -7.1567   23.2041 C   0  0  0  0  0  0
    4.8612   -7.0091   21.2713 C   0  0  0  0  0  0
    6.3324   -8.3242   22.6493 C   0  0  0  0  0  0
    8.9308   -5.4915   24.6430 C   0  0  0  0  0  0
    5.3482   -8.2503   21.6668 C   0  0  0  0  0  0
    9.6378   -1.9124   25.3674 H   0  0  0  0  0  0
    8.1060   -1.1341   24.4762 H   0  0  0  0  0  0
    5.0403   -1.5933   21.6935 H   0  0  0  0  0  0
    7.5981   -7.2988   23.9713 H   0  0  0  0  0  0
    4.0782   -6.9412   20.5306 H   0  0  0  0  0  0
    4.9478   -9.1535   21.2286 H   0  0  0  0  0  0
  1 18  1  0  0  0
  2 12  1  0  0  0
  2 13  1  0  0  0
  3 14  2  0  0  0
  4 15  1  0  0  0
  4 21  1  0  0  0
  5 14  1  0  0  0
  5 15  1  0  0  0
  5 22  1  0  0  0
  6 13  2  0  0  0
  6 23  1  0  0  0
  7 19  3  0  0  0
  8  9  2  0  0  0
  8 10  1  0  0  0
  8 11  1  0  0  0
  9 13  1  0  0  0
  9 14  1  0  0  0
 10 12  1  0  0  0
 10 16  2  0  0  0
 11 15  2  0  0  0
 11 19  1  0  0  0
 12 17  2  0  0  0
 16 18  1  0  0  0
 16 24  1  0  0  0
 17 20  1  0  0  0
 17 25  1  0  0  0
 18 20  2  0  0  0
 20 26  1  0  0  0
M  END
> <s_m_entry_id>
5722

> <s_m_entry_name>
dock_pv.117

> <s_m_Source_Path>
/home/csk/Desktop/cluster/DUD-E-result/igf1r

> <s_m_Source_File>
dock_pv.maegz

> <i_m_Source_File_Index>
117

> <chembl_id>
CHEMBL1973711

> <chembl_pref_name>
None

> <i_lp_mmshare_version>
53161

> <r_lp_tautomer_probability>
1

> <s_lp_Force_Field>
OPLS_2005

> <r_lp_Energy>
41.546453

> <b_lp_Chiralities_Consistent>
1

> <s_lp_Variant>
CHEMBL1957_lig3405-1

> <s_i_glide_gridfile>
glide-grid_2oj9

> <i_i_glide_lignum>
4794

> <i_i_glide_rotatable_bonds>
1

> <r_i_docking_score>
-7.53482290580344

> <r_i_glide_ligand_efficiency>
-0.376741145290172

> <r_i_glide_ligand_efficiency_sa>
-1.02263280065061

> <r_i_glide_ligand_efficiency_ln>
-1.88571765823079

> <r_i_glide_gscore>
-7.53482290580344

> <r_i_glide_lipo>
-2.13497976582698

> <r_i_glide_hbond>
-0.583819206822961

> <r_i_glide_metal>
0

> <r_i_glide_rewards>
-2.38683142347511

> <r_i_glide_evdw>
-32.5607719421387

> <r_i_glide_ecoul>
-5.33487749099731

> <r_i_glide_erotb>
0

> <r_i_glide_esite>
-0.000922288921849343

> <r_i_glide_emodel>
-54.5478965552067

> <r_i_glide_energy>
-37.895649433136

> <r_i_glide_einternal>
0.255539834499359

> <i_i_glide_confnum>
1

> <i_i_glide_posenum>
331

> <r_i_glide_eff_state_penalty>
0

> <s_user_duplicate_titles>
CHEMBL1957_lig3405

> <i_f3d_flags>
0

> <s_m_subgroup_title>
dock_pv

> <s_m_subgroupid>
dock_pv

> <b_m_subgroup_collapsed>
1

$$$$
CHEMBL1957_lig2705
                    3D
 Schrodinger Suite 2021-1.
 40 43  0  0  1  0            999 V2000
    8.3666   -4.5456   24.2134 N   0  0  0  0  0  0
    7.4670   -5.0612   23.3400 C   0  0  0  0  0  0
    6.6239   -4.3254   22.5758 N   0  0  0  0  0  0
    6.6740   -2.9757   22.7005 C   0  0  0  0  0  0
    7.5620   -2.3605   23.5853 C   0  0  0  0  0  0
    8.4106   -3.1940   24.3163 C   0  0  0  0  0  0
    5.8713   -2.1641   21.8857 N   0  0  0  0  0  0
    4.9422   -2.4412   20.8596 C   0  0  0  0  0  0
    4.7044   -1.5022   19.8277 C   0  0  0  0  0  0
    3.8422   -1.8445   18.7718 C   0  0  0  0  0  0
    3.2129   -3.0840   18.7363 C   0  0  0  0  0  0
    3.4102   -3.9897   19.7712 C   0  0  0  0  0  0
    4.2640   -3.6643   20.8208 C   0  0  0  0  0  0
    5.3578   -0.1433   19.8113 C   0  0  0  0  0  0
    5.6352    0.3460   18.5691 O   0  0  0  0  0  0
    5.6408    0.4532   20.8478 O   0  0  0  0  0  0
    7.4330   -6.4583   23.2833 N   0  0  0  0  0  0
    6.7219   -7.4058   22.5261 C   0  0  0  0  0  0
    6.9055   -8.7385   22.9080 C   0  0  0  0  0  0
    5.1979   -8.0615   20.7273 C   0  0  0  0  0  0
    5.8914   -7.0827   21.4418 C   0  0  0  0  0  0
    5.3808   -9.4026   21.0892 C   0  0  0  0  0  0
    6.2365   -9.7170   22.1697 C   0  0  0  0  0  0
    6.2153  -11.0939   22.2604 N   0  0  0  0  0  0
    5.4090  -11.6506   21.3419 N   0  0  0  0  0  0
    4.9096  -10.6695   20.6393 C   0  0  0  0  0  0
    7.6208   -1.2870   23.6877 H   0  0  0  0  0  0
    9.1428   -2.7807   24.9951 H   0  0  0  0  0  0
    6.1202   -1.1861   21.9257 H   0  0  0  0  0  0
    3.6512   -1.1561   17.9594 H   0  0  0  0  0  0
    2.5535   -3.3318   17.9160 H   0  0  0  0  0  0
    2.9104   -4.9479   19.7590 H   0  0  0  0  0  0
    4.3965   -4.3869   21.6072 H   0  0  0  0  0  0
    6.0621    1.2198   18.6382 H   0  0  0  0  0  0
    8.0683   -6.8635   23.9528 H   0  0  0  0  0  0
    7.5446   -9.0045   23.7370 H   0  0  0  0  0  0
    4.5550   -7.7927   19.9014 H   0  0  0  0  0  0
    5.7770   -6.0627   21.1184 H   0  0  0  0  0  0
    6.6901  -11.6743   22.9357 H   0  0  0  0  0  0
    4.2304  -10.8764   19.8283 H   0  0  0  0  0  0
  1  2  2  0  0  0
  1  6  1  0  0  0
  2 17  1  0  0  0
  2  3  1  0  0  0
  3  4  2  0  0  0
  4  7  1  0  0  0
  4  5  1  0  0  0
  5  6  2  0  0  0
  5 27  1  0  0  0
  6 28  1  0  0  0
  7  8  1  0  0  0
  7 29  1  0  0  0
  8 13  1  0  0  0
  8  9  2  0  0  0
  9 14  1  0  0  0
  9 10  1  0  0  0
 10 11  2  0  0  0
 10 30  1  0  0  0
 11 12  1  0  0  0
 11 31  1  0  0  0
 12 13  2  0  0  0
 12 32  1  0  0  0
 13 33  1  0  0  0
 14 15  1  0  0  0
 14 16  2  0  0  0
 15 34  1  0  0  0
 17 18  1  0  0  0
 17 35  1  0  0  0
 18 19  2  0  0  0
 18 21  1  0  0  0
 19 23  1  0  0  0
 19 36  1  0  0  0
 20 22  1  0  0  0
 20 21  2  0  0  0
 20 37  1  0  0  0
 21 38  1  0  0  0
 22 23  2  0  0  0
 22 26  1  0  0  0
 23 24  1  0  0  0
 24 25  1  0  0  0
 24 39  1  0  0  0
 25 26  2  0  0  0
 26 40  1  0  0  0
M  END
> <s_m_entry_id>
5723

> <s_m_entry_name>
dock_pv.118

> <s_m_Source_Path>
/home/csk/Desktop/cluster/DUD-E-result/igf1r

> <s_m_Source_File>
dock_pv.maegz

> <i_m_Source_File_Index>
118

> <chembl_id>
CHEMBL244378

> <chembl_pref_name>
None

> <i_lp_mmshare_version>
53161

> <r_lp_tautomer_probability>
0.999999624730965

> <s_lp_Force_Field>
OPLS_2005

> <r_lp_Energy>
19.64027

> <b_lp_Chiralities_Consistent>
1

> <s_lp_Variant>
CHEMBL1957_lig2705-1

> <s_i_glide_gridfile>
glide-grid_2oj9

> <i_i_glide_lignum>
3744

> <i_i_glide_rotatable_bonds>
6

> <r_i_docking_score>
-7.53479485935115

> <r_i_glide_ligand_efficiency>
-0.289799802282736

> <r_i_glide_ligand_efficiency_sa>
-0.858530773955448

> <r_i_glide_ligand_efficiency_ln>
-1.76952184904013

> <r_i_glide_gscore>
-7.53479485935115

> <r_i_glide_lipo>
-3.29621756634926

> <r_i_glide_hbond>
-0.116744166316564

> <r_i_glide_metal>
0

> <r_i_glide_rewards>
-1.74748917114583

> <r_i_glide_evdw>
-41.808708190918

> <r_i_glide_ecoul>
-7.14755964279175

> <r_i_glide_erotb>
0.792431043310425

> <r_i_glide_esite>
-0.0042056428852602

> <r_i_glide_emodel>
-68.7711792004228

> <r_i_glide_energy>
-48.9562678337097

> <r_i_glide_einternal>
6.03986740112305

> <i_i_glide_confnum>
36

> <i_i_glide_posenum>
111

> <r_i_glide_eff_state_penalty>
0

> <s_user_duplicate_titles>
CHEMBL1957_lig2705

> <i_f3d_flags>
0

> <s_m_subgroup_title>
dock_pv

> <s_m_subgroupid>
dock_pv

> <b_m_subgroup_collapsed>
1

$$$$
CHEMBL1957_lig3140
                    3D
 Schrodinger Suite 2021-1.
 38 40  0  0  1  0            999 V2000
    7.2381   -1.5103   23.8375 N   0  0  0  0  0  0
    8.4361   -3.4279   24.6378 N   0  0  0  0  0  0
    6.1567   -5.6503   21.8587 N   0  0  0  0  0  0
    7.7430   -5.5204   23.6315 N   0  0  0  0  0  0
    6.7327   -3.4765   22.8385 C   0  0  0  0  0  0
    5.9896   -2.4136   22.1607 C   0  0  0  0  0  0
    7.5456   -2.8430   23.8323 C   0  0  0  0  0  0
    6.8896   -4.8851   22.7821 C   0  0  0  0  0  0
    5.0130   -2.4364   21.0146 C   0  0  0  0  0  0
    6.3234   -1.2540   22.8509 C   0  0  0  0  0  0
    5.9550   -7.1052   21.8975 C   0  0  0  0  0  0
    8.4745   -4.7709   24.4853 C   0  0  0  0  0  0
    4.1343   -3.4974   20.7760 C   0  0  0  0  0  0
    4.9967   -1.3432   20.1338 C   0  0  0  0  0  0
    3.2683   -3.4780   19.6851 C   0  0  0  0  0  0
    4.1190   -1.3112   19.0505 C   0  0  0  0  0  0
    7.2888   -7.8874   21.8073 C   0  0  0  0  0  0
    5.0744   -7.4953   20.6911 C   0  0  0  0  0  0
    5.2088   -7.5184   23.1885 C   0  0  0  0  0  0
    3.2584   -2.3836   18.8273 C   0  0  0  0  0  0
    7.6623   -0.7973   24.4158 H   0  0  0  0  0  0
    5.5825   -5.1331   21.2117 H   0  0  0  0  0  0
    5.9942   -0.2372   22.6945 H   0  0  0  0  0  0
    9.1509   -5.3078   25.1348 H   0  0  0  0  0  0
    4.0869   -4.3411   21.4388 H   0  0  0  0  0  0
    5.6771   -0.5155   20.2729 H   0  0  0  0  0  0
    2.6096   -4.3135   19.5043 H   0  0  0  0  0  0
    4.1226   -0.4684   18.3745 H   0  0  0  0  0  0
    7.1229   -8.9344   21.5516 H   0  0  0  0  0  0
    7.8398   -7.8927   22.7470 H   0  0  0  0  0  0
    7.9489   -7.4620   21.0498 H   0  0  0  0  0  0
    4.1136   -6.9795   20.7084 H   0  0  0  0  0  0
    5.5542   -7.2539   19.7423 H   0  0  0  0  0  0
    4.8609   -8.5652   20.6763 H   0  0  0  0  0  0
    4.2394   -7.0242   23.2670 H   0  0  0  0  0  0
    5.0292   -8.5937   23.2200 H   0  0  0  0  0  0
    5.7694   -7.2684   24.0896 H   0  0  0  0  0  0
    2.5910   -2.3750   17.9765 H   0  0  0  0  0  0
  1  7  1  0  0  0
  1 10  1  0  0  0
  1 21  1  0  0  0
  2  7  1  0  0  0
  2 12  2  0  0  0
  3  8  1  0  0  0
  3 11  1  0  0  0
  3 22  1  0  0  0
  4  8  2  0  0  0
  4 12  1  0  0  0
  5  6  1  0  0  0
  5  7  2  0  0  0
  5  8  1  0  0  0
  6  9  1  0  0  0
  6 10  2  0  0  0
  9 13  2  0  0  0
  9 14  1  0  0  0
 10 23  1  0  0  0
 11 17  1  0  0  0
 11 18  1  0  0  0
 11 19  1  0  0  0
 12 24  1  0  0  0
 13 15  1  0  0  0
 13 25  1  0  0  0
 14 16  2  0  0  0
 14 26  1  0  0  0
 15 20  2  0  0  0
 15 27  1  0  0  0
 16 20  1  0  0  0
 16 28  1  0  0  0
 17 29  1  0  0  0
 17 30  1  0  0  0
 17 31  1  0  0  0
 18 32  1  0  0  0
 18 33  1  0  0  0
 18 34  1  0  0  0
 19 35  1  0  0  0
 19 36  1  0  0  0
 19 37  1  0  0  0
 20 38  1  0  0  0
M  END
> <s_m_entry_id>
5724

> <s_m_entry_name>
dock_pv.119

> <s_m_Source_Path>
/home/csk/Desktop/cluster/DUD-E-result/igf1r

> <s_m_Source_File>
dock_pv.maegz

> <i_m_Source_File_Index>
119

> <chembl_id>
CHEMBL1995211

> <chembl_pref_name>
None

> <i_lp_mmshare_version>
53161

> <r_lp_tautomer_probability>
1

> <s_lp_Force_Field>
OPLS_2005

> <r_lp_Energy>
11.385159

> <b_lp_Chiralities_Consistent>
1

> <s_lp_Variant>
CHEMBL1957_lig3140-1

> <s_i_glide_gridfile>
glide-grid_2oj9

> <i_i_glide_lignum>
4364

> <i_i_glide_rotatable_bonds>
3

> <r_i_docking_score>
-7.51884222429822

> <r_i_glide_ligand_efficiency>
-0.375942111214911

> <r_i_glide_ligand_efficiency_sa>
-1.02046388848262

> <r_i_glide_ligand_efficiency_ln>
-1.88171822072819

> <r_i_glide_gscore>
-7.51884222429822

> <r_i_glide_lipo>
-3.29384476123303

> <r_i_glide_hbond>
-0.148938439236217

> <r_i_glide_metal>
0

> <r_i_glide_rewards>
-2.82280796949453

> <r_i_glide_evdw>
-34.5533142089844

> <r_i_glide_ecoul>
-0.18520513176918

> <r_i_glide_erotb>
0.502195425880158

> <r_i_glide_esite>
0

> <r_i_glide_emodel>
-47.6706766893917

> <r_i_glide_energy>
-34.7385193407536

> <r_i_glide_einternal>
3.01876425743103

> <i_i_glide_confnum>
4

> <i_i_glide_posenum>
297

> <r_i_glide_eff_state_penalty>
0

> <s_user_duplicate_titles>
CHEMBL1957_lig3140

> <i_f3d_flags>
0

> <s_m_subgroup_title>
dock_pv

> <s_m_subgroupid>
dock_pv

> <b_m_subgroup_collapsed>
1

$$$$
CHEMBL1957_lig2830
                    3D
 Schrodinger Suite 2021-1.
 41 44  0  0  1  0            999 V2000
   11.8253  -11.8179   24.8193 Cl  0  0  0  0  0  0
    4.5497   -6.4286   23.4356 F   0  0  0  0  0  0
    7.7640   -3.6539   21.2518 F   0  0  0  0  0  0
    5.1115   -4.1099   21.9559 O   0  0  0  0  0  0
    3.2375   -2.4565   18.0252 N   0  0  0  0  0  0
    2.9815   -4.8237   18.3597 N   0  0  0  0  0  0
    9.1512   -7.7986   23.1891 N   0  0  0  0  0  0
    7.9648   -9.8098   23.7767 N   0  0  0  0  0  0
    9.1761  -11.7341   24.5646 N   0  0  0  0  0  0
    6.8433  -11.7652   24.4002 N   0  0  0  0  0  0
    4.1011   -3.2919   19.9379 C   0  0  0  0  0  0
    4.3565   -4.3618   20.8269 C   0  0  0  0  0  0
    6.1029   -5.0051   22.3068 C   0  0  0  0  0  0
    3.3906   -3.6141   18.7423 C   0  0  0  0  0  0
    4.4752   -1.9032   19.8414 C   0  0  0  0  0  0
    5.8094   -6.1547   23.0502 C   0  0  0  0  0  0
    7.4324   -4.7738   21.9308 C   0  0  0  0  0  0
    8.1217   -6.8738   22.9398 C   0  0  0  0  0  0
    6.8059   -7.0674   23.3724 C   0  0  0  0  0  0
    8.4292   -5.7064   22.2363 C   0  0  0  0  0  0
    3.8701   -5.6343   20.4790 C   0  0  0  0  0  0
    3.8718   -1.4357   18.6867 C   0  0  0  0  0  0
    9.1353   -9.1270   23.6449 C   0  0  0  0  0  0
    3.2371   -5.8133   19.2486 C   0  0  0  0  0  0
   10.3556   -9.7236   23.9548 C   0  0  0  0  0  0
    8.0386  -11.0786   24.2363 C   0  0  0  0  0  0
   10.3364  -11.0423   24.4169 C   0  0  0  0  0  0
    5.4185   -1.1506   20.7503 C   0  0  0  0  0  0
    2.7670   -2.3520   17.1348 H   0  0  0  0  0  0
   10.0854   -7.4511   23.0041 H   0  0  0  0  0  0
    6.8765  -12.7128   24.7428 H   0  0  0  0  0  0
    5.9533  -11.2991   24.2364 H   0  0  0  0  0  0
    6.5176   -7.9213   23.9586 H   0  0  0  0  0  0
    9.4416   -5.5168   21.9104 H   0  0  0  0  0  0
    4.0299   -6.4948   21.1097 H   0  0  0  0  0  0
    3.9087   -0.4570   18.2379 H   0  0  0  0  0  0
    2.9275   -6.7974   18.9371 H   0  0  0  0  0  0
   11.2811   -9.1826   23.8432 H   0  0  0  0  0  0
    5.2116   -1.3122   21.8077 H   0  0  0  0  0  0
    5.4036   -0.0757   20.5670 H   0  0  0  0  0  0
    6.4377   -1.4830   20.5809 H   0  0  0  0  0  0
  1 27  1  0  0  0
  2 16  1  0  0  0
  3 17  1  0  0  0
  4 12  1  0  0  0
  4 13  1  0  0  0
  5 14  1  0  0  0
  5 22  1  0  0  0
  5 29  1  0  0  0
  6 14  2  0  0  0
  6 24  1  0  0  0
  7 18  1  0  0  0
  7 23  1  0  0  0
  7 30  1  0  0  0
  8 23  1  0  0  0
  8 26  2  0  0  0
  9 26  1  0  0  0
  9 27  2  0  0  0
 10 26  1  0  0  0
 10 31  1  0  0  0
 10 32  1  0  0  0
 11 12  2  0  0  0
 11 14  1  0  0  0
 11 15  1  0  0  0
 12 21  1  0  0  0
 13 16  2  0  0  0
 13 17  1  0  0  0
 15 22  2  0  0  0
 15 28  1  0  0  0
 16 19  1  0  0  0
 17 20  2  0  0  0
 18 19  2  0  0  0
 18 20  1  0  0  0
 19 33  1  0  0  0
 20 34  1  0  0  0
 21 24  2  0  0  0
 21 35  1  0  0  0
 22 36  1  0  0  0
 23 25  2  0  0  0
 24 37  1  0  0  0
 25 27  1  0  0  0
 25 38  1  0  0  0
 28 39  1  0  0  0
 28 40  1  0  0  0
 28 41  1  0  0  0
M  END
> <s_m_entry_id>
5725

> <s_m_entry_name>
dock_pv.120

> <s_m_Source_Path>
/home/csk/Desktop/cluster/DUD-E-result/igf1r

> <s_m_Source_File>
dock_pv.maegz

> <i_m_Source_File_Index>
120

> <chembl_id>
CHEMBL1971943

> <chembl_pref_name>
None

> <i_lp_mmshare_version>
53161

> <r_lp_tautomer_probability>
0.999999624730965

> <s_lp_Force_Field>
OPLS_2005

> <r_lp_Energy>
9.863981

> <b_lp_Chiralities_Consistent>
1

> <s_lp_Variant>
CHEMBL1957_lig2830-1

> <s_i_glide_gridfile>
glide-grid_2oj9

> <i_i_glide_lignum>
3919

> <i_i_glide_rotatable_bonds>
4

> <r_i_docking_score>
-7.50181472417714

> <r_i_glide_ligand_efficiency>
-0.267921954434898

> <r_i_glide_ligand_efficiency_sa>
-0.813568851256725

> <r_i_glide_ligand_efficiency_ln>
-1.7316391011914

> <r_i_glide_gscore>
-7.50181472417714

> <r_i_glide_lipo>
-2.36749444873226

> <r_i_glide_hbond>
-0.60173136618173

> <r_i_glide_metal>
0

> <r_i_glide_rewards>
-2.25575406488742

> <r_i_glide_evdw>
-30.4643077850342

> <r_i_glide_ecoul>
-7.76672315597534

> <r_i_glide_erotb>
0.483916709149748

> <r_i_glide_esite>
-0.0725276908774729

> <r_i_glide_emodel>
-57.3197259644143

> <r_i_glide_energy>
-38.2310309410095

> <r_i_glide_einternal>
0.927951753139496

> <i_i_glide_confnum>
1

> <i_i_glide_posenum>
53

> <r_i_glide_eff_state_penalty>
0

> <s_user_duplicate_titles>
CHEMBL1957_lig2830

> <i_f3d_flags>
0

> <s_m_subgroup_title>
dock_pv

> <s_m_subgroupid>
dock_pv

> <b_m_subgroup_collapsed>
1

$$$$
CHEMBL1957_lig2918
                    3D
 Schrodinger Suite 2021-1.
 38 41  0  0  1  0            999 V2000
    6.2110   -0.8616   23.5387 O   0  0  0  0  0  0
    8.0409   -2.1442   23.8986 O   0  0  0  0  0  0
    4.8370   -5.2968   21.4560 N   0  0  0  0  0  0
    6.4252   -4.4339   23.0597 C   0  0  0  0  0  0
    5.7488   -5.4762   22.4348 C   0  0  0  0  0  0
    6.1954   -3.1063   22.6451 C   0  0  0  0  0  0
    5.2924   -2.8992   21.5384 C   0  0  0  0  0  0
    6.2045   -6.7977   22.9161 C   0  0  0  0  0  0
    4.5833   -4.0338   21.0331 C   0  0  0  0  0  0
    7.3942   -5.0079   24.0605 C   0  0  0  0  0  0
    7.0206   -6.4861   24.1608 C   0  0  0  0  0  0
    5.9431   -8.0056   22.3694 C   0  0  0  0  0  0
    6.7991   -1.9314   23.3909 C   0  0  0  0  0  0
    5.0808   -1.6541   20.8757 C   0  0  0  0  0  0
    3.6204   -3.8745   20.0023 C   0  0  0  0  0  0
    6.4392   -9.3502   22.8899 C   0  0  0  0  0  0
    5.1671   -8.3178   21.0815 C   0  0  0  0  0  0
    4.1626   -1.5346   19.8357 C   0  0  0  0  0  0
    3.4194   -2.6299   19.4178 C   0  0  0  0  0  0
    6.4910  -10.2443   21.6587 C   0  0  0  0  0  0
    5.2628   -9.8324   20.8808 C   0  0  0  0  0  0
    8.3932   -1.3570   24.3257 H   0  0  0  0  0  0
    8.4187   -4.9114   23.6963 H   0  0  0  0  0  0
    7.3445   -4.5299   25.0373 H   0  0  0  0  0  0
    6.3922   -6.6338   25.0418 H   0  0  0  0  0  0
    7.8956   -7.1243   24.2933 H   0  0  0  0  0  0
    5.6437   -0.7792   21.1643 H   0  0  0  0  0  0
    3.0785   -4.7370   19.6401 H   0  0  0  0  0  0
    7.4042   -9.3082   23.3971 H   0  0  0  0  0  0
    5.7278   -9.7528   23.6113 H   0  0  0  0  0  0
    4.1288   -7.9868   21.0968 H   0  0  0  0  0  0
    5.6378   -7.8026   20.2445 H   0  0  0  0  0  0
    4.0298   -0.5806   19.3467 H   0  0  0  0  0  0
    2.7093   -2.5215   18.6101 H   0  0  0  0  0  0
    7.3952  -10.0545   21.0807 H   0  0  0  0  0  0
    6.4782  -11.3037   21.9168 H   0  0  0  0  0  0
    4.3881  -10.3334   21.2957 H   0  0  0  0  0  0
    5.3245  -10.1092   19.8267 H   0  0  0  0  0  0
  1 13  2  0  0  0
  2 13  1  0  0  0
  2 22  1  0  0  0
  3  5  2  0  0  0
  3  9  1  0  0  0
  4  5  1  0  0  0
  4  6  2  0  0  0
  4 10  1  0  0  0
  5  8  1  0  0  0
  6  7  1  0  0  0
  6 13  1  0  0  0
  7  9  1  0  0  0
  7 14  2  0  0  0
  8 11  1  0  0  0
  8 12  2  0  0  0
  9 15  2  0  0  0
 10 11  1  0  0  0
 10 23  1  0  0  0
 10 24  1  0  0  0
 11 25  1  0  0  0
 11 26  1  0  0  0
 12 16  1  0  0  0
 12 17  1  0  0  0
 14 18  1  0  0  0
 14 27  1  0  0  0
 15 19  1  0  0  0
 15 28  1  0  0  0
 16 20  1  0  0  0
 16 29  1  0  0  0
 16 30  1  0  0  0
 17 21  1  0  0  0
 17 31  1  0  0  0
 17 32  1  0  0  0
 18 19  2  0  0  0
 18 33  1  0  0  0
 19 34  1  0  0  0
 20 21  1  0  0  0
 20 35  1  0  0  0
 20 36  1  0  0  0
 21 37  1  0  0  0
 21 38  1  0  0  0
M  END
> <s_m_entry_id>
5727

> <s_m_entry_name>
dock_pv.122

> <s_m_Source_Path>
/home/csk/Desktop/cluster/DUD-E-result/igf1r

> <s_m_Source_File>
dock_pv.maegz

> <i_m_Source_File_Index>
122

> <chembl_id>
CHEMBL1996831

> <chembl_pref_name>
None

> <i_lp_mmshare_version>
53161

> <r_lp_tautomer_probability>
1

> <s_lp_Force_Field>
OPLS_2005

> <r_lp_Energy>
44.925929

> <b_lp_Chiralities_Consistent>
1

> <s_lp_Variant>
CHEMBL1957_lig2918-1

> <s_i_glide_gridfile>
glide-grid_2oj9

> <i_i_glide_lignum>
4034

> <i_i_glide_rotatable_bonds>
2

> <r_i_docking_score>
-7.48232581233034

> <r_i_glide_ligand_efficiency>
-0.356301229158588

> <r_i_glide_ligand_efficiency_sa>
-0.98300807420234

> <r_i_glide_ligand_efficiency_ln>
-1.84998993763575

> <r_i_glide_gscore>
-7.48232581233034

> <r_i_glide_lipo>
-3.2623006469072

> <r_i_glide_hbond>
0

> <r_i_glide_metal>
0

> <r_i_glide_rewards>
-2.04740618309172

> <r_i_glide_evdw>
-35.4449157714844

> <r_i_glide_ecoul>
-4.21061277389526

> <r_i_glide_erotb>
0.231218722327089

> <r_i_glide_esite>
0

> <r_i_glide_emodel>
-55.9706085039044

> <r_i_glide_energy>
-39.6555285453796

> <r_i_glide_einternal>
0.0221979841589928

> <i_i_glide_confnum>
7

> <i_i_glide_posenum>
286

> <r_i_glide_eff_state_penalty>
0

> <s_user_duplicate_titles>
CHEMBL1957_lig2918

> <i_f3d_flags>
0

> <s_m_subgroup_title>
dock_pv

> <s_m_subgroupid>
dock_pv

> <b_m_subgroup_collapsed>
1

$$$$
CHEMBL1957_lig3331
                    3D
 Schrodinger Suite 2021-1.
 44 47  0  0  1  0            999 V2000
    9.2524   -5.2845   25.4372 O   0  0  0  0  0  0
    6.7306  -12.6242   21.6254 O   0  0  0  0  0  0
    5.6380    0.4497   18.1282 O   0  0  0  0  0  0
    4.0380   -6.8672   20.0120 N   0  0  0  0  0  0
    3.6380   -5.5911   20.1251 N   0  0  0  0  0  0
    4.4380   -3.7676   21.4380 N   0  0  0  0  0  0
    5.3167   -6.0549   21.5355 C   0  0  0  0  0  0
    5.0167   -7.2566   20.8958 C   0  0  0  0  0  0
    4.4380   -5.0826   21.0380 C   0  0  0  0  0  0
    6.3585   -5.8078   22.5475 C   0  0  0  0  0  0
    5.5391   -8.6680   21.0450 C   0  0  0  0  0  0
    6.2963   -6.5359   23.7276 C   0  0  0  0  0  0
    7.3950   -4.8980   22.3136 C   0  0  0  0  0  0
    4.5483   -2.6304   20.6397 C   0  0  0  0  0  0
    6.6734   -8.9769   21.8161 C   0  0  0  0  0  0
    4.8612   -9.7201   20.4222 C   0  0  0  0  0  0
    7.3248   -6.4150   24.6380 C   0  0  0  0  0  0
    8.3868   -4.7257   23.2758 C   0  0  0  0  0  0
    8.3363   -5.4801   24.4436 C   0  0  0  0  0  0
    7.0734  -10.2957   22.0087 C   0  0  0  0  0  0
    5.2390  -11.0427   20.6382 C   0  0  0  0  0  0
    6.3446  -11.3266   21.4303 C   0  0  0  0  0  0
    3.8516   -2.4593   19.4425 C   0  0  0  0  0  0
    5.4384   -1.6536   21.0836 C   0  0  0  0  0  0
    5.1517   -0.4711   19.0166 C   0  0  0  0  0  0
    4.1462   -1.3624   18.6373 C   0  0  0  0  0  0
    5.7280   -0.5628   20.2752 C   0  0  0  0  0  0
    8.9300   -5.6538   26.2705 H   0  0  0  0  0  0
    6.1436  -13.2496   21.1960 H   0  0  0  0  0  0
    6.1314    1.1898   18.5302 H   0  0  0  0  0  0
    3.6133   -7.4914   19.3405 H   0  0  0  0  0  0
    4.8905   -3.6027   22.3240 H   0  0  0  0  0  0
    5.4972   -7.2417   23.9065 H   0  0  0  0  0  0
    7.4341   -4.3333   21.3935 H   0  0  0  0  0  0
    7.2949   -8.2116   22.2435 H   0  0  0  0  0  0
    4.0380   -9.5200   19.7618 H   0  0  0  0  0  0
    7.3065   -7.0423   25.5112 H   0  0  0  0  0  0
    9.1893   -4.0196   23.1195 H   0  0  0  0  0  0
    7.9483  -10.5167   22.6024 H   0  0  0  0  0  0
    4.6810  -11.8411   20.1731 H   0  0  0  0  0  0
    3.1295   -3.1898   19.1103 H   0  0  0  0  0  0
    5.9579   -1.7625   22.0250 H   0  0  0  0  0  0
    3.6460   -1.2590   17.6874 H   0  0  0  0  0  0
    6.4560    0.1652   20.5905 H   0  0  0  0  0  0
  1 19  1  0  0  0
  1 28  1  0  0  0
  2 22  1  0  0  0
  2 29  1  0  0  0
  3 25  1  0  0  0
  3 30  1  0  0  0
  4  8  1  0  0  0
  4 31  1  0  0  0
  4  5  1  0  0  0
  5  9  2  0  0  0
  6  9  1  0  0  0
  6 14  1  0  0  0
  6 32  1  0  0  0
  7  9  1  0  0  0
  7  8  2  0  0  0
  7 10  1  0  0  0
  8 11  1  0  0  0
 10 12  2  0  0  0
 10 13  1  0  0  0
 11 15  2  0  0  0
 11 16  1  0  0  0
 12 17  1  0  0  0
 12 33  1  0  0  0
 13 18  2  0  0  0
 13 34  1  0  0  0
 14 23  2  0  0  0
 14 24  1  0  0  0
 15 20  1  0  0  0
 15 35  1  0  0  0
 16 21  2  0  0  0
 16 36  1  0  0  0
 17 19  2  0  0  0
 17 37  1  0  0  0
 18 19  1  0  0  0
 18 38  1  0  0  0
 20 22  2  0  0  0
 20 39  1  0  0  0
 21 22  1  0  0  0
 21 40  1  0  0  0
 23 26  1  0  0  0
 23 41  1  0  0  0
 24 27  2  0  0  0
 24 42  1  0  0  0
 25 26  2  0  0  0
 25 27  1  0  0  0
 26 43  1  0  0  0
 27 44  1  0  0  0
M  END
> <s_m_entry_id>
5728

> <s_m_entry_name>
dock_pv.123

> <s_m_Source_Path>
/home/csk/Desktop/cluster/DUD-E-result/igf1r

> <s_m_Source_File>
dock_pv.maegz

> <i_m_Source_File_Index>
123

> <chembl_id>
CHEMBL1969042

> <chembl_pref_name>
None

> <i_lp_mmshare_version>
53161

> <r_lp_tautomer_probability>
0.842599999160493

> <s_lp_Force_Field>
OPLS_2005

> <r_lp_Energy>
19.257316

> <b_lp_Chiralities_Consistent>
1

> <s_lp_Variant>
CHEMBL1957_lig3331-1

> <s_i_glide_gridfile>
glide-grid_2oj9

> <i_i_glide_lignum>
4681

> <i_i_glide_rotatable_bonds>
7

> <r_i_docking_score>
-7.47783095529349

> <r_i_glide_ligand_efficiency>
-0.276956702047907

> <r_i_glide_ligand_efficiency_sa>
-0.830870105230917

> <r_i_glide_ligand_efficiency_ln>
-1.74071576471404

> <r_i_glide_gscore>
-7.47783095529349

> <r_i_glide_lipo>
-3.43510357334076

> <r_i_glide_hbond>
-0.436909602418832

> <r_i_glide_metal>
0

> <r_i_glide_rewards>
-0.958786499999999

> <r_i_glide_evdw>
-33.7398872375488

> <r_i_glide_ecoul>
-10.3576755523682

> <r_i_glide_erotb>
0.593614415198765

> <r_i_glide_esite>
0

> <r_i_glide_emodel>
-54.5745490981156

> <r_i_glide_energy>
-44.097562789917

> <r_i_glide_einternal>
15.4993305206299

> <i_i_glide_confnum>
92

> <i_i_glide_posenum>
275

> <r_i_glide_eff_state_penalty>
0

> <s_user_duplicate_titles>
CHEMBL1957_lig3331,CHEMBL1957_lig3331

> <i_f3d_flags>
0

> <s_m_subgroup_title>
dock_pv

> <s_m_subgroupid>
dock_pv

> <b_m_subgroup_collapsed>
1

$$$$
CHEMBL1957_lig585
                    3D
 Schrodinger Suite 2021-1.
 45 47  0  0  1  0            999 V2000
    4.3996   -5.7896   21.0354 C   0  0  0  0  0  0
    4.5682   -7.1745   20.9489 C   0  0  0  0  0  0
    5.5508   -7.8516   21.6808 C   0  0  0  0  0  0
    6.3725   -7.1764   22.5310 N   0  0  0  0  0  0
    5.3111   -5.0697   21.8539 C   0  0  0  0  0  0
    6.2520   -5.8494   22.5888 C   0  0  0  0  0  0
    7.2517   -4.8840   23.6489 S   0  0  0  0  0  0
    6.4924   -3.4003   23.0687 C   0  0  0  0  0  0
    5.5009   -3.6657   22.1184 C   0  0  0  0  0  0
    4.7945   -2.6686   21.4950 N   0  0  0  0  0  0
    6.8588   -2.1120   23.6435 C   0  0  0  0  0  0
    8.0380   -2.0542   24.2613 N   0  0  0  0  0  0
    6.1384   -1.1187   23.5585 O   0  0  0  0  0  0
    3.2220   -5.1919   20.2544 C   0  0  0  0  0  0
    5.6472   -9.2524   21.6689 N   0  0  0  0  0  0
    6.8645   -9.9382   22.1680 C   0  0  0  0  0  0
    6.6697  -11.4315   22.5238 C   0  0  0  0  0  0
    6.0203  -12.2462   21.4010 C   0  0  0  0  0  0
    4.7336  -11.5211   21.0168 C   0  0  0  0  0  0
    5.0047  -10.0595   20.6077 C   0  0  0  0  0  0
    6.8721  -12.3601   20.2760 O   0  0  0  0  0  0
    3.2436   -5.4133   18.7235 C   0  0  0  0  0  0
    3.2803   -4.0976   17.9311 C   0  0  0  0  0  0
    3.9115   -7.7061   20.2867 H   0  0  0  0  0  0
    4.9698   -1.7008   21.7340 H   0  0  0  0  0  0
    4.1486   -2.8468   20.7399 H   0  0  0  0  0  0
    8.3755   -1.1730   24.6375 H   0  0  0  0  0  0
    8.6594   -2.8495   24.2416 H   0  0  0  0  0  0
    3.0644   -4.1450   20.4936 H   0  0  0  0  0  0
    2.3188   -5.6539   20.6509 H   0  0  0  0  0  0
    7.6662   -9.8207   21.4382 H   0  0  0  0  0  0
    7.2057   -9.4494   23.0814 H   0  0  0  0  0  0
    7.6393  -11.8650   22.7709 H   0  0  0  0  0  0
    6.0801  -11.5147   23.4377 H   0  0  0  0  0  0
    5.8009  -13.2560   21.7514 H   0  0  0  0  0  0
    4.0148  -11.5477   21.8378 H   0  0  0  0  0  0
    4.2426  -12.0470   20.1989 H   0  0  0  0  0  0
    4.0382   -9.6562   20.3329 H   0  0  0  0  0  0
    5.6257  -10.0131   19.7121 H   0  0  0  0  0  0
    6.3190  -12.4768   19.4975 H   0  0  0  0  0  0
    2.3637   -5.9813   18.4272 H   0  0  0  0  0  0
    4.0706   -6.0534   18.4208 H   0  0  0  0  0  0
    3.2377   -4.2764   16.8582 H   0  0  0  0  0  0
    4.1898   -3.5357   18.1383 H   0  0  0  0  0  0
    2.4376   -3.4550   18.1832 H   0  0  0  0  0  0
  1  2  2  0  0  0
  1 14  1  0  0  0
  1  5  1  0  0  0
  2  3  1  0  0  0
  2 24  1  0  0  0
  3  4  2  0  0  0
  3 15  1  0  0  0
  4  6  1  0  0  0
  5  9  1  0  0  0
  5  6  2  0  0  0
  6  7  1  0  0  0
  7  8  1  0  0  0
  8 11  1  0  0  0
  8  9  2  0  0  0
  9 10  1  0  0  0
 10 25  1  0  0  0
 10 26  1  0  0  0
 11 12  1  0  0  0
 11 13  2  0  0  0
 12 27  1  0  0  0
 12 28  1  0  0  0
 14 22  1  0  0  0
 14 29  1  0  0  0
 14 30  1  0  0  0
 15 16  1  0  0  0
 15 20  1  0  0  0
 16 17  1  0  0  0
 16 31  1  0  0  0
 16 32  1  0  0  0
 17 18  1  0  0  0
 17 33  1  0  0  0
 17 34  1  0  0  0
 18 19  1  0  0  0
 18 21  1  0  0  0
 18 35  1  0  0  0
 19 20  1  0  0  0
 19 36  1  0  0  0
 19 37  1  0  0  0
 20 38  1  0  0  0
 20 39  1  0  0  0
 21 40  1  0  0  0
 22 23  1  0  0  0
 22 41  1  0  0  0
 22 42  1  0  0  0
 23 43  1  0  0  0
 23 44  1  0  0  0
 23 45  1  0  0  0
M  END
> <s_m_entry_id>
5729

> <s_m_entry_name>
dock_pv.124

> <s_m_Source_Path>
/home/csk/Desktop/cluster/DUD-E-result/igf1r

> <s_m_Source_File>
dock_pv.maegz

> <i_m_Source_File_Index>
124

> <chembl_id>
CHEMBL576887

> <chembl_pref_name>
None

> <i_lp_mmshare_version>
53161

> <r_lp_tautomer_probability>
1

> <s_lp_Force_Field>
OPLS_2005

> <r_lp_Energy>
32.937848

> <b_lp_Chiralities_Consistent>
1

> <s_lp_Variant>
CHEMBL1957_lig585-1

> <s_i_glide_gridfile>
glide-grid_2oj9

> <i_i_glide_lignum>
794

> <i_i_glide_rotatable_bonds>
5

> <r_i_docking_score>
-7.46815258629871

> <r_i_glide_ligand_efficiency>
-0.324702286360813

> <r_i_glide_ligand_efficiency_sa>
-0.923410109498709

> <r_i_glide_ligand_efficiency_ln>
-1.80586701283072

> <r_i_glide_gscore>
-7.46815258629871

> <r_i_glide_lipo>
-2.8859769718881

> <r_i_glide_hbond>
-0.384516723986752

> <r_i_glide_metal>
0

> <r_i_glide_rewards>
-1.7223167971737

> <r_i_glide_evdw>
-37.4203681945801

> <r_i_glide_ecoul>
-6.16321897506714

> <r_i_glide_erotb>
0.337251470377206

> <r_i_glide_esite>
-0.0170923076382857

> <r_i_glide_emodel>
-54.9781772864896

> <r_i_glide_energy>
-43.5835871696472

> <r_i_glide_einternal>
14.6315050125122

> <i_i_glide_confnum>
13

> <i_i_glide_posenum>
369

> <r_i_glide_eff_state_penalty>
0

> <s_user_duplicate_titles>
CHEMBL1957_lig585

> <i_f3d_flags>
0

> <s_m_subgroup_title>
dock_pv

> <s_m_subgroupid>
dock_pv

> <b_m_subgroup_collapsed>
1

$$$$
CHEMBL1957_lig949
                    3D
 Schrodinger Suite 2021-1.
 49 52  0  0  1  0            999 V2000
    4.6340   -8.5257   20.4392 C   0  0  0  0  0  0
    5.3108   -9.1145   21.5019 C   0  0  0  0  0  0
    5.7266   -8.4029   22.5712 N   0  0  0  0  0  0
    5.5171   -7.0618   22.5337 C   0  0  0  0  0  0
    4.8541   -6.4111   21.5506 N   0  0  0  0  0  0
    4.3936   -7.1426   20.4994 C   0  0  0  0  0  0
    3.6385   -6.5106   19.4866 N   0  0  0  0  0  0
    3.3796   -5.1699   19.3173 C   0  0  0  0  0  0
    3.6372   -4.0838   20.1677 C   0  0  0  0  0  0
    3.4582   -2.9331   19.4337 C   0  0  0  0  0  0
    2.9821   -3.4053   18.2382 N   0  0  0  0  0  0
    2.9041   -4.7410   18.1733 N   0  0  0  0  0  0
    6.0205   -6.2474   23.5545 N   0  0  0  0  0  0
    4.0384   -9.6539   19.0381 Br  0  0  0  0  0  0
    3.6625   -1.4720   19.7626 C   0  0  0  0  0  0
    6.7392   -6.7872   24.7069 C   0  0  0  0  0  0
    8.1397   -7.3164   24.4345 C   0  0  0  0  0  0
    8.3378   -8.0568   23.3160 O   0  0  0  0  0  0
    9.6482   -8.5206   23.2918 N   0  0  0  0  0  0
   10.2183   -8.0642   24.3845 C   0  0  0  0  0  0
    9.3260   -7.2990   25.1351 C   0  0  0  0  0  0
   11.6579   -8.4113   24.6797 C   0  0  0  0  0  0
    5.1378   -1.0308   19.9903 C   0  0  0  0  0  0
    5.8638   -1.6040   21.2157 C   0  0  0  0  0  0
    6.0373   -0.8402   22.3753 C   0  0  0  0  0  0
    6.7195   -1.3623   23.4729 C   0  0  0  0  0  0
    7.2696   -2.6389   23.3984 C   0  0  0  0  0  0
    7.1375   -3.3951   22.2376 C   0  0  0  0  0  0
    6.4337   -2.8754   21.1554 C   0  0  0  0  0  0
    5.4981  -10.1787   21.5258 H   0  0  0  0  0  0
    3.4685   -7.1438   18.7177 H   0  0  0  0  0  0
    4.0187   -4.1160   21.1754 H   0  0  0  0  0  0
    2.6882   -2.8260   17.4620 H   0  0  0  0  0  0
    5.7581   -5.2729   23.5493 H   0  0  0  0  0  0
    3.0575   -1.2540   20.6372 H   0  0  0  0  0  0
    3.2466   -0.8574   18.9629 H   0  0  0  0  0  0
    6.7964   -5.9831   25.4375 H   0  0  0  0  0  0
    6.1277   -7.5652   25.1598 H   0  0  0  0  0  0
    9.5098   -6.8168   26.0839 H   0  0  0  0  0  0
   11.8572   -8.4540   25.7494 H   0  0  0  0  0  0
   11.9327   -9.3851   24.2756 H   0  0  0  0  0  0
   12.3402   -7.6811   24.2433 H   0  0  0  0  0  0
    5.1702    0.0575   20.0593 H   0  0  0  0  0  0
    5.7265   -1.2492   19.0979 H   0  0  0  0  0  0
    5.6409    0.1618   22.4302 H   0  0  0  0  0  0
    6.8507   -0.7692   24.3662 H   0  0  0  0  0  0
    7.8226   -3.0379   24.2363 H   0  0  0  0  0  0
    7.5870   -4.3762   22.1714 H   0  0  0  0  0  0
    6.3413   -3.4554   20.2553 H   0  0  0  0  0  0
  1 14  1  0  0  0
  1  6  1  0  0  0
  1  2  2  0  0  0
  2  3  1  0  0  0
  2 30  1  0  0  0
  3  4  2  0  0  0
  4  5  1  0  0  0
  4 13  1  0  0  0
  5  6  2  0  0  0
  6  7  1  0  0  0
  7  8  1  0  0  0
  7 31  1  0  0  0
  8  9  1  0  0  0
  8 12  2  0  0  0
  9 10  2  0  0  0
  9 32  1  0  0  0
 10 15  1  0  0  0
 10 11  1  0  0  0
 11 12  1  0  0  0
 11 33  1  0  0  0
 13 16  1  0  0  0
 13 34  1  0  0  0
 15 23  1  0  0  0
 15 35  1  0  0  0
 15 36  1  0  0  0
 16 17  1  0  0  0
 16 37  1  0  0  0
 16 38  1  0  0  0
 17 18  1  0  0  0
 17 21  2  0  0  0
 18 19  1  0  0  0
 19 20  2  0  0  0
 20 21  1  0  0  0
 20 22  1  0  0  0
 21 39  1  0  0  0
 22 40  1  0  0  0
 22 41  1  0  0  0
 22 42  1  0  0  0
 23 24  1  0  0  0
 23 43  1  0  0  0
 23 44  1  0  0  0
 24 25  2  0  0  0
 24 29  1  0  0  0
 25 26  1  0  0  0
 25 45  1  0  0  0
 26 27  2  0  0  0
 26 46  1  0  0  0
 27 28  1  0  0  0
 27 47  1  0  0  0
 28 29  2  0  0  0
 28 48  1  0  0  0
 29 49  1  0  0  0
M  END
> <s_m_entry_id>
5730

> <s_m_entry_name>
dock_pv.125

> <s_m_Source_Path>
/home/csk/Desktop/cluster/DUD-E-result/igf1r

> <s_m_Source_File>
dock_pv.maegz

> <i_m_Source_File_Index>
125

> <chembl_id>
CHEMBL2088095

> <chembl_pref_name>
None

> <i_lp_mmshare_version>
53161

> <r_lp_tautomer_probability>
0.842599732729633

> <s_lp_Force_Field>
OPLS_2005

> <r_lp_Energy>
0.928608

> <b_lp_Chiralities_Consistent>
1

> <s_lp_Variant>
CHEMBL1957_lig949-1

> <s_i_glide_gridfile>
glide-grid_2oj9

> <i_i_glide_lignum>
1186

> <i_i_glide_rotatable_bonds>
8

> <r_i_docking_score>
-7.46245620611522

> <r_i_glide_ligand_efficiency>
-0.257326076072939

> <r_i_glide_ligand_efficiency_sa>
-0.790587232319225

> <r_i_glide_ligand_efficiency_ln>
-1.70871323963834

> <r_i_glide_gscore>
-7.46245620611522

> <r_i_glide_lipo>
-3.17824254049298

> <r_i_glide_hbond>
-0.424613670341745

> <r_i_glide_metal>
0

> <r_i_glide_rewards>
-1.83035317624943

> <r_i_glide_evdw>
-35.4082641601562

> <r_i_glide_ecoul>
-5.08394765853882

> <r_i_glide_erotb>
0.544786472647412

> <r_i_glide_esite>
-0.0410279348898403

> <r_i_glide_emodel>
-59.4692681867777

> <r_i_glide_energy>
-40.4922118186951

> <r_i_glide_einternal>
4.99254703521729

> <i_i_glide_confnum>
58

> <i_i_glide_posenum>
38

> <r_i_glide_eff_state_penalty>
0

> <s_user_duplicate_titles>
CHEMBL1957_lig949

> <i_f3d_flags>
0

> <s_m_subgroup_title>
dock_pv

> <s_m_subgroupid>
dock_pv

> <b_m_subgroup_collapsed>
1

$$$$
CHEMBL1957_lig23
                    3D
 Schrodinger Suite 2021-1.
 40 43  0  0  1  0            999 V2000
    5.3490   -4.5906   21.8405 O   0  0  0  0  0  0
    6.3682   -0.8022   22.9595 O   0  0  0  0  0  0
    2.6988   -4.8347   17.8377 O   0  0  0  0  0  0
    3.8887   -3.9072   20.2662 N   0  0  0  0  0  0
    6.4362   -4.4327   22.6809 C   0  0  0  0  0  0
    6.8465   -3.1447   23.0768 C   0  0  0  0  0  0
    7.0825   -5.5922   23.1600 C   0  0  0  0  0  0
    4.8066   -3.5051   21.2332 C   0  0  0  0  0  0
    6.1308   -1.9423   22.5674 C   0  0  0  0  0  0
    5.1454   -2.2409   21.5520 C   0  0  0  0  0  0
    6.6439   -6.9863   22.8104 C   0  0  0  0  0  0
    7.9278   -3.0124   23.9516 C   0  0  0  0  0  0
    8.1751   -5.4087   24.0245 C   0  0  0  0  0  0
    8.5930   -4.1398   24.4163 C   0  0  0  0  0  0
    3.2912   -2.9965   19.2780 C   0  0  0  0  0  0
    3.2370   -5.2316   20.1862 C   0  0  0  0  0  0
    6.0782   -7.2944   21.5630 C   0  0  0  0  0  0
    6.7956   -8.0256   23.7407 C   0  0  0  0  0  0
    3.3997   -3.5977   17.8685 C   0  0  0  0  0  0
    3.2384   -5.7827   18.7433 C   0  0  0  0  0  0
    5.6383   -8.5832   21.2702 C   0  0  0  0  0  0
    6.3960   -9.3235   23.4378 C   0  0  0  0  0  0
    5.8109   -9.5958   22.2057 C   0  0  0  0  0  0
    4.6903   -1.4145   21.0377 H   0  0  0  0  0  0
    8.2752   -2.0376   24.2685 H   0  0  0  0  0  0
    8.7246   -6.2562   24.4052 H   0  0  0  0  0  0
    9.4391   -4.0326   25.0805 H   0  0  0  0  0  0
    2.3188   -2.6051   19.5769 H   0  0  0  0  0  0
    3.8830   -2.0826   19.2362 H   0  0  0  0  0  0
    3.7781   -5.9467   20.8000 H   0  0  0  0  0  0
    2.2635   -5.2527   20.6727 H   0  0  0  0  0  0
    5.9879   -6.5474   20.7920 H   0  0  0  0  0  0
    7.2143   -7.8388   24.7177 H   0  0  0  0  0  0
    4.4378   -3.7312   17.5676 H   0  0  0  0  0  0
    2.9864   -2.9016   17.1459 H   0  0  0  0  0  0
    4.2418   -6.0551   18.4235 H   0  0  0  0  0  0
    2.6614   -6.7062   18.6872 H   0  0  0  0  0  0
    5.1961   -8.7995   20.3080 H   0  0  0  0  0  0
    6.5128  -10.1169   24.1615 H   0  0  0  0  0  0
    5.4802  -10.5989   21.9784 H   0  0  0  0  0  0
  1  5  1  0  0  0
  1  8  1  0  0  0
  2  9  2  0  0  0
  3 19  1  0  0  0
  3 20  1  0  0  0
  4  8  1  0  0  0
  4 15  1  0  0  0
  4 16  1  0  0  0
  5  6  1  0  0  0
  5  7  2  0  0  0
  6  9  1  0  0  0
  6 12  2  0  0  0
  7 11  1  0  0  0
  7 13  1  0  0  0
  8 10  2  0  0  0
  9 10  1  0  0  0
 10 24  1  0  0  0
 11 17  2  0  0  0
 11 18  1  0  0  0
 12 14  1  0  0  0
 12 25  1  0  0  0
 13 14  2  0  0  0
 13 26  1  0  0  0
 14 27  1  0  0  0
 15 19  1  0  0  0
 15 28  1  0  0  0
 15 29  1  0  0  0
 16 20  1  0  0  0
 16 30  1  0  0  0
 16 31  1  0  0  0
 17 21  1  0  0  0
 17 32  1  0  0  0
 18 22  2  0  0  0
 18 33  1  0  0  0
 19 34  1  0  0  0
 19 35  1  0  0  0
 20 36  1  0  0  0
 20 37  1  0  0  0
 21 23  2  0  0  0
 21 38  1  0  0  0
 22 23  1  0  0  0
 22 39  1  0  0  0
 23 40  1  0  0  0
M  END
> <s_m_entry_id>
5731

> <s_m_entry_name>
dock_pv.126

> <s_m_Source_Path>
/home/csk/Desktop/cluster/DUD-E-result/igf1r

> <s_m_Source_File>
dock_pv.maegz

> <i_m_Source_File_Index>
126

> <chembl_id>
CHEMBL98350

> <chembl_pref_name>
LY-294002

> <i_lp_mmshare_version>
53161

> <r_lp_tautomer_probability>
1

> <s_lp_Force_Field>
OPLS_2005

> <r_lp_Energy>
30.422537

> <b_lp_Chiralities_Consistent>
1

> <s_lp_Variant>
CHEMBL1957_lig23-1

> <s_i_glide_gridfile>
glide-grid_2oj9

> <i_i_glide_lignum>
40

> <i_i_glide_rotatable_bonds>
2

> <r_i_docking_score>
-7.45996717873868

> <r_i_glide_ligand_efficiency>
-0.324346399075595

> <r_i_glide_ligand_efficiency_sa>
-0.922398013400784

> <r_i_glide_ligand_efficiency_ln>
-1.80388770706154

> <r_i_glide_gscore>
-7.45996717873868

> <r_i_glide_lipo>
-3.4662161313028

> <r_i_glide_hbond>
-0.223206461250193

> <r_i_glide_metal>
0

> <r_i_glide_rewards>
-1.83769807106224

> <r_i_glide_evdw>
-35.1641464233398

> <r_i_glide_ecoul>
-3.77354192733765

> <r_i_glide_erotb>
0.391392095144199

> <r_i_glide_esite>
0

> <r_i_glide_emodel>
-54.5361084511958

> <r_i_glide_energy>
-38.9376883506775

> <r_i_glide_einternal>
0.894530296325684

> <i_i_glide_confnum>
1

> <i_i_glide_posenum>
115

> <r_i_glide_eff_state_penalty>
0

> <s_user_duplicate_titles>
CHEMBL1957_lig23

> <i_f3d_flags>
0

> <s_m_subgroup_title>
dock_pv

> <s_m_subgroupid>
dock_pv

> <b_m_subgroup_collapsed>
1

$$$$
CHEMBL1957_lig495
                    3D
 Schrodinger Suite 2021-1.
 37 38  0  0  1  0            999 V2000
    8.0713   -7.9156   24.0713 C   0  0  2  0  0  0
    8.2279   -6.5604   24.6380 N   0  0  0  0  0  0
    9.2097   -8.1178   23.0418 C   0  0  0  0  0  0
   10.4380   -8.0540   23.6307 O   0  0  0  0  0  0
    9.0199   -8.2768   21.8380 O   0  0  0  0  0  0
    5.5445   -0.6203   20.5537 C   0  0  0  0  0  0
    4.9473   -0.0795   19.4107 C   0  0  0  0  0  0
    4.0723   -0.8540   18.6380 C   0  0  0  0  0  0
    5.2563   -1.9326   20.9370 C   0  0  0  0  0  0
    4.4064   -2.7023   20.1383 C   0  0  0  0  0  0
    3.8210   -2.1678   19.0161 C   0  0  0  0  0  0
    3.1099   -3.1586   18.3701 N   0  0  0  0  0  0
    3.2467   -4.3557   18.9679 C   0  0  0  0  0  0
    4.0362   -4.1031   20.1674 C   0  0  0  0  0  0
    2.8380   -5.4322   18.5346 O   0  0  0  0  0  0
    4.4379   -5.0473   21.0380 C   0  0  0  0  0  0
    4.2318   -6.4061   21.0380 N   0  0  0  0  0  0
    4.6669   -7.3184   22.0850 C   0  0  0  0  0  0
    6.1326   -7.1233   22.5152 C   0  0  0  0  0  0
    6.6370   -8.1706   23.5326 C   0  0  0  0  0  0
    8.2613   -8.6531   24.8527 H   0  0  0  0  0  0
    7.7279   -6.4541   25.5179 H   0  0  0  0  0  0
    9.1996   -6.3992   24.8684 H   0  0  0  0  0  0
   11.1076   -7.8878   22.9433 H   0  0  0  0  0  0
    6.2366   -0.0269   21.1325 H   0  0  0  0  0  0
    5.1932    0.9292   19.1076 H   0  0  0  0  0  0
    3.6382   -0.4540   17.7360 H   0  0  0  0  0  0
    5.7402   -2.3518   21.8066 H   0  0  0  0  0  0
    2.6241   -3.0423   17.4908 H   0  0  0  0  0  0
    5.0538   -4.7350   21.8670 H   0  0  0  0  0  0
    3.5343   -6.7811   20.4082 H   0  0  0  0  0  0
    4.5654   -8.3324   21.6986 H   0  0  0  0  0  0
    4.0023   -7.2540   22.9478 H   0  0  0  0  0  0
    6.2487   -6.1343   22.9568 H   0  0  0  0  0  0
    6.7622   -7.1257   21.6250 H   0  0  0  0  0  0
    6.5840   -9.1683   23.0931 H   0  0  0  0  0  0
    5.9538   -8.1897   24.3823 H   0  0  0  0  0  0
  1  3  1  0  0  0
  1  2  1  0  0  0
  1 20  1  0  0  0
  1 21  1  0  0  0
  2 22  1  0  0  0
  2 23  1  0  0  0
  3  5  2  0  0  0
  3  4  1  0  0  0
  4 24  1  0  0  0
  6  7  2  0  0  0
  6  9  1  0  0  0
  6 25  1  0  0  0
  7  8  1  0  0  0
  7 26  1  0  0  0
  8 11  2  0  0  0
  8 27  1  0  0  0
  9 10  2  0  0  0
  9 28  1  0  0  0
 10 14  1  0  0  0
 10 11  1  0  0  0
 11 12  1  0  0  0
 12 13  1  0  0  0
 12 29  1  0  0  0
 13 14  1  0  0  0
 13 15  2  0  0  0
 14 16  2  0  0  0
 16 17  1  0  0  0
 16 30  1  0  0  0
 17 18  1  0  0  0
 17 31  1  0  0  0
 18 19  1  0  0  0
 18 32  1  0  0  0
 18 33  1  0  0  0
 19 20  1  0  0  0
 19 34  1  0  0  0
 19 35  1  0  0  0
 20 36  1  0  0  0
 20 37  1  0  0  0
M  END
> <s_m_entry_id>
5732

> <s_m_entry_name>
dock_pv.127

> <s_m_Source_Path>
/home/csk/Desktop/cluster/DUD-E-result/igf1r

> <s_m_Source_File>
dock_pv.maegz

> <i_m_Source_File_Index>
127

> <chembl_id>
CHEMBL458352

> <chembl_pref_name>
None

> <i_lp_mmshare_version>
53161

> <r_lp_tautomer_probability>
0.499999999999422

> <s_lp_Force_Field>
OPLS_2005

> <r_lp_Energy>
30.631312

> <b_lp_Chiralities_Consistent>
1

> <s_lp_Variant>
CHEMBL1957_lig495-1

> <s_i_glide_gridfile>
glide-grid_2oj9

> <i_i_glide_lignum>
687

> <i_i_glide_rotatable_bonds>
7

> <r_i_docking_score>
-7.44223341122623

> <r_i_glide_ligand_efficiency>
-0.372111670561312

> <r_i_glide_ligand_efficiency_sa>
-1.01006647290356

> <r_i_glide_ligand_efficiency_ln>
-1.86254556154403

> <r_i_glide_gscore>
-7.44223341122623

> <r_i_glide_lipo>
-2.16611728334428

> <r_i_glide_hbond>
-0.901906170468294

> <r_i_glide_metal>
0

> <r_i_glide_rewards>
-3.11869112121212

> <r_i_glide_evdw>
-27.3910865783691

> <r_i_glide_ecoul>
-12.2797784805298

> <r_i_glide_erotb>
1.99182955277564

> <r_i_glide_esite>
-0.0358272879792483

> <r_i_glide_emodel>
-54.072593859687

> <r_i_glide_energy>
-39.6708650588989

> <r_i_glide_einternal>
7.85218334197998

> <i_i_glide_confnum>
99

> <i_i_glide_posenum>
112

> <r_i_glide_eff_state_penalty>
0

> <s_user_duplicate_titles>
CHEMBL1957_lig495,CHEMBL1957_lig495

> <i_f3d_flags>
0

> <s_m_subgroup_title>
dock_pv

> <s_m_subgroupid>
dock_pv

> <b_m_subgroup_collapsed>
1

$$$$
CHEMBL1957_lig2305
                    3D
 Schrodinger Suite 2021-1.
 52 55  0  0  1  0            999 V2000
    5.3361   -0.2126   18.6010 C   0  0  0  0  0  0
    4.1881   -0.6391   19.3230 O   0  0  0  0  0  0
    3.9376   -1.9906   19.3084 C   0  0  0  0  0  0
    3.2378   -2.5449   18.2363 C   0  0  0  0  0  0
    2.9122   -3.8996   18.2375 C   0  0  0  0  0  0
    3.2380   -4.7006   19.3237 C   0  0  0  0  0  0
    3.9229   -4.1492   20.3999 C   0  0  0  0  0  0
    4.3226   -2.8093   20.3836 C   0  0  0  0  0  0
    5.0954   -2.2560   21.4131 N   0  0  0  0  0  0
    6.0224   -2.8110   22.3002 C   0  0  0  0  0  0
    6.6262   -1.9015   23.0979 N   0  0  0  0  0  0
    7.5462   -2.3770   23.9678 C   0  0  0  0  0  0
    7.8679   -3.7353   24.0813 C   0  0  0  0  0  0
    8.8718   -4.3244   25.0830 C   0  0  2  0  0  0
    9.6381   -3.2925   25.9190 C   0  0  0  0  0  0
    9.7687   -5.3907   24.3882 C   0  0  0  0  0  0
    8.8323   -6.4198   23.7681 C   0  0  0  0  0  0
    9.0484   -7.7075   23.7047 N   0  0  0  0  0  0
    7.9271   -8.2124   23.1794 N   0  0  0  0  0  0
    7.8324   -9.6602   23.0480 C   0  0  0  0  0  0
    6.9444   -7.2661   22.9566 C   0  0  0  0  0  0
    5.5267   -7.6602   22.5357 C   0  0  0  0  0  0
    5.3528   -7.7104   21.0105 C   0  0  0  0  0  0
    4.4406   -6.8559   23.2631 C   0  0  0  0  0  0
    7.5797   -6.0487   23.2523 C   0  0  0  0  0  0
    7.1913   -4.5999   23.1976 C   0  0  0  0  0  0
    6.2778   -4.1484   22.2979 N   0  0  0  0  0  0
    5.6396    0.7415   19.0120 H   0  0  0  0  0  0
    6.1962   -0.8697   18.7110 H   0  0  0  0  0  0
    5.1246   -0.0557   17.5400 H   0  0  0  0  0  0
    2.9369   -1.9260   17.4041 H   0  0  0  0  0  0
    2.3597   -4.3316   17.4232 H   0  0  0  0  0  0
    2.9549   -5.7427   19.3375 H   0  0  0  0  0  0
    4.1443   -4.7920   21.2328 H   0  0  0  0  0  0
    5.0825   -1.2486   21.4315 H   0  0  0  0  0  0
    8.0291   -1.6270   24.5748 H   0  0  0  0  0  0
    8.2780   -4.8540   25.8201 H   0  0  0  0  0  0
    9.0096   -2.4853   26.2926 H   0  0  0  0  0  0
   10.0534   -3.7699   26.8033 H   0  0  0  0  0  0
   10.4369   -2.8536   25.3337 H   0  0  0  0  0  0
   10.4379   -5.8680   25.1034 H   0  0  0  0  0  0
   10.4075   -4.9372   23.6280 H   0  0  0  0  0  0
    7.2742   -9.9150   22.1461 H   0  0  0  0  0  0
    8.8279  -10.1049   22.9734 H   0  0  0  0  0  0
    7.3222  -10.0669   23.9220 H   0  0  0  0  0  0
    5.3484   -8.6804   22.8808 H   0  0  0  0  0  0
    5.7818   -6.8389   20.5202 H   0  0  0  0  0  0
    5.8511   -8.5948   20.6145 H   0  0  0  0  0  0
    4.3038   -7.7752   20.7161 H   0  0  0  0  0  0
    4.4381   -7.1089   24.3230 H   0  0  0  0  0  0
    4.5792   -5.7833   23.1927 H   0  0  0  0  0  0
    3.4509   -7.0707   22.8679 H   0  0  0  0  0  0
  1  2  1  0  0  0
  1 28  1  0  0  0
  1 29  1  0  0  0
  1 30  1  0  0  0
  2  3  1  0  0  0
  3  4  2  0  0  0
  3  8  1  0  0  0
  4  5  1  0  0  0
  4 31  1  0  0  0
  5  6  2  0  0  0
  5 32  1  0  0  0
  6  7  1  0  0  0
  6 33  1  0  0  0
  7  8  2  0  0  0
  7 34  1  0  0  0
  8  9  1  0  0  0
  9 10  1  0  0  0
  9 35  1  0  0  0
 10 11  2  0  0  0
 10 27  1  0  0  0
 11 12  1  0  0  0
 12 13  2  0  0  0
 12 36  1  0  0  0
 13 14  1  0  0  0
 13 26  1  0  0  0
 14 15  1  0  0  0
 14 16  1  0  0  0
 14 37  1  0  0  0
 15 38  1  0  0  0
 15 39  1  0  0  0
 15 40  1  0  0  0
 16 17  1  0  0  0
 16 41  1  0  0  0
 16 42  1  0  0  0
 17 18  2  0  0  0
 17 25  1  0  0  0
 18 19  1  0  0  0
 19 20  1  0  0  0
 19 21  1  0  0  0
 20 43  1  0  0  0
 20 44  1  0  0  0
 20 45  1  0  0  0
 21 22  1  0  0  0
 21 25  2  0  0  0
 22 23  1  0  0  0
 22 24  1  0  0  0
 22 46  1  0  0  0
 23 47  1  0  0  0
 23 48  1  0  0  0
 23 49  1  0  0  0
 24 50  1  0  0  0
 24 51  1  0  0  0
 24 52  1  0  0  0
 25 26  1  0  0  0
 26 27  2  0  0  0
M  END
> <s_m_entry_id>
5734

> <s_m_entry_name>
dock_pv.129

> <s_m_Source_Path>
/home/csk/Desktop/cluster/DUD-E-result/igf1r

> <s_m_Source_File>
dock_pv.maegz

> <i_m_Source_File_Index>
129

> <chembl_id>
CHEMBL3656746

> <chembl_pref_name>
None

> <i_lp_mmshare_version>
53161

> <r_lp_tautomer_probability>
0.999999987636

> <s_lp_Force_Field>
OPLS_2005

> <r_lp_Energy>
18.616333

> <b_lp_Chiralities_Consistent>
1

> <s_lp_Variant>
CHEMBL1957_lig2305-1

> <s_i_glide_gridfile>
glide-grid_2oj9

> <i_i_glide_lignum>
3287

> <i_i_glide_rotatable_bonds>
4

> <r_i_docking_score>
-7.43534890786132

> <r_i_glide_ligand_efficiency>
-0.275383292883753

> <r_i_glide_ligand_efficiency_sa>
-0.826149877743639

> <r_i_glide_ligand_efficiency_ln>
-1.73082664444312

> <r_i_glide_gscore>
-7.43534890786132

> <r_i_glide_lipo>
-3.89862560149438

> <r_i_glide_hbond>
0

> <r_i_glide_metal>
0

> <r_i_glide_rewards>
-1.56631630423771

> <r_i_glide_evdw>
-41.1241836547852

> <r_i_glide_ecoul>
-1.3672821521759

> <r_i_glide_erotb>
0.29089450343642

> <r_i_glide_esite>
0

> <r_i_glide_emodel>
-51.475396304128

> <r_i_glide_energy>
-42.4914658069611

> <r_i_glide_einternal>
4.83330535888672

> <i_i_glide_confnum>
6

> <i_i_glide_posenum>
86

> <r_i_glide_eff_state_penalty>
0

> <s_user_duplicate_titles>
CHEMBL1957_lig2305

> <i_f3d_flags>
0

> <s_m_subgroup_title>
dock_pv

> <s_m_subgroupid>
dock_pv

> <b_m_subgroup_collapsed>
1

$$$$
CHEMBL1957_lig2732
                    3D
 Schrodinger Suite 2021-1.
 35 37  0  0  1  0            999 V2000
    8.7234   -3.5535   24.6458 O   0  0  0  0  0  0
    6.0380   -0.1092   23.3165 O   0  0  0  0  0  0
    7.5546   -8.4110   23.1293 O   0  0  0  0  0  0
    5.5855   -8.7363   21.3762 O   0  0  0  0  0  0
    4.9960   -2.5846   21.8433 N   0  0  0  0  0  0
    7.5418   -1.6541   24.1334 N   0  0  0  0  0  0
    6.7639   -3.5354   23.1795 C   0  0  0  0  0  0
    6.4707   -4.8553   22.7483 C   0  0  0  0  0  0
    6.0036   -2.4917   22.7361 C   0  0  0  0  0  0
    5.3989   -5.0214   21.8154 C   0  0  0  0  0  0
    4.7242   -3.8294   21.3672 C   0  0  0  0  0  0
    7.8061   -2.9735   24.0742 C   0  0  0  0  0  0
    6.4769   -1.2555   23.4040 C   0  0  0  0  0  0
    7.1846   -5.9916   23.1959 C   0  0  0  0  0  0
    5.0872   -6.3349   21.3765 C   0  0  0  0  0  0
    6.8678   -7.2752   22.7346 C   0  0  0  0  0  0
    5.8226   -7.4462   21.8186 C   0  0  0  0  0  0
    3.6378   -3.9181   20.2785 C   0  0  0  0  0  0
    3.0761   -2.5785   19.7563 C   0  0  0  0  0  0
    8.6564   -8.2952   24.0255 C   0  0  0  0  0  0
    4.6428   -8.9588   20.3350 C   0  0  0  0  0  0
    8.1391   -1.0103   24.6381 H   0  0  0  0  0  0
    7.9865   -5.8420   23.9016 H   0  0  0  0  0  0
    4.2802   -6.4595   20.6731 H   0  0  0  0  0  0
    4.0379   -4.4525   19.4195 H   0  0  0  0  0  0
    2.8173   -4.5358   20.6379 H   0  0  0  0  0  0
    2.3933   -2.7429   18.9236 H   0  0  0  0  0  0
    2.5327   -2.0409   20.5344 H   0  0  0  0  0  0
    3.8723   -1.9298   19.3886 H   0  0  0  0  0  0
    9.0741   -9.2845   24.2108 H   0  0  0  0  0  0
    9.4520   -7.6773   23.6050 H   0  0  0  0  0  0
    8.3502   -7.8819   24.9881 H   0  0  0  0  0  0
    4.6179  -10.0189   20.0824 H   0  0  0  0  0  0
    3.6384   -8.6598   20.6322 H   0  0  0  0  0  0
    4.9218   -8.4097   19.4375 H   0  0  0  0  0  0
  1 12  2  0  0  0
  2 13  2  0  0  0
  3 16  1  0  0  0
  3 20  1  0  0  0
  4 17  1  0  0  0
  4 21  1  0  0  0
  5  9  1  0  0  0
  5 11  2  0  0  0
  6 12  1  0  0  0
  6 13  1  0  0  0
  6 22  1  0  0  0
  7  8  1  0  0  0
  7  9  2  0  0  0
  7 12  1  0  0  0
  8 10  1  0  0  0
  8 14  2  0  0  0
  9 13  1  0  0  0
 10 11  1  0  0  0
 10 15  2  0  0  0
 11 18  1  0  0  0
 14 16  1  0  0  0
 14 23  1  0  0  0
 15 17  1  0  0  0
 15 24  1  0  0  0
 16 17  2  0  0  0
 18 19  1  0  0  0
 18 25  1  0  0  0
 18 26  1  0  0  0
 19 27  1  0  0  0
 19 28  1  0  0  0
 19 29  1  0  0  0
 20 30  1  0  0  0
 20 31  1  0  0  0
 20 32  1  0  0  0
 21 33  1  0  0  0
 21 34  1  0  0  0
 21 35  1  0  0  0
M  END
> <s_m_entry_id>
5735

> <s_m_entry_name>
dock_pv.130

> <s_m_Source_Path>
/home/csk/Desktop/cluster/DUD-E-result/igf1r

> <s_m_Source_File>
dock_pv.maegz

> <i_m_Source_File_Index>
130

> <chembl_id>
CHEMBL2003524

> <chembl_pref_name>
None

> <i_lp_mmshare_version>
53161

> <r_lp_tautomer_probability>
1

> <s_lp_Force_Field>
OPLS_2005

> <r_lp_Energy>
41.873442

> <b_lp_Chiralities_Consistent>
1

> <s_lp_Variant>
CHEMBL1957_lig2732-1

> <s_i_glide_gridfile>
glide-grid_2oj9

> <i_i_glide_lignum>
3779

> <i_i_glide_rotatable_bonds>
3

> <r_i_docking_score>
-7.42695441645126

> <r_i_glide_ligand_efficiency>
-0.353664496021489

> <r_i_glide_ligand_efficiency_sa>
-0.975733527411115

> <r_i_glide_ligand_efficiency_ln>
-1.83629947189309

> <r_i_glide_gscore>
-7.42695441645126

> <r_i_glide_lipo>
-2.32230752393442

> <r_i_glide_hbond>
-0.32

> <r_i_glide_metal>
0

> <r_i_glide_rewards>
-2.74171951713377

> <r_i_glide_evdw>
-32.481990814209

> <r_i_glide_ecoul>
-2.71486663818359

> <r_i_glide_erotb>
0

> <r_i_glide_esite>
-0.0115978389450787

> <r_i_glide_emodel>
-51.4622315678926

> <r_i_glide_energy>
-35.1968574523926

> <r_i_glide_einternal>
0.990911841392517

> <i_i_glide_confnum>
1

> <i_i_glide_posenum>
63

> <r_i_glide_eff_state_penalty>
0

> <s_user_duplicate_titles>
CHEMBL1957_lig2732

> <i_f3d_flags>
0

> <s_m_subgroup_title>
dock_pv

> <s_m_subgroupid>
dock_pv

> <b_m_subgroup_collapsed>
1

$$$$
CHEMBL1957_lig492
                    3D
 Schrodinger Suite 2021-1.
 40 41  0  0  1  0            999 V2000
    5.6378   -1.0513   20.9584 C   0  0  0  0  0  0
    5.1643   -0.3555   19.8389 C   0  0  0  0  0  0
    4.2962   -0.9814   18.9405 C   0  0  0  0  0  0
    5.2461   -2.3759   21.1826 C   0  0  0  0  0  0
    4.4113   -3.0074   20.2555 C   0  0  0  0  0  0
    3.9413   -2.3108   19.1628 C   0  0  0  0  0  0
    3.2132   -3.1714   18.3698 N   0  0  0  0  0  0
    3.2392   -4.4321   18.8327 C   0  0  0  0  0  0
    3.9252   -4.3787   20.1124 C   0  0  0  0  0  0
    2.8379   -5.4282   18.2381 O   0  0  0  0  0  0
    4.1116   -5.5021   20.8374 C   0  0  0  0  0  0
    4.8393   -5.6505   21.9930 N   0  0  0  0  0  0
    4.9523   -6.8727   22.7770 C   0  0  0  0  0  0
    6.3971   -7.2911   23.1068 C   0  0  0  0  0  0
    6.9149   -6.7289   24.4507 C   0  0  0  0  0  0
    7.0431   -5.1864   24.5072 C   0  0  0  0  0  0
    8.4753   -4.6060   24.4524 C   0  0  2  0  0  0
    8.4379   -3.1478   24.2385 N   0  0  0  0  0  0
    9.3653   -5.2114   23.3411 C   0  0  0  0  0  0
   10.5472   -5.6761   23.8380 O   0  0  0  0  0  0
    9.0234   -5.2507   22.1592 O   0  0  0  0  0  0
    6.3160   -0.5665   21.6454 H   0  0  0  0  0  0
    5.4844    0.6614   19.6590 H   0  0  0  0  0  0
    3.9531   -0.4542   18.0640 H   0  0  0  0  0  0
    5.6359   -2.9062   22.0381 H   0  0  0  0  0  0
    2.8085   -2.9334   17.4749 H   0  0  0  0  0  0
    3.6842   -6.4445   20.5154 H   0  0  0  0  0  0
    5.2814   -4.8451   22.4107 H   0  0  0  0  0  0
    4.4386   -7.6784   22.2567 H   0  0  0  0  0  0
    4.4356   -6.7443   23.7243 H   0  0  0  0  0  0
    7.0698   -7.0359   22.2869 H   0  0  0  0  0  0
    6.4266   -8.3797   23.1706 H   0  0  0  0  0  0
    7.8677   -7.1991   24.6998 H   0  0  0  0  0  0
    6.2386   -7.0509   25.2434 H   0  0  0  0  0  0
    6.5826   -4.8541   25.4375 H   0  0  0  0  0  0
    6.4431   -4.7187   23.7324 H   0  0  0  0  0  0
    8.9516   -4.8235   25.4102 H   0  0  0  0  0  0
    9.3748   -2.8116   24.0273 H   0  0  0  0  0  0
    7.8711   -2.9214   23.4351 H   0  0  0  0  0  0
   11.0737   -6.0864   23.1345 H   0  0  0  0  0  0
  1  4  1  0  0  0
  1  2  2  0  0  0
  1 22  1  0  0  0
  2  3  1  0  0  0
  2 23  1  0  0  0
  3  6  2  0  0  0
  3 24  1  0  0  0
  4  5  2  0  0  0
  4 25  1  0  0  0
  5  6  1  0  0  0
  5  9  1  0  0  0
  6  7  1  0  0  0
  7  8  1  0  0  0
  7 26  1  0  0  0
  8  9  1  0  0  0
  8 10  2  0  0  0
  9 11  2  0  0  0
 11 12  1  0  0  0
 11 27  1  0  0  0
 12 13  1  0  0  0
 12 28  1  0  0  0
 13 14  1  0  0  0
 13 29  1  0  0  0
 13 30  1  0  0  0
 14 15  1  0  0  0
 14 31  1  0  0  0
 14 32  1  0  0  0
 15 16  1  0  0  0
 15 33  1  0  0  0
 15 34  1  0  0  0
 16 17  1  0  0  0
 16 35  1  0  0  0
 16 36  1  0  0  0
 17 18  1  0  0  0
 17 19  1  0  0  0
 17 37  1  0  0  0
 18 38  1  0  0  0
 18 39  1  0  0  0
 19 20  1  0  0  0
 19 21  2  0  0  0
 20 40  1  0  0  0
M  END
> <s_m_entry_id>
5736

> <s_m_entry_name>
dock_pv.131

> <s_m_Source_Path>
/home/csk/Desktop/cluster/DUD-E-result/igf1r

> <s_m_Source_File>
dock_pv.maegz

> <i_m_Source_File_Index>
131

> <chembl_id>
CHEMBL458440

> <chembl_pref_name>
None

> <i_lp_mmshare_version>
53161

> <r_lp_tautomer_probability>
0.499999999999422

> <s_lp_Force_Field>
OPLS_2005

> <r_lp_Energy>
26.365327

> <b_lp_Chiralities_Consistent>
1

> <s_lp_Variant>
CHEMBL1957_lig492-2

> <s_i_glide_gridfile>
glide-grid_2oj9

> <i_i_glide_lignum>
682

> <i_i_glide_rotatable_bonds>
8

> <r_i_docking_score>
-7.4231637520672

> <r_i_glide_ligand_efficiency>
-0.353483988193676

> <r_i_glide_ligand_efficiency_sa>
-0.975235520001443

> <r_i_glide_ligand_efficiency_ln>
-1.83536223778389

> <r_i_glide_gscore>
-7.4231637520672

> <r_i_glide_lipo>
-2.23576649611522

> <r_i_glide_hbond>
-0.808381294371496

> <r_i_glide_metal>
0

> <r_i_glide_rewards>
-3.21012881661464

> <r_i_glide_evdw>
-34.431095123291

> <r_i_glide_ecoul>
-10.5254306793213

> <r_i_glide_erotb>
2.1314822130969

> <r_i_glide_esite>
0

> <r_i_glide_emodel>
-59.6622336315436

> <r_i_glide_energy>
-44.9565258026123

> <r_i_glide_einternal>
9.7231273651123

> <i_i_glide_confnum>
8

> <i_i_glide_posenum>
305

> <r_i_glide_eff_state_penalty>
0

> <s_user_duplicate_titles>
CHEMBL1957_lig492

> <i_f3d_flags>
0

> <s_m_subgroup_title>
dock_pv

> <s_m_subgroupid>
dock_pv

> <b_m_subgroup_collapsed>
1

$$$$
CHEMBL1957_lig3438
                    3D
 Schrodinger Suite 2021-1.
 39 42  0  0  1  0            999 V2000
    7.5102   -9.6554   23.6392 F   0  0  0  0  0  0
    7.6203  -12.3378   23.3133 F   0  0  0  0  0  0
    4.9887   -7.3265   21.2389 O   0  0  0  0  0  0
    7.5201   -2.0563   24.0587 N   0  0  0  0  0  0
    8.0439   -4.3754   24.4899 N   0  0  0  0  0  0
    6.7437   -7.3117   22.7050 N   0  0  0  0  0  0
    6.5540   -3.5786   22.7003 C   0  0  0  0  0  0
    6.1644   -2.2641   22.2497 C   0  0  0  0  0  0
    7.4279   -3.4047   23.8132 C   0  0  0  0  0  0
    6.9121   -5.9481   22.9970 C   0  0  0  0  0  0
    6.3092   -4.8984   22.2830 C   0  0  0  0  0  0
    5.3175   -1.9065   21.0727 C   0  0  0  0  0  0
    6.7275   -1.3854   23.1639 C   0  0  0  0  0  0
    5.9710   -9.4308   21.7815 C   0  0  0  0  0  0
    5.8555   -7.9206   21.8880 C   0  0  0  0  0  0
    7.7597   -5.6338   24.0656 C   0  0  0  0  0  0
    6.7814  -10.2110   22.6393 C   0  0  0  0  0  0
    6.8414  -11.5986   22.4898 C   0  0  0  0  0  0
    5.2383  -10.0953   20.7830 C   0  0  0  0  0  0
    5.6395   -0.7590   20.3435 C   0  0  0  0  0  0
    4.2692   -2.7250   20.6434 C   0  0  0  0  0  0
    6.1045  -12.2311   21.4926 C   0  0  0  0  0  0
    5.3024  -11.4791   20.6416 C   0  0  0  0  0  0
    4.9479   -0.4487   19.1794 C   0  0  0  0  0  0
    3.5590   -2.4027   19.4876 C   0  0  0  0  0  0
    3.9089   -1.2696   18.7549 C   0  0  0  0  0  0
    8.0921   -1.5887   24.7496 H   0  0  0  0  0  0
    7.3539   -7.9382   23.2132 H   0  0  0  0  0  0
    5.6854   -5.0776   21.4225 H   0  0  0  0  0  0
    6.6736   -0.3081   23.2127 H   0  0  0  0  0  0
    8.2469   -6.4158   24.6307 H   0  0  0  0  0  0
    4.6088   -9.5448   20.0967 H   0  0  0  0  0  0
    6.4581   -0.1220   20.6457 H   0  0  0  0  0  0
    3.9998   -3.6102   21.1971 H   0  0  0  0  0  0
    6.1526  -13.3033   21.3834 H   0  0  0  0  0  0
    4.7209  -11.9705   19.8768 H   0  0  0  0  0  0
    5.2359    0.4229   18.6079 H   0  0  0  0  0  0
    2.7469   -3.0311   19.1553 H   0  0  0  0  0  0
    3.3733   -1.0306   17.8478 H   0  0  0  0  0  0
  1 17  1  0  0  0
  2 18  1  0  0  0
  3 15  2  0  0  0
  4  9  1  0  0  0
  4 13  1  0  0  0
  4 27  1  0  0  0
  5  9  2  0  0  0
  5 16  1  0  0  0
  6 10  1  0  0  0
  6 15  1  0  0  0
  6 28  1  0  0  0
  7  8  1  0  0  0
  7  9  1  0  0  0
  7 11  2  0  0  0
  8 12  1  0  0  0
  8 13  2  0  0  0
 10 11  1  0  0  0
 10 16  2  0  0  0
 11 29  1  0  0  0
 12 20  2  0  0  0
 12 21  1  0  0  0
 13 30  1  0  0  0
 14 15  1  0  0  0
 14 17  2  0  0  0
 14 19  1  0  0  0
 16 31  1  0  0  0
 17 18  1  0  0  0
 18 22  2  0  0  0
 19 23  2  0  0  0
 19 32  1  0  0  0
 20 24  1  0  0  0
 20 33  1  0  0  0
 21 25  2  0  0  0
 21 34  1  0  0  0
 22 23  1  0  0  0
 22 35  1  0  0  0
 23 36  1  0  0  0
 24 26  2  0  0  0
 24 37  1  0  0  0
 25 26  1  0  0  0
 25 38  1  0  0  0
 26 39  1  0  0  0
M  END
> <s_m_entry_id>
5737

> <s_m_entry_name>
dock_pv.132

> <s_m_Source_Path>
/home/csk/Desktop/cluster/DUD-E-result/igf1r

> <s_m_Source_File>
dock_pv.maegz

> <i_m_Source_File_Index>
132

> <chembl_id>
CHEMBL1974416

> <chembl_pref_name>
None

> <i_lp_mmshare_version>
53161

> <r_lp_tautomer_probability>
0.999998432528457

> <s_lp_Force_Field>
OPLS_2005

> <r_lp_Energy>
24.916623

> <b_lp_Chiralities_Consistent>
1

> <s_lp_Variant>
CHEMBL1957_lig3438-1

> <s_i_glide_gridfile>
glide-grid_2oj9

> <i_i_glide_lignum>
4841

> <i_i_glide_rotatable_bonds>
4

> <r_i_docking_score>
-7.41873555219717

> <r_i_glide_ligand_efficiency>
-0.285335982776814

> <r_i_glide_ligand_efficiency_sa>
-0.845306726233435

> <r_i_glide_ligand_efficiency_ln>
-1.74226570157667

> <r_i_glide_gscore>
-7.41873555219717

> <r_i_glide_lipo>
-2.97660239760326

> <r_i_glide_hbond>
-0.13198088444607

> <r_i_glide_metal>
0

> <r_i_glide_rewards>
-2.79539713612471

> <r_i_glide_evdw>
-40.3902549743652

> <r_i_glide_ecoul>
-0.797175884246826

> <r_i_glide_erotb>
0.624333997332158

> <r_i_glide_esite>
0

> <r_i_glide_emodel>
-59.4545568628945

> <r_i_glide_energy>
-41.1874308586121

> <r_i_glide_einternal>
1.0582959651947

> <i_i_glide_confnum>
3

> <i_i_glide_posenum>
368

> <r_i_glide_eff_state_penalty>
0

> <s_user_duplicate_titles>
CHEMBL1957_lig3438

> <i_f3d_flags>
0

> <s_m_subgroup_title>
dock_pv

> <s_m_subgroupid>
dock_pv

> <b_m_subgroup_collapsed>
1

$$$$
CHEMBL1957_lig2901
                    3D
 Schrodinger Suite 2021-1.
 38 40  0  0  1  0            999 V2000
    6.6632  -10.0440   23.2818 F   0  0  0  0  0  0
    5.2366    0.7423   19.6703 O   0  0  0  0  0  0
    3.9861   -3.2906   20.4368 N   0  0  0  0  0  0
    3.5087   -5.4491   20.0951 N   0  0  0  0  0  0
    7.9060   -2.5346   23.8562 N   0  0  0  0  0  0
    4.8180   -4.0299   21.2610 C   0  0  0  0  0  0
    4.4380   -5.3706   21.0380 C   0  0  0  0  0  0
    5.8817   -3.4630   22.1424 C   0  0  0  0  0  0
    4.9978   -6.6238   21.6439 C   0  0  0  0  0  0
    3.2385   -4.2171   19.7601 C   0  0  0  0  0  0
    3.8709   -1.8425   20.2840 C   0  0  0  0  0  0
    5.0771   -7.8024   20.8908 C   0  0  0  0  0  0
    5.4560   -6.6251   22.9669 C   0  0  0  0  0  0
    7.1596   -4.0315   22.1112 C   0  0  0  0  0  0
    5.6383   -2.4149   23.0379 C   0  0  0  0  0  0
    5.6380   -8.9530   21.4406 C   0  0  0  0  0  0
    6.0113   -7.7756   23.5192 C   0  0  0  0  0  0
    6.1072   -8.9325   22.7512 C   0  0  0  0  0  0
    8.1310   -3.5517   22.9870 C   0  0  0  0  0  0
    6.6708   -1.9765   23.8675 C   0  0  0  0  0  0
    4.2433   -1.3419   18.8677 C   0  0  0  0  0  0
    5.4500   -0.3814   18.8348 C   0  0  0  0  0  0
    5.9038    1.4204   19.4385 H   0  0  0  0  0  0
    2.5232   -3.8964   19.0178 H   0  0  0  0  0  0
    2.8342   -1.5912   20.5147 H   0  0  0  0  0  0
    4.4852   -1.3517   21.0318 H   0  0  0  0  0  0
    4.7261   -7.8261   19.8681 H   0  0  0  0  0  0
    5.3813   -5.7358   23.5754 H   0  0  0  0  0  0
    7.3908   -4.8453   21.4389 H   0  0  0  0  0  0
    4.6565   -1.9749   23.1218 H   0  0  0  0  0  0
    5.7113   -9.8584   20.8567 H   0  0  0  0  0  0
    6.3695   -7.7703   24.5379 H   0  0  0  0  0  0
    9.1246   -3.9803   22.9973 H   0  0  0  0  0  0
    6.5163   -1.1750   24.5756 H   0  0  0  0  0  0
    4.4378   -2.1774   18.1951 H   0  0  0  0  0  0
    3.3819   -0.8410   18.4256 H   0  0  0  0  0  0
    6.3366   -0.8826   19.2222 H   0  0  0  0  0  0
    5.6663   -0.0538   17.8169 H   0  0  0  0  0  0
  1 18  1  0  0  0
  2 22  1  0  0  0
  2 23  1  0  0  0
  3  6  1  0  0  0
  3 10  1  0  0  0
  3 11  1  0  0  0
  4  7  1  0  0  0
  4 10  2  0  0  0
  5 19  2  0  0  0
  5 20  1  0  0  0
  6  7  2  0  0  0
  6  8  1  0  0  0
  7  9  1  0  0  0
  8 14  2  0  0  0
  8 15  1  0  0  0
  9 12  2  0  0  0
  9 13  1  0  0  0
 10 24  1  0  0  0
 11 21  1  0  0  0
 11 25  1  0  0  0
 11 26  1  0  0  0
 12 16  1  0  0  0
 12 27  1  0  0  0
 13 17  2  0  0  0
 13 28  1  0  0  0
 14 19  1  0  0  0
 14 29  1  0  0  0
 15 20  2  0  0  0
 15 30  1  0  0  0
 16 18  2  0  0  0
 16 31  1  0  0  0
 17 18  1  0  0  0
 17 32  1  0  0  0
 19 33  1  0  0  0
 20 34  1  0  0  0
 21 22  1  0  0  0
 21 35  1  0  0  0
 21 36  1  0  0  0
 22 37  1  0  0  0
 22 38  1  0  0  0
M  END
> <s_m_entry_id>
5738

> <s_m_entry_name>
dock_pv.133

> <s_m_Source_Path>
/home/csk/Desktop/cluster/DUD-E-result/igf1r

> <s_m_Source_File>
dock_pv.maegz

> <i_m_Source_File_Index>
133

> <chembl_id>
CHEMBL2004871

> <chembl_pref_name>
None

> <i_lp_mmshare_version>
53161

> <r_lp_tautomer_probability>
1

> <s_lp_Force_Field>
OPLS_2005

> <r_lp_Energy>
14.272103

> <b_lp_Chiralities_Consistent>
1

> <s_lp_Variant>
CHEMBL1957_lig2901-1

> <s_i_glide_gridfile>
glide-grid_2oj9

> <i_i_glide_lignum>
4011

> <i_i_glide_rotatable_bonds>
6

> <r_i_docking_score>
-7.41417764446056

> <r_i_glide_ligand_efficiency>
-0.337008074748207

> <r_i_glide_ligand_efficiency_sa>
-0.94430987921996

> <r_i_glide_ligand_efficiency_ln>
-1.81229545500666

> <r_i_glide_gscore>
-7.41417764446056

> <r_i_glide_lipo>
-3.32363552906699

> <r_i_glide_hbond>
-0.16

> <r_i_glide_metal>
0

> <r_i_glide_rewards>
-2.15559916259961

> <r_i_glide_evdw>
-31.9634552001953

> <r_i_glide_ecoul>
-5.99375152587891

> <r_i_glide_erotb>
0.725858726810796

> <r_i_glide_esite>
-0.00356619071314836

> <r_i_glide_emodel>
-53.5949689439427

> <r_i_glide_energy>
-37.9572067260742

> <r_i_glide_einternal>
5.04195070266724

> <i_i_glide_confnum>
121

> <i_i_glide_posenum>
271

> <r_i_glide_eff_state_penalty>
0

> <s_user_duplicate_titles>
CHEMBL1957_lig2901

> <i_f3d_flags>
0

> <s_m_subgroup_title>
dock_pv

> <s_m_subgroupid>
dock_pv

> <b_m_subgroup_collapsed>
1

$$$$
CHEMBL1957_lig3230
                    3D
 Schrodinger Suite 2021-1.
 44 47  0  0  1  0            999 V2000
    6.3995   -0.8515   23.4162 O   0  0  0  0  0  0
    4.4714   -8.7035   19.9170 O   0  0  0  0  0  0
    5.0434  -11.2177   20.8587 O   0  0  0  0  0  0
    8.4052   -2.4578   24.6390 N   0  0  0  0  0  0
    9.2368   -3.3813   25.1511 N   0  0  0  0  0  0
    5.8703   -2.6732   22.1247 N   0  0  0  0  0  0
    7.5727   -4.3440   23.8552 C   0  0  0  0  0  0
    7.4047   -2.9234   23.8194 C   0  0  0  0  0  0
    8.7555   -4.5451   24.6251 C   0  0  0  0  0  0
    7.4529   -6.7382   23.4178 C   0  0  0  0  0  0
    6.9047   -5.4523   23.3064 C   0  0  0  0  0  0
    6.7842   -7.9118   22.7582 C   0  0  0  0  0  0
    6.5001   -2.0470   23.1339 C   0  0  0  0  0  0
    9.2939   -5.8288   24.7612 C   0  0  0  0  0  0
    8.6486   -6.8946   24.1355 C   0  0  0  0  0  0
    5.9460   -7.7442   21.6416 C   0  0  0  0  0  0
    5.3193   -8.8312   21.0057 C   0  0  0  0  0  0
    6.9855   -9.2187   23.2254 C   0  0  0  0  0  0
    5.5900  -10.1217   21.4740 C   0  0  0  0  0  0
    6.4150  -10.3117   22.5790 C   0  0  0  0  0  0
    5.2169   -2.1150   21.0238 C   0  0  0  0  0  0
    4.2253   -2.8945   20.4247 C   0  0  0  0  0  0
    5.5943   -0.8886   20.4608 C   0  0  0  0  0  0
    3.6042   -2.4522   19.2615 C   0  0  0  0  0  0
    4.9726   -0.4503   19.2961 C   0  0  0  0  0  0
    4.0359   -7.4023   19.5328 C   0  0  0  0  0  0
    3.9891   -1.2387   18.7005 C   0  0  0  0  0  0
    4.6023  -10.9913   20.0351 H   0  0  0  0  0  0
    8.5771   -1.4705   24.8019 H   0  0  0  0  0  0
    5.9887   -3.6726   22.0874 H   0  0  0  0  0  0
    5.9791   -5.3038   22.7761 H   0  0  0  0  0  0
   10.2016   -5.9936   25.3217 H   0  0  0  0  0  0
    9.1104   -7.8661   24.2206 H   0  0  0  0  0  0
    5.7950   -6.7547   21.2450 H   0  0  0  0  0  0
    7.5976   -9.4089   24.0933 H   0  0  0  0  0  0
    6.5954  -11.3099   22.9492 H   0  0  0  0  0  0
    3.9426   -3.8488   20.8447 H   0  0  0  0  0  0
    6.3843   -0.2897   20.8908 H   0  0  0  0  0  0
    2.8404   -3.0509   18.7869 H   0  0  0  0  0  0
    5.2676    0.4888   18.8491 H   0  0  0  0  0  0
    3.2250   -7.4911   18.8115 H   0  0  0  0  0  0
    3.6411   -6.8265   20.3725 H   0  0  0  0  0  0
    4.8458   -6.8542   19.0521 H   0  0  0  0  0  0
    3.5101   -0.8973   17.7955 H   0  0  0  0  0  0
  1 13  2  0  0  0
  2 17  1  0  0  0
  2 26  1  0  0  0
  3 19  1  0  0  0
  3 28  1  0  0  0
  4 29  1  0  0  0
  4  5  1  0  0  0
  4  8  1  0  0  0
  5  9  2  0  0  0
  6 13  1  0  0  0
  6 21  1  0  0  0
  6 30  1  0  0  0
  7 11  1  0  0  0
  7  9  1  0  0  0
  7  8  2  0  0  0
  8 13  1  0  0  0
  9 14  1  0  0  0
 10 15  1  0  0  0
 10 12  1  0  0  0
 10 11  2  0  0  0
 11 31  1  0  0  0
 12 16  1  0  0  0
 12 18  2  0  0  0
 14 32  1  0  0  0
 14 15  2  0  0  0
 15 33  1  0  0  0
 16 17  2  0  0  0
 16 34  1  0  0  0
 17 19  1  0  0  0
 18 20  1  0  0  0
 18 35  1  0  0  0
 19 20  2  0  0  0
 20 36  1  0  0  0
 21 22  2  0  0  0
 21 23  1  0  0  0
 22 24  1  0  0  0
 22 37  1  0  0  0
 23 25  2  0  0  0
 23 38  1  0  0  0
 24 27  2  0  0  0
 24 39  1  0  0  0
 25 27  1  0  0  0
 25 40  1  0  0  0
 26 41  1  0  0  0
 26 42  1  0  0  0
 26 43  1  0  0  0
 27 44  1  0  0  0
M  END
> <s_m_entry_id>
5739

> <s_m_entry_name>
dock_pv.134

> <s_m_Source_Path>
/home/csk/Desktop/cluster/DUD-E-result/igf1r

> <s_m_Source_File>
dock_pv.maegz

> <i_m_Source_File_Index>
134

> <chembl_id>
CHEMBL2007002

> <chembl_pref_name>
None

> <i_lp_mmshare_version>
53161

> <r_lp_tautomer_probability>
0.0196078431372549

> <s_lp_Force_Field>
OPLS_2005

> <r_lp_Energy>
47.353475

> <b_lp_Chiralities_Consistent>
1

> <s_lp_Variant>
CHEMBL1957_lig3230-2

> <s_i_glide_gridfile>
glide-grid_2oj9

> <i_i_glide_lignum>
4502

> <i_i_glide_rotatable_bonds>
6

> <r_i_docking_score>
-7.41385632040217

> <r_i_glide_ligand_efficiency>
-0.274587271126006

> <r_i_glide_ligand_efficiency_sa>
-0.823761812473024

> <r_i_glide_ligand_efficiency_ln>
-1.72582352441563

> <r_i_glide_gscore>
-7.41385632040217

> <r_i_glide_lipo>
-3.47384382714394

> <r_i_glide_hbond>
-0.32

> <r_i_glide_metal>
0

> <r_i_glide_rewards>
-1.52250143184809

> <r_i_glide_evdw>
-45.6105194091797

> <r_i_glide_ecoul>
-2.50904655456543

> <r_i_glide_erotb>
0.593614415198765

> <r_i_glide_esite>
-0.0342425229651091

> <r_i_glide_emodel>
-56.3654467664319

> <r_i_glide_energy>
-48.1195659637451

> <r_i_glide_einternal>
20.7573089599609

> <i_i_glide_confnum>
7

> <i_i_glide_posenum>
260

> <r_i_glide_eff_state_penalty>
0

> <s_user_duplicate_titles>
CHEMBL1957_lig3230,CHEMBL1957_lig3230

> <i_f3d_flags>
0

> <s_m_subgroup_title>
dock_pv

> <s_m_subgroupid>
dock_pv

> <b_m_subgroup_collapsed>
1

$$$$
CHEMBL1957_lig1990
                    3D
 Schrodinger Suite 2021-1.
 38 39  0  0  1  0            999 V2000
    5.6851    0.7461   20.7371 O   0  0  0  0  0  0
    5.5342   -0.6113   20.7183 C   0  0  0  0  0  0
    6.0184   -1.3645   21.7829 C   0  0  0  0  0  0
    5.6796   -2.7116   21.8815 C   0  0  0  0  0  0
    4.8364   -3.3119   20.9361 C   0  0  0  0  0  0
    4.4872   -4.7428   21.0383 C   0  0  0  0  0  0
    5.2984   -5.7030   21.5338 C   0  0  0  0  0  0
    5.0017   -7.0995   21.5900 C   0  0  0  0  0  0
    4.4381   -7.9020   20.2403 S   0  0  0  0  0  0
    5.2379   -7.7837   22.7437 N   0  0  0  0  0  0
    5.5644   -7.1817   24.0474 C   0  0  0  0  0  0
    6.9505   -6.5759   24.1372 C   0  0  0  0  0  0
    8.0817   -7.3832   24.0319 C   0  0  0  0  0  0
    9.3447   -6.8053   23.9564 C   0  0  0  0  0  0
   10.4345   -7.6261   23.8393 O   0  0  0  0  0  0
    9.4790   -5.4079   23.9552 C   0  0  0  0  0  0
   10.7131   -4.8544   23.7277 O   0  0  0  0  0  0
    8.3504   -4.6020   24.1601 C   0  0  0  0  0  0
    8.4326   -3.2321   24.2210 O   0  0  0  0  0  0
    7.0964   -5.1948   24.2829 C   0  0  0  0  0  0
    4.3942   -2.5521   19.8375 C   0  0  0  0  0  0
    3.3054   -3.3353   18.4693 Br  0  0  0  0  0  0
    4.7722   -1.2072   19.7191 C   0  0  0  0  0  0
    4.4065   -0.4540   18.6340 O   0  0  0  0  0  0
    6.2097    1.1375   20.0195 H   0  0  0  0  0  0
    6.6208   -0.9020   22.5500 H   0  0  0  0  0  0
    6.0611   -3.2714   22.7174 H   0  0  0  0  0  0
    3.5053   -5.0181   20.6742 H   0  0  0  0  0  0
    6.2734   -5.4381   21.8984 H   0  0  0  0  0  0
    5.0285   -8.7723   22.7431 H   0  0  0  0  0  0
    4.8068   -6.4581   24.3400 H   0  0  0  0  0  0
    5.5167   -7.9856   24.7780 H   0  0  0  0  0  0
    7.9826   -8.4585   23.9644 H   0  0  0  0  0  0
   11.0957   -7.2540   23.2274 H   0  0  0  0  0  0
   10.7376   -3.9333   23.4351 H   0  0  0  0  0  0
    9.3258   -2.8981   24.0973 H   0  0  0  0  0  0
    6.2254   -4.5766   24.4353 H   0  0  0  0  0  0
    4.7994    0.4210   18.6381 H   0  0  0  0  0  0
  1  2  1  0  0  0
  1 25  1  0  0  0
  2  3  2  0  0  0
  2 23  1  0  0  0
  3  4  1  0  0  0
  3 26  1  0  0  0
  4  5  2  0  0  0
  4 27  1  0  0  0
  5  6  1  0  0  0
  5 21  1  0  0  0
  6  7  2  0  0  0
  6 28  1  0  0  0
  7  8  1  0  0  0
  7 29  1  0  0  0
  8  9  2  0  0  0
  8 10  1  0  0  0
 10 11  1  0  0  0
 10 30  1  0  0  0
 11 12  1  0  0  0
 11 31  1  0  0  0
 11 32  1  0  0  0
 12 13  2  0  0  0
 12 20  1  0  0  0
 13 14  1  0  0  0
 13 33  1  0  0  0
 14 15  1  0  0  0
 14 16  2  0  0  0
 15 34  1  0  0  0
 16 17  1  0  0  0
 16 18  1  0  0  0
 17 35  1  0  0  0
 18 19  1  0  0  0
 18 20  2  0  0  0
 19 36  1  0  0  0
 20 37  1  0  0  0
 21 22  1  0  0  0
 21 23  2  0  0  0
 23 24  1  0  0  0
 24 38  1  0  0  0
M  END
> <s_m_entry_id>
5740

> <s_m_entry_name>
dock_pv.135

> <s_m_Source_Path>
/home/csk/Desktop/cluster/DUD-E-result/igf1r

> <s_m_Source_File>
dock_pv.maegz

> <i_m_Source_File_Index>
135

> <chembl_id>
CHEMBL3679680

> <chembl_pref_name>
None

> <i_lp_mmshare_version>
53161

> <r_lp_tautomer_probability>
0.999999999957461

> <s_lp_Force_Field>
OPLS_2005

> <r_lp_Energy>
19.430357

> <b_lp_Chiralities_Consistent>
1

> <s_lp_Variant>
CHEMBL1957_lig1990-1

> <s_i_glide_gridfile>
glide-grid_2oj9

> <i_i_glide_lignum>
2888

> <i_i_glide_rotatable_bonds>
10

> <r_i_docking_score>
-7.41004092667844

> <r_i_glide_ligand_efficiency>
-0.308751705278268

> <r_i_glide_ligand_efficiency_sa>
-0.890594027595072

> <r_i_glide_ligand_efficiency_ln>
-1.77356281837597

> <r_i_glide_gscore>
-7.41004092667844

> <r_i_glide_lipo>
-2.50467498938011

> <r_i_glide_hbond>
0

> <r_i_glide_metal>
0

> <r_i_glide_rewards>
-1.55918758352481

> <r_i_glide_evdw>
-29.8630809783936

> <r_i_glide_ecoul>
-15.0604982376099

> <r_i_glide_erotb>
0.406050430787638

> <r_i_glide_esite>
0

> <r_i_glide_emodel>
-60.1574131352758

> <r_i_glide_energy>
-44.9235792160034

> <r_i_glide_einternal>
13.5296649932861

> <i_i_glide_confnum>
156

> <i_i_glide_posenum>
333

> <r_i_glide_eff_state_penalty>
0

> <s_user_duplicate_titles>
CHEMBL1957_lig1990

> <i_f3d_flags>
0

> <s_m_subgroup_title>
dock_pv

> <s_m_subgroupid>
dock_pv

> <b_m_subgroup_collapsed>
1

$$$$
CHEMBL1957_lig1988
                    3D
 Schrodinger Suite 2021-1.
 41 42  0  0  1  0            999 V2000
    3.1866   -5.0724   20.2404 C   0  0  0  0  0  0
    4.4649   -4.7419   21.0005 C   0  0  0  0  0  0
    5.2307   -5.6553   21.6582 C   0  0  0  0  0  0
    5.0847   -7.0798   21.7788 C   0  0  0  0  0  0
    4.8351   -8.0636   20.4672 S   0  0  0  0  0  0
    5.2425   -7.6688   22.9998 N   0  0  0  0  0  0
    5.5869   -6.9763   24.2435 C   0  0  0  0  0  0
    7.0003   -6.4295   24.2661 C   0  0  0  0  0  0
    7.2046   -5.0584   24.3954 C   0  0  0  0  0  0
    8.4692   -4.5169   24.2015 C   0  0  0  0  0  0
    8.5936   -3.1537   24.2385 O   0  0  0  0  0  0
    9.5588   -5.3629   23.9513 C   0  0  0  0  0  0
   10.7979   -4.8544   23.6572 O   0  0  0  0  0  0
    9.3765   -6.7521   23.9795 C   0  0  0  0  0  0
   10.4366   -7.6105   23.8381 O   0  0  0  0  0  0
    8.0953   -7.2816   24.1136 C   0  0  0  0  0  0
    4.8333   -3.2972   21.0133 C   0  0  0  0  0  0
    4.6262   -2.4965   19.8800 C   0  0  0  0  0  0
    5.0519   -1.1702   19.8405 C   0  0  0  0  0  0
    4.8399   -0.4538   18.6896 O   0  0  0  0  0  0
    5.6380   -0.5986   20.9779 C   0  0  0  0  0  0
    5.8838    0.7460   21.0375 O   0  0  0  0  0  0
    5.8159   -1.3713   22.1292 C   0  0  0  0  0  0
    6.4400   -0.5951   23.7564 Br  0  0  0  0  0  0
    5.4429   -2.7107   22.1284 C   0  0  0  0  0  0
    3.3779   -5.1255   19.1691 H   0  0  0  0  0  0
    2.7649   -6.0207   20.5523 H   0  0  0  0  0  0
    2.4398   -4.3046   20.4243 H   0  0  0  0  0  0
    6.1072   -5.2951   22.1609 H   0  0  0  0  0  0
    5.1130   -8.6692   23.0539 H   0  0  0  0  0  0
    4.8409   -6.2172   24.4860 H   0  0  0  0  0  0
    5.5393   -7.7139   25.0375 H   0  0  0  0  0  0
    6.3708   -4.4075   24.6009 H   0  0  0  0  0  0
    9.4366   -2.8392   23.8949 H   0  0  0  0  0  0
   10.8368   -3.9133   23.4318 H   0  0  0  0  0  0
   11.1033   -7.2603   23.2185 H   0  0  0  0  0  0
    7.9524   -8.3513   24.0623 H   0  0  0  0  0  0
    4.1757   -2.9138   18.9910 H   0  0  0  0  0  0
    5.3066    0.3856   18.6465 H   0  0  0  0  0  0
    6.3133    1.1684   20.2750 H   0  0  0  0  0  0
    5.5853   -3.2769   23.0308 H   0  0  0  0  0  0
  1  2  1  0  0  0
  1 26  1  0  0  0
  1 27  1  0  0  0
  1 28  1  0  0  0
  2  3  2  0  0  0
  2 17  1  0  0  0
  3  4  1  0  0  0
  3 29  1  0  0  0
  4  5  2  0  0  0
  4  6  1  0  0  0
  6  7  1  0  0  0
  6 30  1  0  0  0
  7  8  1  0  0  0
  7 31  1  0  0  0
  7 32  1  0  0  0
  8  9  2  0  0  0
  8 16  1  0  0  0
  9 10  1  0  0  0
  9 33  1  0  0  0
 10 11  1  0  0  0
 10 12  2  0  0  0
 11 34  1  0  0  0
 12 13  1  0  0  0
 12 14  1  0  0  0
 13 35  1  0  0  0
 14 15  1  0  0  0
 14 16  2  0  0  0
 15 36  1  0  0  0
 16 37  1  0  0  0
 17 18  2  0  0  0
 17 25  1  0  0  0
 18 19  1  0  0  0
 18 38  1  0  0  0
 19 20  1  0  0  0
 19 21  2  0  0  0
 20 39  1  0  0  0
 21 22  1  0  0  0
 21 23  1  0  0  0
 22 40  1  0  0  0
 23 24  1  0  0  0
 23 25  2  0  0  0
 25 41  1  0  0  0
M  END
> <s_m_entry_id>
5741

> <s_m_entry_name>
dock_pv.136

> <s_m_Source_Path>
/home/csk/Desktop/cluster/DUD-E-result/igf1r

> <s_m_Source_File>
dock_pv.maegz

> <i_m_Source_File_Index>
136

> <chembl_id>
CHEMBL3679688

> <chembl_pref_name>
None

> <i_lp_mmshare_version>
53161

> <r_lp_tautomer_probability>
0.999999999957461

> <s_lp_Force_Field>
OPLS_2005

> <r_lp_Energy>
23.609602

> <b_lp_Chiralities_Consistent>
1

> <s_lp_Variant>
CHEMBL1957_lig1988-1

> <s_i_glide_gridfile>
glide-grid_2oj9

> <i_i_glide_lignum>
2886

> <i_i_glide_rotatable_bonds>
10

> <r_i_docking_score>
-7.39072026361659

> <r_i_glide_ligand_efficiency>
-0.295628810544664

> <r_i_glide_ligand_efficiency_sa>
-0.864423885031876

> <r_i_glide_ligand_efficiency_ln>
-1.75182218449093

> <r_i_glide_gscore>
-7.39072026361659

> <r_i_glide_lipo>
-2.34422874468831

> <r_i_glide_hbond>
0

> <r_i_glide_metal>
0

> <r_i_glide_rewards>
-1.36266100698357

> <r_i_glide_evdw>
-26.6831474304199

> <r_i_glide_ecoul>
-18.2126445770264

> <r_i_glide_erotb>
0.382223546130243

> <r_i_glide_esite>
0

> <r_i_glide_emodel>
-55.8712029553771

> <r_i_glide_energy>
-44.8957920074463

> <r_i_glide_einternal>
13.2031803131104

> <i_i_glide_confnum>
40

> <i_i_glide_posenum>
68

> <r_i_glide_eff_state_penalty>
0

> <s_user_duplicate_titles>
CHEMBL1957_lig1988

> <i_f3d_flags>
0

> <s_m_subgroup_title>
dock_pv

> <s_m_subgroupid>
dock_pv

> <b_m_subgroup_collapsed>
1

$$$$
CHEMBL1957_lig3264
                    3D
 Schrodinger Suite 2021-1.
 29 31  0  0  1  0            999 V2000
    3.2380   -5.1017   20.1883 Cl  0  0  0  0  0  0
    6.2292   -8.0540   23.7852 S   0  0  0  0  0  0
    6.0380    0.3792   21.5749 O   0  0  0  0  0  0
    6.3636   -2.3795   22.0579 N   0  0  0  0  0  0
    5.1447   -0.0812   19.5911 N   0  0  0  0  0  0
    4.5503   -2.7367   20.4749 C   0  0  0  0  0  0
    5.3358   -4.5778   21.8860 C   0  0  0  0  0  0
    5.5149   -1.9369   21.0988 C   0  0  0  0  0  0
    4.4380   -4.0686   20.8990 C   0  0  0  0  0  0
    6.2946   -3.6775   22.4400 C   0  0  0  0  0  0
    5.6380   -0.4674   20.7858 C   0  0  0  0  0  0
    5.3350   -5.9251   22.3397 C   0  0  0  0  0  0
    3.6960   -2.1053   19.3778 C   0  0  0  0  0  0
    7.2050   -4.1327   23.4210 C   0  0  0  0  0  0
    6.2536   -6.3537   23.2966 C   0  0  0  0  0  0
    7.1751   -5.4586   23.8388 C   0  0  0  0  0  0
    4.4865   -0.9934   18.6380 C   0  0  0  0  0  0
    7.6052   -8.3523   24.9319 C   0  0  0  0  0  0
    5.2741    0.8936   19.3467 H   0  0  0  0  0  0
    4.6245   -6.6287   21.9313 H   0  0  0  0  0  0
    2.7896   -1.6885   19.8181 H   0  0  0  0  0  0
    3.3574   -2.8419   18.6484 H   0  0  0  0  0  0
    7.9305   -3.4476   23.8381 H   0  0  0  0  0  0
    7.8851   -5.7755   24.5873 H   0  0  0  0  0  0
    5.2350   -1.4184   17.9724 H   0  0  0  0  0  0
    3.8134   -0.4540   17.9735 H   0  0  0  0  0  0
    7.6380   -9.4047   25.2130 H   0  0  0  0  0  0
    8.5565   -8.0946   24.4657 H   0  0  0  0  0  0
    7.4832   -7.7587   25.8380 H   0  0  0  0  0  0
  1  9  1  0  0  0
  2 15  1  0  0  0
  2 18  1  0  0  0
  3 11  2  0  0  0
  4  8  2  0  0  0
  4 10  1  0  0  0
  5 11  1  0  0  0
  5 17  1  0  0  0
  5 19  1  0  0  0
  6  8  1  0  0  0
  6  9  2  0  0  0
  6 13  1  0  0  0
  7  9  1  0  0  0
  7 10  1  0  0  0
  7 12  2  0  0  0
  8 11  1  0  0  0
 10 14  2  0  0  0
 12 15  1  0  0  0
 12 20  1  0  0  0
 13 17  1  0  0  0
 13 21  1  0  0  0
 13 22  1  0  0  0
 14 16  1  0  0  0
 14 23  1  0  0  0
 15 16  2  0  0  0
 16 24  1  0  0  0
 17 25  1  0  0  0
 17 26  1  0  0  0
 18 27  1  0  0  0
 18 28  1  0  0  0
 18 29  1  0  0  0
M  END
> <s_m_entry_id>
5742

> <s_m_entry_name>
dock_pv.137

> <s_m_Source_Path>
/home/csk/Desktop/cluster/DUD-E-result/igf1r

> <s_m_Source_File>
dock_pv.maegz

> <i_m_Source_File_Index>
137

> <chembl_id>
CHEMBL1985074

> <chembl_pref_name>
None

> <i_lp_mmshare_version>
53161

> <r_lp_tautomer_probability>
1

> <s_lp_Force_Field>
OPLS_2005

> <r_lp_Energy>
19.621299

> <b_lp_Chiralities_Consistent>
1

> <s_lp_Variant>
CHEMBL1957_lig3264-1

> <s_i_glide_gridfile>
glide-grid_2oj9

> <i_i_glide_lignum>
4573

> <i_i_glide_rotatable_bonds>
1

> <r_i_docking_score>
-7.39017197106081

> <r_i_glide_ligand_efficiency>
-0.410565109503378

> <r_i_glide_ligand_efficiency_sa>
-1.07598497645675

> <r_i_glide_ligand_efficiency_ln>
-1.89960559837533

> <r_i_glide_gscore>
-7.39017197106081

> <r_i_glide_lipo>
-2.86547408326503

> <r_i_glide_hbond>
-0.0390644059756147

> <r_i_glide_metal>
0

> <r_i_glide_rewards>
-2.47013525757576

> <r_i_glide_evdw>
-29.248987197876

> <r_i_glide_ecoul>
-3.55890202522278

> <r_i_glide_erotb>
0

> <r_i_glide_esite>
-0.0192135605671962

> <r_i_glide_emodel>
-47.4747765655633

> <r_i_glide_energy>
-32.8078892230988

> <r_i_glide_einternal>
0.0879573076963425

> <i_i_glide_confnum>
1

> <i_i_glide_posenum>
82

> <r_i_glide_eff_state_penalty>
0

> <s_user_duplicate_titles>
CHEMBL1957_lig3264

> <i_f3d_flags>
0

> <s_m_subgroup_title>
dock_pv

> <s_m_subgroupid>
dock_pv

> <b_m_subgroup_collapsed>
1

$$$$
CHEMBL1957_lig2988
                    3D
 Schrodinger Suite 2021-1.
 38 41  0  0  1  0            999 V2000
    5.8466   -3.8183   22.1823 C   0  0  0  0  0  0
    6.4017   -3.0460   23.2112 C   0  0  0  0  0  0
    6.4814   -1.6559   23.1312 C   0  0  0  0  0  0
    5.3475   -3.1806   21.0380 C   0  0  0  0  0  0
    5.4876   -1.7989   20.8940 C   0  0  0  0  0  0
    6.0380   -1.0290   21.9589 C   0  0  0  0  0  0
    5.6380    0.3460   20.3876 N   0  0  0  0  0  0
    5.2328   -0.8539   19.8664 C   0  0  0  0  0  0
    5.8259   -5.3241   22.2413 C   0  0  0  0  0  0
    5.0213   -6.0044   21.4380 N   0  0  0  0  0  0
    6.6269   -6.1814   23.0245 C   0  0  0  0  0  0
    6.3294   -7.4565   22.5951 N   0  0  0  0  0  0
    5.3475   -7.3053   21.6025 C   0  0  0  0  0  0
    4.8491   -8.3522   20.9283 N   0  0  0  0  0  0
    5.3323   -9.5827   21.2517 C   0  0  0  0  0  0
    6.2935   -9.8055   22.2380 C   0  0  0  0  0  0
    6.7999   -8.7035   22.9249 C   0  0  0  0  0  0
    8.9890   -5.5992   23.7742 C   0  0  0  0  0  0
    9.3416   -5.2313   22.3183 C   0  0  0  0  0  0
    9.9197   -6.6988   24.3073 C   0  0  0  0  0  0
    6.0380    0.3040   21.6701 N   0  0  0  0  0  0
    7.5856   -5.9502   23.9853 N   0  0  0  0  0  0
    6.7739   -3.5227   24.1043 H   0  0  0  0  0  0
    6.9069   -1.0825   23.9419 H   0  0  0  0  0  0
    4.9038   -3.7490   20.2380 H   0  0  0  0  0  0
    4.8757   -0.9242   18.8492 H   0  0  0  0  0  0
    4.9162  -10.4133   20.6985 H   0  0  0  0  0  0
    6.6320  -10.8068   22.4640 H   0  0  0  0  0  0
    7.5529   -8.7612   23.6976 H   0  0  0  0  0  0
    9.1626   -4.7033   24.3727 H   0  0  0  0  0  0
   10.3826   -4.9147   22.2380 H   0  0  0  0  0  0
    9.1987   -6.0756   21.6428 H   0  0  0  0  0  0
    8.7318   -4.4045   21.9544 H   0  0  0  0  0  0
   10.9657   -6.3968   24.2378 H   0  0  0  0  0  0
    9.7151   -6.9196   25.3556 H   0  0  0  0  0  0
    9.8087   -7.6249   23.7419 H   0  0  0  0  0  0
    5.6921    1.2104   19.8527 H   0  0  0  0  0  0
    7.3608   -6.0548   24.9668 H   0  0  0  0  0  0
  1  2  1  0  0  0
  1  9  1  0  0  0
  1  4  2  0  0  0
  2  3  2  0  0  0
  2 23  1  0  0  0
  3  6  1  0  0  0
  3 24  1  0  0  0
  4 25  1  0  0  0
  4  5  1  0  0  0
  5  6  1  0  0  0
  5  8  2  0  0  0
  6 21  2  0  0  0
  7 37  1  0  0  0
  7 21  1  0  0  0
  7  8  1  0  0  0
  8 26  1  0  0  0
  9 10  1  0  0  0
  9 11  2  0  0  0
 10 13  2  0  0  0
 11 12  1  0  0  0
 11 22  1  0  0  0
 12 13  1  0  0  0
 12 17  1  0  0  0
 13 14  1  0  0  0
 14 15  2  0  0  0
 15 16  1  0  0  0
 15 27  1  0  0  0
 16 17  2  0  0  0
 16 28  1  0  0  0
 17 29  1  0  0  0
 18 19  1  0  0  0
 18 20  1  0  0  0
 18 22  1  0  0  0
 18 30  1  0  0  0
 19 31  1  0  0  0
 19 32  1  0  0  0
 19 33  1  0  0  0
 20 34  1  0  0  0
 20 35  1  0  0  0
 20 36  1  0  0  0
 22 38  1  0  0  0
M  END
> <s_m_entry_id>
5743

> <s_m_entry_name>
dock_pv.138

> <s_m_Source_Path>
/home/csk/Desktop/cluster/DUD-E-result/igf1r

> <s_m_Source_File>
dock_pv.maegz

> <i_m_Source_File_Index>
138

> <chembl_id>
CHEMBL1682553

> <chembl_pref_name>
None

> <i_lp_mmshare_version>
53161

> <r_lp_tautomer_probability>
0.0196078431372549

> <s_lp_Force_Field>
OPLS_2005

> <r_lp_Energy>
32.711049

> <b_lp_Chiralities_Consistent>
1

> <s_lp_Variant>
CHEMBL1957_lig2988-2

> <s_i_glide_gridfile>
glide-grid_2oj9

> <i_i_glide_lignum>
4139

> <i_i_glide_rotatable_bonds>
3

> <r_i_docking_score>
-7.37949323748484

> <r_i_glide_ligand_efficiency>
-0.335431510794765

> <r_i_glide_ligand_efficiency_sa>
-0.939892285019674

> <r_i_glide_ligand_efficiency_ln>
-1.80381732079731

> <r_i_glide_gscore>
-7.37949323748484

> <r_i_glide_lipo>
-2.31802855888004

> <r_i_glide_hbond>
-0.175465136198398

> <r_i_glide_metal>
0

> <r_i_glide_rewards>
-2.81089141591811

> <r_i_glide_evdw>
-32.5739402770996

> <r_i_glide_ecoul>
-4.49739074707031

> <r_i_glide_erotb>
0.299052428834395

> <r_i_glide_esite>
-0.0708549294071537

> <r_i_glide_emodel>
-52.4610092937128

> <r_i_glide_energy>
-37.0713310241699

> <r_i_glide_einternal>
2.60998463630676

> <i_i_glide_confnum>
7

> <i_i_glide_posenum>
44

> <r_i_glide_eff_state_penalty>
0

> <s_user_duplicate_titles>
CHEMBL1957_lig2988

> <i_f3d_flags>
0

> <s_m_subgroup_title>
dock_pv

> <s_m_subgroupid>
dock_pv

> <b_m_subgroup_collapsed>
1

$$$$
CHEMBL1957_lig3172
                    3D
 Schrodinger Suite 2021-1.
 33 36  0  0  1  0            999 V2000
    6.2296   -6.9017   22.6265 C   0  0  0  0  0  0
    6.6333   -7.9323   23.4840 C   0  0  0  0  0  0
    6.4477   -9.2762   23.1627 C   0  0  0  0  0  0
    5.5637   -7.2165   21.4320 C   0  0  0  0  0  0
    5.3844   -8.5590   21.0749 C   0  0  0  0  0  0
    5.8454   -9.5965   21.9394 C   0  0  0  0  0  0
    5.0530  -10.5807   20.2381 N   0  0  0  0  0  0
    4.8380   -9.2539   19.9681 C   0  0  0  0  0  0
    6.5637   -5.4729   22.9556 C   0  0  0  0  0  0
    6.0506   -4.4856   22.2370 N   0  0  0  0  0  0
    7.4414   -5.0320   23.9525 C   0  0  0  0  0  0
    7.6370   -3.3086   23.8646 S   0  0  0  0  0  0
    6.4894   -3.2995   22.5787 C   0  0  0  0  0  0
    5.3511   -1.8456   20.8932 C   0  0  0  0  0  0
    5.6361   -0.7226   20.1171 C   0  0  0  0  0  0
    4.8900   -0.4542   18.9767 C   0  0  0  0  0  0
    3.8245   -1.2836   18.6367 C   0  0  0  0  0  0
    3.4972   -2.3785   19.4313 C   0  0  0  0  0  0
    4.2602   -2.6605   20.5612 C   0  0  0  0  0  0
    6.1990   -2.0957   21.9829 N   0  0  0  0  0  0
    5.6337  -10.8429   21.4193 N   0  0  0  0  0  0
    7.1271   -7.6983   24.4149 H   0  0  0  0  0  0
    6.7856  -10.0539   23.8322 H   0  0  0  0  0  0
    5.2381   -6.4389   20.7573 H   0  0  0  0  0  0
    4.3729   -8.9514   19.0417 H   0  0  0  0  0  0
    7.9990   -5.6092   24.6761 H   0  0  0  0  0  0
    6.4600   -0.0694   20.3620 H   0  0  0  0  0  0
    5.1614    0.3851   18.3538 H   0  0  0  0  0  0
    3.2432   -1.0757   17.7504 H   0  0  0  0  0  0
    2.6641   -3.0120   19.1645 H   0  0  0  0  0  0
    3.9955   -3.5137   21.1653 H   0  0  0  0  0  0
    6.8277   -1.3270   22.1568 H   0  0  0  0  0  0
    4.8103  -11.3285   19.5972 H   0  0  0  0  0  0
  1  2  1  0  0  0
  1  9  1  0  0  0
  1  4  2  0  0  0
  2  3  2  0  0  0
  2 22  1  0  0  0
  3  6  1  0  0  0
  3 23  1  0  0  0
  4 24  1  0  0  0
  4  5  1  0  0  0
  5  6  1  0  0  0
  5  8  2  0  0  0
  6 21  2  0  0  0
  7 33  1  0  0  0
  7 21  1  0  0  0
  7  8  1  0  0  0
  8 25  1  0  0  0
  9 10  1  0  0  0
  9 11  2  0  0  0
 10 13  2  0  0  0
 11 12  1  0  0  0
 11 26  1  0  0  0
 12 13  1  0  0  0
 13 20  1  0  0  0
 14 15  2  0  0  0
 14 19  1  0  0  0
 14 20  1  0  0  0
 15 16  1  0  0  0
 15 27  1  0  0  0
 16 17  2  0  0  0
 16 28  1  0  0  0
 17 18  1  0  0  0
 17 29  1  0  0  0
 18 19  2  0  0  0
 18 30  1  0  0  0
 19 31  1  0  0  0
 20 32  1  0  0  0
M  END
> <s_m_entry_id>
5744

> <s_m_entry_name>
dock_pv.139

> <s_m_Source_Path>
/home/csk/Desktop/cluster/DUD-E-result/igf1r

> <s_m_Source_File>
dock_pv.maegz

> <i_m_Source_File_Index>
139

> <chembl_id>
CHEMBL1682545

> <chembl_pref_name>
None

> <i_lp_mmshare_version>
53161

> <r_lp_tautomer_probability>
0.0196078431372549

> <s_lp_Force_Field>
OPLS_2005

> <r_lp_Energy>
27.557258

> <b_lp_Chiralities_Consistent>
1

> <s_lp_Variant>
CHEMBL1957_lig3172-2

> <s_i_glide_gridfile>
glide-grid_2oj9

> <i_i_glide_lignum>
4403

> <i_i_glide_rotatable_bonds>
3

> <r_i_docking_score>
-7.376743175133

> <r_i_glide_ligand_efficiency>
-0.351273484530143

> <r_i_glide_ligand_efficiency_sa>
-0.969136908008331

> <r_i_glide_ligand_efficiency_ln>
-1.82388484393851

> <r_i_glide_gscore>
-7.376743175133

> <r_i_glide_lipo>
-3.50027667858348

> <r_i_glide_hbond>
-0.304607926401448

> <r_i_glide_metal>
0

> <r_i_glide_rewards>
-1.71573218181818

> <r_i_glide_evdw>
-37.7725067138672

> <r_i_glide_ecoul>
-4.05498647689819

> <r_i_glide_erotb>
0.640746918898199

> <r_i_glide_esite>
0

> <r_i_glide_emodel>
-58.6873415646056

> <r_i_glide_energy>
-41.8274931907654

> <r_i_glide_einternal>
1.96338033676147

> <i_i_glide_confnum>
1

> <i_i_glide_posenum>
392

> <r_i_glide_eff_state_penalty>
0

> <s_user_duplicate_titles>
CHEMBL1957_lig3172,CHEMBL1957_lig3172

> <i_f3d_flags>
0

> <s_m_subgroup_title>
dock_pv

> <s_m_subgroupid>
dock_pv

> <b_m_subgroup_collapsed>
1

$$$$
CHEMBL1957_lig570
                    3D
 Schrodinger Suite 2021-1.
 33 34  0  0  1  0            999 V2000
    9.0240   -4.6192   24.6982 C   0  0  0  0  0  0
    9.5138   -5.7415   24.0184 C   0  0  0  0  0  0
    9.2518   -5.8859   22.6624 C   0  0  0  0  0  0
    8.5422   -4.9081   21.9818 C   0  0  0  0  0  0
    8.0262   -3.7887   22.6424 C   0  0  0  0  0  0
    8.2825   -3.6539   24.0138 C   0  0  0  0  0  0
    7.1980   -2.8659   21.8378 C   0  0  0  0  0  0
    6.4830   -1.7678   22.1861 C   0  0  0  0  0  0
    5.6380   -1.1179   21.1748 C   0  0  0  0  0  0
    4.7469   -1.9624   20.3087 C   0  0  0  0  0  0
    5.6706    0.1058   21.0381 O   0  0  0  0  0  0
    6.4363   -1.1755   23.4840 C   0  0  0  0  0  0
    6.3484   -0.6882   24.5305 N   0  0  0  0  0  0
    9.2381   -4.4536   26.0395 O   0  0  0  0  0  0
   10.2716   -6.7012   24.6378 O   0  0  0  0  0  0
    4.2475   -1.4637   19.0950 C   0  0  0  0  0  0
    3.2421   -3.6065   18.6082 C   0  0  0  0  0  0
    3.6374   -4.0773   19.8594 C   0  0  0  0  0  0
    3.5056   -2.2870   18.2461 C   0  0  0  0  0  0
    4.3640   -3.2534   20.7100 C   0  0  0  0  0  0
    3.3512   -5.3626   20.2379 O   0  0  0  0  0  0
    2.6452   -4.4540   17.7186 O   0  0  0  0  0  0
    9.6376   -6.7379   22.1220 H   0  0  0  0  0  0
    8.4087   -5.0445   20.9253 H   0  0  0  0  0  0
    7.9216   -2.8102   24.5760 H   0  0  0  0  0  0
    7.1527   -3.1627   20.7958 H   0  0  0  0  0  0
    8.7739   -5.1311   26.5554 H   0  0  0  0  0  0
   10.7413   -7.2485   24.0004 H   0  0  0  0  0  0
    4.4818   -0.4592   18.7684 H   0  0  0  0  0  0
    3.1797   -1.9137   17.2870 H   0  0  0  0  0  0
    4.6586   -3.6611   21.6665 H   0  0  0  0  0  0
    2.9729   -5.8479   19.4982 H   0  0  0  0  0  0
    2.2997   -3.9767   16.9475 H   0  0  0  0  0  0
  1  6  1  0  0  0
  1  2  2  0  0  0
  1 14  1  0  0  0
  2 15  1  0  0  0
  2  3  1  0  0  0
  3  4  2  0  0  0
  3 23  1  0  0  0
  4  5  1  0  0  0
  4 24  1  0  0  0
  5  6  2  0  0  0
  5  7  1  0  0  0
  6 25  1  0  0  0
  7  8  2  0  0  0
  7 26  1  0  0  0
  8 12  1  0  0  0
  8  9  1  0  0  0
  9 11  2  0  0  0
  9 10  1  0  0  0
 10 16  2  0  0  0
 10 20  1  0  0  0
 12 13  3  0  0  0
 14 27  1  0  0  0
 15 28  1  0  0  0
 16 19  1  0  0  0
 16 29  1  0  0  0
 17 18  1  0  0  0
 17 19  2  0  0  0
 17 22  1  0  0  0
 18 20  2  0  0  0
 18 21  1  0  0  0
 19 30  1  0  0  0
 20 31  1  0  0  0
 21 32  1  0  0  0
 22 33  1  0  0  0
M  END
> <s_m_entry_id>
5745

> <s_m_entry_name>
dock_pv.140

> <s_m_Source_Path>
/home/csk/Desktop/cluster/DUD-E-result/igf1r

> <s_m_Source_File>
dock_pv.maegz

> <i_m_Source_File_Index>
140

> <chembl_id>
CHEMBL56393

> <chembl_pref_name>
None

> <i_lp_mmshare_version>
53161

> <r_lp_tautomer_probability>
1

> <s_lp_Force_Field>
OPLS_2005

> <r_lp_Energy>
19.01867

> <b_lp_Chiralities_Consistent>
1

> <s_lp_Variant>
CHEMBL1957_lig570-1

> <s_i_glide_gridfile>
glide-grid_2oj9

> <i_i_glide_lignum>
768

> <i_i_glide_rotatable_bonds>
7

> <r_i_docking_score>
-7.36312363853738

> <r_i_glide_ligand_efficiency>
-0.334687438115335

> <r_i_glide_ligand_efficiency_sa>
-0.937807364109193

> <r_i_glide_ligand_efficiency_ln>
-1.79981599371892

> <r_i_glide_gscore>
-7.36312363853738

> <r_i_glide_lipo>
-2.49566134967433

> <r_i_glide_hbond>
-0.0207007192322355

> <r_i_glide_metal>
0

> <r_i_glide_rewards>
-2.12110705084964

> <r_i_glide_evdw>
-30.9112033843994

> <r_i_glide_ecoul>
-12.0166358947754

> <r_i_glide_erotb>
0.622401034655105

> <r_i_glide_esite>
0

> <r_i_glide_emodel>
-56.8461920719037

> <r_i_glide_energy>
-42.9278392791748

> <r_i_glide_einternal>
9.39327144622803

> <i_i_glide_confnum>
11

> <i_i_glide_posenum>
105

> <r_i_glide_eff_state_penalty>
0

> <s_user_duplicate_titles>
CHEMBL1957_lig570,87324

> <i_f3d_flags>
0

> <s_m_subgroup_title>
dock_pv

> <s_m_subgroupid>
dock_pv

> <b_m_subgroup_collapsed>
1

$$$$
CHEMBL1957_lig2546
                    3D
 Schrodinger Suite 2021-1.
 56 61  0  0  1  0            999 V2000
    6.3149   -9.9653   22.7844 C   0  0  0  0  0  0
    5.7040   -8.6765   22.5193 N   0  0  0  0  0  0
    5.4778   -7.6467   23.3923 C   0  0  0  0  0  0
    4.8078   -6.6957   22.6464 C   0  0  0  0  0  0
    4.6820   -7.2330   21.3574 C   0  0  0  0  0  0
    4.0380   -6.7571   20.2469 N   0  0  0  0  0  0
    3.6380   -5.4595   19.8902 C   0  0  0  0  0  0
    3.1777   -5.3670   18.6211 N   0  0  0  0  0  0
    3.1618   -4.1297   18.0658 C   0  0  0  0  0  0
    3.6060   -2.9883   18.7296 C   0  0  0  0  0  0
    3.5764   -1.5911   18.1175 C   0  0  0  0  0  0
    4.8998   -0.8302   18.3354 C   0  0  0  0  0  0
    5.2339   -0.9166   19.8138 C   0  0  0  0  0  0
    5.7377    0.0511   20.5278 N   0  0  0  0  0  0
    5.9293   -0.4788   21.7352 N   0  0  0  0  0  0
    6.1520    0.4421   22.8416 C   0  0  0  0  0  0
    5.5384   -1.7982   21.8093 C   0  0  0  0  0  0
    5.5892   -2.6010   23.0777 C   0  0  0  0  0  0
    6.9463   -3.1361   23.5091 C   0  0  0  0  0  0
    7.7134   -2.4540   24.4580 C   0  0  0  0  0  0
    8.8380   -3.0578   25.0180 C   0  0  0  0  0  0
    9.1947   -4.3496   24.6380 C   0  0  0  0  0  0
    8.4637   -5.0278   23.6603 C   0  0  0  0  0  0
    7.3588   -4.4007   23.0764 C   0  0  0  0  0  0
    8.8318   -6.4210   23.2934 C   0  0  0  0  0  0
    8.6879   -7.0622   22.0734 C   0  0  0  0  0  0
    9.1807   -8.3267   22.2559 N   0  0  0  0  0  0
    9.6025   -8.5522   23.5009 N   0  0  0  0  0  0
    9.3990   -7.4105   24.1161 C   0  0  0  0  0  0
    4.9269   -2.0508   20.5826 C   0  0  0  0  0  0
    4.1288   -3.1919   20.0164 C   0  0  0  0  0  0
    4.0686   -4.4025   20.6380 N   0  0  0  0  0  0
    5.2380   -8.4222   21.2911 N   0  0  0  0  0  0
    6.6855  -10.0010   23.8093 H   0  0  0  0  0  0
    5.5743  -10.7516   22.6380 H   0  0  0  0  0  0
    7.1406  -10.1297   22.0934 H   0  0  0  0  0  0
    5.7925   -7.6914   24.4248 H   0  0  0  0  0  0
    4.4380   -5.7449   22.9950 H   0  0  0  0  0  0
    3.8699   -7.4050   19.4922 H   0  0  0  0  0  0
    2.8379   -4.0650   17.0385 H   0  0  0  0  0  0
    2.8380   -1.0089   18.6417 H   0  0  0  0  0  0
    3.2380   -1.6214   17.0806 H   0  0  0  0  0  0
    4.8380    0.2051   18.0093 H   0  0  0  0  0  0
    5.6886   -1.2540   17.7269 H   0  0  0  0  0  0
    6.8904    0.0523   23.5250 H   0  0  0  0  0  0
    6.4380    1.4302   22.4821 H   0  0  0  0  0  0
    5.2380    0.5602   23.4048 H   0  0  0  0  0  0
    4.9616   -3.4642   22.8978 H   0  0  0  0  0  0
    5.1320   -2.0538   23.9024 H   0  0  0  0  0  0
    7.4127   -1.4917   24.8363 H   0  0  0  0  0  0
    9.4145   -2.5372   25.7683 H   0  0  0  0  0  0
   10.0380   -4.8282   25.1066 H   0  0  0  0  0  0
    6.7752   -4.9299   22.3384 H   0  0  0  0  0  0
    8.2973   -6.7357   21.1213 H   0  0  0  0  0  0
    9.2258   -9.0429   21.5468 H   0  0  0  0  0  0
    9.6540   -7.2883   25.1584 H   0  0  0  0  0  0
  1  2  1  0  0  0
  1 34  1  0  0  0
  1 35  1  0  0  0
  1 36  1  0  0  0
  2  3  1  0  0  0
  2 33  1  0  0  0
  3  4  2  0  0  0
  3 37  1  0  0  0
  4  5  1  0  0  0
  4 38  1  0  0  0
  5  6  1  0  0  0
  5 33  2  0  0  0
  6  7  1  0  0  0
  6 39  1  0  0  0
  7  8  2  0  0  0
  7 32  1  0  0  0
  8  9  1  0  0  0
  9 10  2  0  0  0
  9 40  1  0  0  0
 10 11  1  0  0  0
 10 31  1  0  0  0
 11 12  1  0  0  0
 11 41  1  0  0  0
 11 42  1  0  0  0
 12 13  1  0  0  0
 12 43  1  0  0  0
 12 44  1  0  0  0
 13 14  2  0  0  0
 13 30  1  0  0  0
 14 15  1  0  0  0
 15 16  1  0  0  0
 15 17  1  0  0  0
 16 45  1  0  0  0
 16 46  1  0  0  0
 16 47  1  0  0  0
 17 18  1  0  0  0
 17 30  2  0  0  0
 18 19  1  0  0  0
 18 48  1  0  0  0
 18 49  1  0  0  0
 19 20  2  0  0  0
 19 24  1  0  0  0
 20 21  1  0  0  0
 20 50  1  0  0  0
 21 22  2  0  0  0
 21 51  1  0  0  0
 22 23  1  0  0  0
 22 52  1  0  0  0
 23 24  2  0  0  0
 23 25  1  0  0  0
 24 53  1  0  0  0
 25 26  2  0  0  0
 25 29  1  0  0  0
 26 27  1  0  0  0
 26 54  1  0  0  0
 27 28  1  0  0  0
 27 55  1  0  0  0
 28 29  2  0  0  0
 29 56  1  0  0  0
 30 31  1  0  0  0
 31 32  2  0  0  0
M  END
> <s_m_entry_id>
5746

> <s_m_entry_name>
dock_pv.141

> <s_m_Source_Path>
/home/csk/Desktop/cluster/DUD-E-result/igf1r

> <s_m_Source_File>
dock_pv.maegz

> <i_m_Source_File_Index>
141

> <chembl_id>
CHEMBL3947056

> <chembl_pref_name>
None

> <i_lp_mmshare_version>
53161

> <r_lp_tautomer_probability>
0.499999993818

> <s_lp_Force_Field>
OPLS_2005

> <r_lp_Energy>
7.680543

> <b_lp_Chiralities_Consistent>
1

> <s_lp_Variant>
CHEMBL1957_lig2546-1

> <s_i_glide_gridfile>
glide-grid_2oj9

> <i_i_glide_lignum>
3562

> <i_i_glide_rotatable_bonds>
5

> <r_i_docking_score>
-7.34624174834961

> <r_i_glide_ligand_efficiency>
-0.222613386313624

> <r_i_glide_ligand_efficiency_sa>
-0.714040078085358

> <r_i_glide_ligand_efficiency_ln>
-1.63376612802887

> <r_i_glide_gscore>
-7.34624174834961

> <r_i_glide_lipo>
-3.56220062710972

> <r_i_glide_hbond>
-0.0180131136924356

> <r_i_glide_metal>
0

> <r_i_glide_rewards>
-2.30361037760622

> <r_i_glide_evdw>
-41.4939079284668

> <r_i_glide_ecoul>
0.987862110137939

> <r_i_glide_erotb>
0.520930837322324

> <r_i_glide_esite>
-0.0568323873609075

> <r_i_glide_emodel>
-57.3485123977553

> <r_i_glide_energy>
-40.5060458183289

> <r_i_glide_einternal>
6.9521746635437

> <i_i_glide_confnum>
7

> <i_i_glide_posenum>
8

> <r_i_glide_eff_state_penalty>
0

> <s_user_duplicate_titles>
CHEMBL1957_lig2546

> <i_f3d_flags>
0

> <s_m_subgroup_title>
dock_pv

> <s_m_subgroupid>
dock_pv

> <b_m_subgroup_collapsed>
1

$$$$
CHEMBL1957_lig2077
                    3D
 Schrodinger Suite 2021-1.
 49 53  0  0  1  0            999 V2000
    6.9744   -0.7861   24.0042 C   0  0  0  0  0  0
    6.3200   -1.3077   22.8141 N   0  0  0  0  0  0
    6.0380   -0.4863   21.7918 N   0  0  0  0  0  0
    5.4379   -1.2503   20.9095 C   0  0  0  0  0  0
    4.9618   -0.8174   19.5275 C   0  0  0  0  0  0
    3.6962   -1.6308   19.1280 C   0  0  0  0  0  0
    3.7899   -3.1172   19.4673 C   0  0  0  0  0  0
    3.2352   -4.1342   18.6849 C   0  0  0  0  0  0
    3.2380   -5.4434   19.0562 N   0  0  0  0  0  0
    3.8413   -5.7400   20.2358 C   0  0  0  0  0  0
    4.0380   -7.0986   20.4823 N   0  0  0  0  0  0
    4.8381   -7.7688   21.4215 C   0  0  0  0  0  0
    5.0201   -7.2796   22.7211 C   0  0  0  0  0  0
    5.8540   -7.9434   23.6187 C   0  0  0  0  0  0
    6.4994   -9.1162   23.2321 C   0  0  0  0  0  0
    6.2975   -9.6327   21.9530 C   0  0  0  0  0  0
    5.4674   -8.9664   21.0496 C   0  0  0  0  0  0
    5.2232   -9.6539   19.4813 Cl  0  0  0  0  0  0
    4.4385   -4.8337   21.0407 N   0  0  0  0  0  0
    4.4359   -3.5433   20.6379 C   0  0  0  0  0  0
    5.2210   -2.5428   21.3961 C   0  0  0  0  0  0
    5.9221   -2.6033   22.5934 C   0  0  0  0  0  0
    6.1858   -3.7298   23.5750 C   0  0  0  0  0  0
    7.5461   -4.3916   23.5587 C   0  0  0  0  0  0
    8.4553   -4.2308   22.5146 C   0  0  0  0  0  0
    9.6964   -4.8540   22.6005 C   0  0  0  0  0  0
   10.0209   -5.6396   23.7039 C   0  0  0  0  0  0
    9.0979   -5.8386   24.7184 C   0  0  0  0  0  0
    7.8613   -5.2135   24.6380 C   0  0  0  0  0  0
    7.9551   -1.2541   24.1016 H   0  0  0  0  0  0
    7.0891    0.2974   23.9514 H   0  0  0  0  0  0
    6.3738   -1.0262   24.8810 H   0  0  0  0  0  0
    5.7529   -0.9687   18.7931 H   0  0  0  0  0  0
    4.7473    0.2520   19.5016 H   0  0  0  0  0  0
    3.4684   -1.4845   18.0709 H   0  0  0  0  0  0
    2.8380   -1.2540   19.6797 H   0  0  0  0  0  0
    2.7310   -3.9010   17.7574 H   0  0  0  0  0  0
    3.7527   -7.6757   19.7042 H   0  0  0  0  0  0
    4.4911   -6.4007   23.0504 H   0  0  0  0  0  0
    5.9880   -7.5553   24.6178 H   0  0  0  0  0  0
    7.1409   -9.6351   23.9294 H   0  0  0  0  0  0
    6.7826  -10.5535   21.6634 H   0  0  0  0  0  0
    5.4934   -4.5493   23.4314 H   0  0  0  0  0  0
    6.0380   -3.3835   24.5974 H   0  0  0  0  0  0
    8.2284   -3.6098   21.6606 H   0  0  0  0  0  0
   10.4379   -4.6893   21.8380 H   0  0  0  0  0  0
   10.9968   -6.0964   23.7755 H   0  0  0  0  0  0
    9.3421   -6.4545   25.5717 H   0  0  0  0  0  0
    7.1419   -5.3505   25.4311 H   0  0  0  0  0  0
  1  2  1  0  0  0
  1 30  1  0  0  0
  1 31  1  0  0  0
  1 32  1  0  0  0
  2  3  1  0  0  0
  2 22  1  0  0  0
  3  4  2  0  0  0
  4  5  1  0  0  0
  4 21  1  0  0  0
  5  6  1  0  0  0
  5 33  1  0  0  0
  5 34  1  0  0  0
  6  7  1  0  0  0
  6 35  1  0  0  0
  6 36  1  0  0  0
  7  8  2  0  0  0
  7 20  1  0  0  0
  8  9  1  0  0  0
  8 37  1  0  0  0
  9 10  2  0  0  0
 10 11  1  0  0  0
 10 19  1  0  0  0
 11 12  1  0  0  0
 11 38  1  0  0  0
 12 13  2  0  0  0
 12 17  1  0  0  0
 13 14  1  0  0  0
 13 39  1  0  0  0
 14 15  2  0  0  0
 14 40  1  0  0  0
 15 16  1  0  0  0
 15 41  1  0  0  0
 16 17  2  0  0  0
 16 42  1  0  0  0
 17 18  1  0  0  0
 19 20  2  0  0  0
 20 21  1  0  0  0
 21 22  2  0  0  0
 22 23  1  0  0  0
 23 24  1  0  0  0
 23 43  1  0  0  0
 23 44  1  0  0  0
 24 25  2  0  0  0
 24 29  1  0  0  0
 25 26  1  0  0  0
 25 45  1  0  0  0
 26 27  2  0  0  0
 26 46  1  0  0  0
 27 28  1  0  0  0
 27 47  1  0  0  0
 28 29  2  0  0  0
 28 48  1  0  0  0
 29 49  1  0  0  0
M  END
> <s_m_entry_id>
5747

> <s_m_entry_name>
dock_pv.142

> <s_m_Source_Path>
/home/csk/Desktop/cluster/DUD-E-result/igf1r

> <s_m_Source_File>
dock_pv.maegz

> <i_m_Source_File_Index>
142

> <chembl_id>
CHEMBL3652853

> <chembl_pref_name>
None

> <i_lp_mmshare_version>
53161

> <r_lp_tautomer_probability>
0.999999987636

> <s_lp_Force_Field>
OPLS_2005

> <r_lp_Energy>
11.291887

> <b_lp_Chiralities_Consistent>
1

> <s_lp_Variant>
CHEMBL1957_lig2077-1

> <s_i_glide_gridfile>
glide-grid_2oj9

> <i_i_glide_lignum>
3042

> <i_i_glide_rotatable_bonds>
4

> <r_i_docking_score>
-7.33834037790539

> <r_i_glide_ligand_efficiency>
-0.253046219927772

> <r_i_glide_ligand_efficiency_sa>
-0.777438158287674

> <r_i_glide_ligand_efficiency_ln>
-1.68029386228414

> <r_i_glide_gscore>
-7.33834037790539

> <r_i_glide_lipo>
-4.03641531746083

> <r_i_glide_hbond>
0

> <r_i_glide_metal>
0

> <r_i_glide_rewards>
-1.47483738003783

> <r_i_glide_evdw>
-37.1426734924316

> <r_i_glide_ecoul>
-3.03873801231384

> <r_i_glide_erotb>
0.485856696061927

> <r_i_glide_esite>
0

> <r_i_glide_emodel>
-58.4222218277925

> <r_i_glide_energy>
-40.1814115047455

> <r_i_glide_einternal>
2.04353427886963

> <i_i_glide_confnum>
18

> <i_i_glide_posenum>
74

> <r_i_glide_eff_state_penalty>
0

> <s_user_duplicate_titles>
CHEMBL1957_lig2077

> <i_f3d_flags>
0

> <s_m_subgroup_title>
dock_pv

> <s_m_subgroupid>
dock_pv

> <b_m_subgroup_collapsed>
1

$$$$
CHEMBL1957_lig78
                    3D
 Schrodinger Suite 2021-1.
 55 58  0  0  1  0            999 V2000
    6.6297   -9.2538   22.5818 C   0  0  0  0  0  0
    7.2301   -8.3437   23.4718 C   0  0  0  0  0  0
    6.9052   -6.9833   23.5036 C   0  0  0  0  0  0
    5.6372   -8.8033   21.6927 C   0  0  0  0  0  0
    7.6298   -6.0686   24.4724 C   0  0  0  0  0  0
    5.3166   -7.4456   21.7197 C   0  0  0  0  0  0
    5.9327   -6.5311   22.5971 C   0  0  0  0  0  0
    5.4672   -5.2587   22.3763 N   0  0  0  0  0  0
    4.6274   -5.3419   21.3654 C   0  0  0  0  0  0
    4.0364   -4.1705   20.6319 C   0  0  0  0  0  0
    4.2973   -2.8596   20.9683 C   0  0  0  0  0  0
    3.9048   -1.8023   20.0422 C   0  0  0  0  0  0
    3.3000   -2.1484   18.8975 C   0  0  0  0  0  0
    3.2391   -4.4772   19.4062 C   0  0  0  0  0  0
    2.8380   -5.5904   19.0658 O   0  0  0  0  0  0
    4.9733   -2.5025   22.1118 N   0  0  0  0  0  0
    6.1827   -1.6825   22.1698 C   0  0  0  0  0  0
    6.8052   -1.5482   23.5879 C   0  0  1  0  0  0
    6.1282   -0.4940   24.4766 C   0  0  0  0  0  0
    6.8966   -2.8240   24.2014 O   0  0  0  0  0  0
    5.1516   -0.8541   25.4085 C   0  0  0  0  0  0
    4.5485    0.0875   26.2381 C   0  0  0  0  0  0
    4.9096    1.4251   26.1178 C   0  0  0  0  0  0
    5.8730    1.8130   25.1876 C   0  0  0  0  0  0
    6.4789    0.8565   24.3748 C   0  0  0  0  0  0
    6.3043    3.4761   25.0326 Cl  0  0  0  0  0  0
    7.0555  -10.6722   22.5451 C   0  0  0  0  0  0
    7.1969  -11.2549   21.4326 N   0  0  0  0  0  0
    7.2380  -11.2084   23.8074 N   0  0  0  0  0  0
    7.6219  -12.5922   24.0431 C   0  0  0  0  0  0
    4.4638   -6.6601   20.9880 N   0  0  0  0  0  0
    2.9838   -3.4290   18.5821 N   0  0  0  0  0  0
    8.0030   -8.6939   24.1422 H   0  0  0  0  0  0
    5.1645   -9.4788   20.9925 H   0  0  0  0  0  0
    6.9043   -5.4841   25.0381 H   0  0  0  0  0  0
    8.2685   -5.3720   23.9292 H   0  0  0  0  0  0
    8.2466   -6.6205   25.1822 H   0  0  0  0  0  0
    4.1416   -0.7691   20.2381 H   0  0  0  0  0  0
    2.9954   -1.4507   18.1306 H   0  0  0  0  0  0
    5.0588   -3.2651   22.7743 H   0  0  0  0  0  0
    6.9158   -2.1378   21.5018 H   0  0  0  0  0  0
    5.9873   -0.6946   21.7504 H   0  0  0  0  0  0
    7.8478   -1.2541   23.4815 H   0  0  0  0  0  0
    7.1942   -3.4620   23.5460 H   0  0  0  0  0  0
    4.8383   -1.8856   25.4379 H   0  0  0  0  0  0
    3.7901   -0.2159   26.9462 H   0  0  0  0  0  0
    4.4380    2.1654   26.7436 H   0  0  0  0  0  0
    7.2378    1.1735   23.6782 H   0  0  0  0  0  0
    7.4780  -12.2156   21.5561 H   0  0  0  0  0  0
    6.9835  -10.6649   24.6179 H   0  0  0  0  0  0
    7.6855  -12.7860   25.1145 H   0  0  0  0  0  0
    6.8866  -13.2777   23.6199 H   0  0  0  0  0  0
    8.5961  -12.8067   23.6011 H   0  0  0  0  0  0
    3.8639   -6.9150   20.2126 H   0  0  0  0  0  0
    2.4836   -3.6559   17.7329 H   0  0  0  0  0  0
  1 27  1  0  0  0
  1  2  2  0  0  0
  1  4  1  0  0  0
  2  3  1  0  0  0
  2 33  1  0  0  0
  3  7  2  0  0  0
  3  5  1  0  0  0
  4  6  2  0  0  0
  4 34  1  0  0  0
  5 35  1  0  0  0
  5 36  1  0  0  0
  5 37  1  0  0  0
  6  7  1  0  0  0
  6 31  1  0  0  0
  7  8  1  0  0  0
  8  9  2  0  0  0
  9 10  1  0  0  0
  9 31  1  0  0  0
 10 11  2  0  0  0
 10 14  1  0  0  0
 11 12  1  0  0  0
 11 16  1  0  0  0
 12 13  2  0  0  0
 12 38  1  0  0  0
 13 32  1  0  0  0
 13 39  1  0  0  0
 14 15  2  0  0  0
 14 32  1  0  0  0
 16 17  1  0  0  0
 16 40  1  0  0  0
 17 18  1  0  0  0
 17 41  1  0  0  0
 17 42  1  0  0  0
 18 19  1  0  0  0
 18 20  1  0  0  0
 18 43  1  0  0  0
 19 21  2  0  0  0
 19 25  1  0  0  0
 20 44  1  0  0  0
 21 22  1  0  0  0
 21 45  1  0  0  0
 22 23  2  0  0  0
 22 46  1  0  0  0
 23 24  1  0  0  0
 23 47  1  0  0  0
 24 25  2  0  0  0
 24 26  1  0  0  0
 25 48  1  0  0  0
 27 28  2  0  0  0
 27 29  1  0  0  0
 28 49  1  0  0  0
 29 30  1  0  0  0
 29 50  1  0  0  0
 30 51  1  0  0  0
 30 52  1  0  0  0
 30 53  1  0  0  0
 31 54  1  0  0  0
 32 55  1  0  0  0
M  END
> <s_m_entry_id>
5749

> <s_m_entry_name>
dock_pv.144

> <s_m_Source_Path>
/home/csk/Desktop/cluster/DUD-E-result/igf1r

> <s_m_Source_File>
dock_pv.maegz

> <i_m_Source_File_Index>
144

> <chembl_id>
CHEMBL425819

> <chembl_pref_name>
None

> <i_lp_mmshare_version>
53161

> <r_lp_tautomer_probability>
0.999206294981429

> <s_lp_Force_Field>
OPLS_2005

> <r_lp_Energy>
32.727749

> <b_lp_Chiralities_Consistent>
1

> <s_lp_Variant>
CHEMBL1957_lig78-2

> <s_i_glide_gridfile>
glide-grid_2oj9

> <i_i_glide_lignum>
224

> <i_i_glide_rotatable_bonds>
8

> <r_i_docking_score>
-7.32768317949935

> <r_i_glide_ligand_efficiency>
-0.228990099359355

> <r_i_glide_ligand_efficiency_sa>
-0.726998248386823

> <r_i_glide_ligand_efficiency_ln>
-1.64086800898937

> <r_i_glide_gscore>
-7.32768317949935

> <r_i_glide_lipo>
-3.76439190576366

> <r_i_glide_hbond>
-0.107212909833196

> <r_i_glide_metal>
0

> <r_i_glide_rewards>
-1.25971858519886

> <r_i_glide_evdw>
-47.1078948974609

> <r_i_glide_ecoul>
-2.78523588180542

> <r_i_glide_erotb>
0.591736777099858

> <r_i_glide_esite>
-0.0149164286596376

> <r_i_glide_emodel>
-63.7793033569881

> <r_i_glide_energy>
-49.8931307792664

> <r_i_glide_einternal>
6.89092826843262

> <i_i_glide_confnum>
25

> <i_i_glide_posenum>
207

> <r_i_glide_eff_state_penalty>
0

> <s_user_duplicate_titles>
CHEMBL1957_lig78

> <i_f3d_flags>
0

> <s_m_subgroup_title>
dock_pv

> <s_m_subgroupid>
dock_pv

> <b_m_subgroup_collapsed>
1

$$$$
CHEMBL1957_lig2898
                    3D
 Schrodinger Suite 2021-1.
 35 37  0  0  1  0            999 V2000
    8.6906   -9.2286   24.7960 S   0  0  0  0  0  0
    7.7590   -9.9251   23.9030 O   0  0  0  0  0  0
    9.0872   -9.8088   26.0822 O   0  0  0  0  0  0
    3.0727   -2.4654   18.4666 N   0  0  0  0  0  0
    3.6383   -1.2545   18.6232 N   0  0  0  0  0  0
    7.9959   -7.6543   25.1631 N   0  0  0  0  0  0
    5.2381   -0.2946   20.0471 N   0  0  0  0  0  0
    4.4378   -2.6479   20.2170 C   0  0  0  0  0  0
    3.5191   -3.3665   19.4127 C   0  0  0  0  0  0
    4.8971   -4.6907   21.4385 C   0  0  0  0  0  0
    4.4472   -1.3349   19.6457 C   0  0  0  0  0  0
    5.1054   -3.3146   21.2568 C   0  0  0  0  0  0
    5.7096   -5.4590   22.4248 C   0  0  0  0  0  0
    3.2380   -4.7182   19.6254 C   0  0  0  0  0  0
    3.9569   -5.3561   20.6380 C   0  0  0  0  0  0
    7.2481   -6.9388   24.2312 C   0  0  0  0  0  0
    7.0682   -5.1665   22.6135 C   0  0  0  0  0  0
    5.1397   -6.5097   23.1539 C   0  0  0  0  0  0
    7.8353   -5.8987   23.5158 C   0  0  0  0  0  0
    5.9039   -7.2477   24.0494 C   0  0  0  0  0  0
   10.2383   -8.7682   23.8390 C   0  0  0  0  0  0
    2.4354   -2.6360   17.6973 H   0  0  0  0  0  0
    8.0806   -7.2854   26.1013 H   0  0  0  0  0  0
    6.1715   -0.4941   20.3751 H   0  0  0  0  0  0
    5.1695    0.5848   19.5502 H   0  0  0  0  0  0
    5.8203   -2.7813   21.8656 H   0  0  0  0  0  0
    2.5470   -5.2669   19.0039 H   0  0  0  0  0  0
    3.8002   -6.4170   20.7708 H   0  0  0  0  0  0
    7.5428   -4.3745   22.0525 H   0  0  0  0  0  0
    4.0953   -6.7586   23.0362 H   0  0  0  0  0  0
    8.8795   -5.6573   23.6563 H   0  0  0  0  0  0
    5.4492   -8.0533   24.6073 H   0  0  0  0  0  0
   10.7515   -9.6795   23.5350 H   0  0  0  0  0  0
   10.8858   -8.1724   24.4798 H   0  0  0  0  0  0
    9.9552   -8.1884   22.9617 H   0  0  0  0  0  0
  1  2  2  0  0  0
  1  3  2  0  0  0
  1  6  1  0  0  0
  1 21  1  0  0  0
  4  5  1  0  0  0
  4  9  1  0  0  0
  4 22  1  0  0  0
  5 11  2  0  0  0
  6 16  1  0  0  0
  6 23  1  0  0  0
  7 11  1  0  0  0
  7 24  1  0  0  0
  7 25  1  0  0  0
  8  9  1  0  0  0
  8 11  1  0  0  0
  8 12  2  0  0  0
  9 14  2  0  0  0
 10 12  1  0  0  0
 10 13  1  0  0  0
 10 15  2  0  0  0
 12 26  1  0  0  0
 13 17  2  0  0  0
 13 18  1  0  0  0
 14 15  1  0  0  0
 14 27  1  0  0  0
 15 28  1  0  0  0
 16 19  2  0  0  0
 16 20  1  0  0  0
 17 19  1  0  0  0
 17 29  1  0  0  0
 18 20  2  0  0  0
 18 30  1  0  0  0
 19 31  1  0  0  0
 20 32  1  0  0  0
 21 33  1  0  0  0
 21 34  1  0  0  0
 21 35  1  0  0  0
M  END
> <s_m_entry_id>
5750

> <s_m_entry_name>
dock_pv.145

> <s_m_Source_Path>
/home/csk/Desktop/cluster/DUD-E-result/igf1r

> <s_m_Source_File>
dock_pv.maegz

> <i_m_Source_File_Index>
145

> <chembl_id>
CHEMBL2004892

> <chembl_pref_name>
None

> <i_lp_mmshare_version>
53161

> <r_lp_tautomer_probability>
1

> <s_lp_Force_Field>
OPLS_2005

> <r_lp_Energy>
4.65051

> <b_lp_Chiralities_Consistent>
1

> <s_lp_Variant>
CHEMBL1957_lig2898-1

> <s_i_glide_gridfile>
glide-grid_2oj9

> <i_i_glide_lignum>
4008

> <i_i_glide_rotatable_bonds>
3

> <r_i_docking_score>
-7.32456207199715

> <r_i_glide_ligand_efficiency>
-0.348788670095102

> <r_i_glide_ligand_efficiency_sa>
-0.962281493396634

> <r_i_glide_ligand_efficiency_ln>
-1.81098317163002

> <r_i_glide_gscore>
-7.32456207199715

> <r_i_glide_lipo>
-2.54904726089967

> <r_i_glide_hbond>
-0.461954263468603

> <r_i_glide_metal>
0

> <r_i_glide_rewards>
-2.37413801980282

> <r_i_glide_evdw>
-32.4103622436523

> <r_i_glide_ecoul>
-4.72545051574707

> <r_i_glide_erotb>
0.402787200164816

> <r_i_glide_esite>
-0.0128740384461914

> <r_i_glide_emodel>
-51.1179120526847

> <r_i_glide_energy>
-37.1358127593994

> <r_i_glide_einternal>
3.82104229927063

> <i_i_glide_confnum>
3

> <i_i_glide_posenum>
31

> <r_i_glide_eff_state_penalty>
0

> <s_user_duplicate_titles>
CHEMBL1957_lig2898

> <i_f3d_flags>
0

> <s_m_subgroup_title>
dock_pv

> <s_m_subgroupid>
dock_pv

> <b_m_subgroup_collapsed>
1

$$$$
CHEMBL1957_lig3373
                    3D
 Schrodinger Suite 2021-1.
 34 36  0  0  1  0            999 V2000
    7.9147   -2.0540   23.4575 F   0  0  0  0  0  0
    6.1483   -1.4494   24.5586 F   0  0  0  0  0  0
    6.4389   -3.5214   24.0093 F   0  0  0  0  0  0
    2.8379   -6.0724   18.3637 O   0  0  0  0  0  0
    4.0381   -1.0149   18.6588 N   0  0  0  0  0  0
    3.6317   -4.9429   20.1729 N   0  0  0  0  0  0
    4.0383   -7.1893   19.8530 N   0  0  0  0  0  0
    4.7253   -6.6888   22.1406 N   0  0  0  0  0  0
    6.0370   -9.1698   22.1909 N   0  0  0  0  0  0
    4.4395   -2.6528   20.4291 C   0  0  0  0  0  0
    4.6194   -1.3617   19.8374 C   0  0  0  0  0  0
    5.8861   -1.9629   22.2903 C   0  0  0  0  0  0
    3.6571   -3.6122   19.7094 C   0  0  0  0  0  0
    5.0946   -2.9273   21.6638 C   0  0  0  0  0  0
    6.6076   -2.2615   23.6055 C   0  0  0  0  0  0
    5.4470   -0.4102   20.4712 C   0  0  0  0  0  0
    6.0381   -0.7127   21.6927 C   0  0  0  0  0  0
    3.0532   -3.2080   18.5123 C   0  0  0  0  0  0
    3.2673   -1.9321   18.0347 C   0  0  0  0  0  0
    3.4371   -6.0545   19.4346 C   0  0  0  0  0  0
    4.7231   -7.5043   21.0434 C   0  0  0  0  0  0
    5.3725   -8.7440   21.0843 C   0  0  0  0  0  0
    5.3844   -7.1134   23.2497 C   0  0  0  0  0  0
    6.0383   -8.3467   23.2718 C   0  0  0  0  0  0
    4.0384   -5.0925   21.0826 H   0  0  0  0  0  0
    4.0177   -7.9347   19.1714 H   0  0  0  0  0  0
    4.9821   -3.8989   22.1189 H   0  0  0  0  0  0
    5.6042    0.5564   20.0096 H   0  0  0  0  0  0
    6.6351    0.0386   22.1808 H   0  0  0  0  0  0
    2.4389   -3.8544   17.9081 H   0  0  0  0  0  0
    2.8380   -1.6475   17.0853 H   0  0  0  0  0  0
    5.3695   -9.4196   20.2403 H   0  0  0  0  0  0
    5.3801   -6.4602   24.1115 H   0  0  0  0  0  0
    6.5652   -8.6907   24.1498 H   0  0  0  0  0  0
  1 15  1  0  0  0
  2 15  1  0  0  0
  3 15  1  0  0  0
  4 20  2  0  0  0
  5 11  1  0  0  0
  5 19  2  0  0  0
  6 13  1  0  0  0
  6 20  1  0  0  0
  6 25  1  0  0  0
  7 20  1  0  0  0
  7 21  1  0  0  0
  7 26  1  0  0  0
  8 21  1  0  0  0
  8 23  2  0  0  0
  9 22  1  0  0  0
  9 24  2  0  0  0
 10 11  1  0  0  0
 10 13  1  0  0  0
 10 14  2  0  0  0
 11 16  2  0  0  0
 12 14  1  0  0  0
 12 15  1  0  0  0
 12 17  2  0  0  0
 13 18  2  0  0  0
 14 27  1  0  0  0
 16 17  1  0  0  0
 16 28  1  0  0  0
 17 29  1  0  0  0
 18 19  1  0  0  0
 18 30  1  0  0  0
 19 31  1  0  0  0
 21 22  2  0  0  0
 22 32  1  0  0  0
 23 24  1  0  0  0
 23 33  1  0  0  0
 24 34  1  0  0  0
M  END
> <s_m_entry_id>
5751

> <s_m_entry_name>
dock_pv.146

> <s_m_Source_Path>
/home/csk/Desktop/cluster/DUD-E-result/igf1r

> <s_m_Source_File>
dock_pv.maegz

> <i_m_Source_File_Index>
146

> <chembl_id>
CHEMBL1976455

> <chembl_pref_name>
None

> <i_lp_mmshare_version>
53161

> <r_lp_tautomer_probability>
1

> <s_lp_Force_Field>
OPLS_2005

> <r_lp_Energy>
29.371282

> <b_lp_Chiralities_Consistent>
1

> <s_lp_Variant>
CHEMBL1957_lig3373-1

> <s_i_glide_gridfile>
glide-grid_2oj9

> <i_i_glide_lignum>
4747

> <i_i_glide_rotatable_bonds>
5

> <r_i_docking_score>
-7.31836299683448

> <r_i_glide_ligand_efficiency>
-0.30493179153477

> <r_i_glide_ligand_efficiency_sa>
-0.879575489696402

> <r_i_glide_ligand_efficiency_ln>
-1.75162008293824

> <r_i_glide_gscore>
-7.31836299683448

> <r_i_glide_lipo>
-3.22849475017123

> <r_i_glide_hbond>
-0.476139458583277

> <r_i_glide_metal>
0

> <r_i_glide_rewards>
-1.54482308744365

> <r_i_glide_evdw>
-36.1806411743164

> <r_i_glide_ecoul>
-5.12597513198853

> <r_i_glide_erotb>
0.509022627877781

> <r_i_glide_esite>
0

> <r_i_glide_emodel>
-52.7630221329732

> <r_i_glide_energy>
-41.3066163063049

> <r_i_glide_einternal>
5.23392486572266

> <i_i_glide_confnum>
1

> <i_i_glide_posenum>
8

> <r_i_glide_eff_state_penalty>
0

> <s_user_duplicate_titles>
CHEMBL1957_lig3373

> <i_f3d_flags>
0

> <s_m_subgroup_title>
dock_pv

> <s_m_subgroupid>
dock_pv

> <b_m_subgroup_collapsed>
1

$$$$
CHEMBL1957_lig1050
                    3D
 Schrodinger Suite 2021-1.
 49 54  0  0  1  0            999 V2000
    6.0451  -11.5127   21.0274 C   0  0  0  0  0  0
    5.0209  -10.4944   20.5215 C   0  0  0  0  0  0
    6.5874  -10.9469   22.3388 C   0  0  0  0  0  0
    6.5576   -7.2256   22.6266 C   0  0  0  0  0  0
    3.6380   -5.0939   20.2294 C   0  0  0  0  0  0
    5.1114   -7.8551   20.9146 C   0  0  0  0  0  0
    6.8767   -8.5026   22.9617 N   0  0  0  0  0  0
    3.2380   -4.1489   19.3044 C   0  0  0  0  0  0
    5.4747   -9.1936   21.1310 C   0  0  0  0  0  0
    4.1747   -7.5399   19.9121 N   0  0  0  0  0  0
    7.1783   -6.2137   23.3602 N   0  0  0  0  0  0
    6.3451   -9.4657   22.1822 C   0  0  0  0  0  0
    3.6380   -6.3204   19.5621 C   0  0  0  0  0  0
    2.8380   -4.8842   18.2380 N   0  0  0  0  0  0
    2.9730   -6.1936   18.4374 N   0  0  0  0  0  0
    3.1710   -2.6582   19.3202 C   0  0  0  0  0  0
    5.6925   -6.8585   21.6409 N   0  0  0  0  0  0
    2.8380   -2.0540   20.6380 C   0  0  0  0  0  0
    4.2138   -1.8369   20.0333 C   0  0  0  0  0  0
    8.0174   -6.4154   24.5507 C   0  0  0  0  0  0
    8.8920   -5.1543   24.5910 C   0  0  1  0  0  0
    9.9094   -5.2393   23.4380 C   0  0  0  0  0  0
    8.9985   -5.0508   22.2033 C   0  0  0  0  0  0
    7.5928   -4.9010   22.8396 C   0  0  2  0  0  0
    7.9021   -4.1108   24.0989 C   0  0  0  0  0  0
    6.8573  -11.5937   20.3020 H   0  0  0  0  0  0
    5.6217  -12.5113   21.1432 H   0  0  0  0  0  0
    4.0380  -10.7697   20.8918 H   0  0  0  0  0  0
    4.9747  -10.4540   19.4380 H   0  0  0  0  0  0
    7.6399  -11.1991   22.4732 H   0  0  0  0  0  0
    6.0380  -11.3439   23.1926 H   0  0  0  0  0  0
    4.0590   -4.8924   21.1987 H   0  0  0  0  0  0
    3.9442   -8.3370   19.3384 H   0  0  0  0  0  0
    2.4289   -4.4903   17.3999 H   0  0  0  0  0  0
    2.7229   -2.2136   18.4296 H   0  0  0  0  0  0
    2.7385   -2.7001   21.5098 H   0  0  0  0  0  0
    2.1028   -1.2540   20.6380 H   0  0  0  0  0  0
    4.4737   -0.8620   19.6192 H   0  0  0  0  0  0
    5.0779   -2.3505   20.4578 H   0  0  0  0  0  0
    7.3888   -6.4540   25.4380 H   0  0  0  0  0  0
    8.6676   -7.2886   24.4772 H   0  0  0  0  0  0
    9.3363   -4.9543   25.5669 H   0  0  0  0  0  0
   10.6607   -4.4540   23.5045 H   0  0  0  0  0  0
   10.4380   -6.1932   23.4352 H   0  0  0  0  0  0
    9.0605   -5.8896   21.5079 H   0  0  0  0  0  0
    9.2782   -4.1483   21.6574 H   0  0  0  0  0  0
    6.8552   -4.4396   22.1813 H   0  0  0  0  0  0
    8.3509   -3.1330   23.9094 H   0  0  0  0  0  0
    7.0273   -3.9850   24.7383 H   0  0  0  0  0  0
  1  3  1  0  0  0
  1  2  1  0  0  0
  1 26  1  0  0  0
  1 27  1  0  0  0
  2  9  1  0  0  0
  2 28  1  0  0  0
  2 29  1  0  0  0
  3 12  1  0  0  0
  3 30  1  0  0  0
  3 31  1  0  0  0
  4  7  1  0  0  0
  4 11  1  0  0  0
  4 17  2  0  0  0
  5  8  2  0  0  0
  5 13  1  0  0  0
  5 32  1  0  0  0
  6  9  2  0  0  0
  6 10  1  0  0  0
  6 17  1  0  0  0
  7 12  2  0  0  0
  8 16  1  0  0  0
  8 14  1  0  0  0
  9 12  1  0  0  0
 10 13  1  0  0  0
 10 33  1  0  0  0
 11 20  1  0  0  0
 11 24  1  0  0  0
 13 15  2  0  0  0
 14 15  1  0  0  0
 14 34  1  0  0  0
 16 18  1  0  0  0
 16 19  1  0  0  0
 16 35  1  0  0  0
 18 19  1  0  0  0
 18 36  1  0  0  0
 18 37  1  0  0  0
 19 38  1  0  0  0
 19 39  1  0  0  0
 20 21  1  0  0  0
 20 40  1  0  0  0
 20 41  1  0  0  0
 21 22  1  0  0  0
 21 25  1  0  0  0
 21 42  1  0  0  0
 22 23  1  0  0  0
 22 43  1  0  0  0
 22 44  1  0  0  0
 23 24  1  0  0  0
 23 45  1  0  0  0
 23 46  1  0  0  0
 24 25  1  0  0  0
 24 47  1  0  0  0
 25 48  1  0  0  0
 25 49  1  0  0  0
M  END
> <s_m_entry_id>
5752

> <s_m_entry_name>
dock_pv.147

> <s_m_Source_Path>
/home/csk/Desktop/cluster/DUD-E-result/igf1r

> <s_m_Source_File>
dock_pv.maegz

> <i_m_Source_File_Index>
147

> <chembl_id>
CHEMBL3409723

> <chembl_pref_name>
None

> <i_lp_mmshare_version>
53161

> <r_lp_tautomer_probability>
0.842599982216935

> <s_lp_Force_Field>
OPLS_2005

> <r_lp_Energy>
73.648353

> <b_lp_Chiralities_Consistent>
1

> <s_lp_Variant>
CHEMBL1957_lig1050-1

> <s_i_glide_gridfile>
glide-grid_2oj9

> <i_i_glide_lignum>
1347

> <i_i_glide_rotatable_bonds>
4

> <r_i_docking_score>
-7.31609492504499

> <r_i_glide_ligand_efficiency>
-0.2926437970018

> <r_i_glide_ligand_efficiency_sa>
-0.855695652493101

> <r_i_glide_ligand_efficiency_ln>
-1.73413374290853

> <r_i_glide_gscore>
-7.31609492504499

> <r_i_glide_lipo>
-3.06754581931678

> <r_i_glide_hbond>
-0.406680376265115

> <r_i_glide_metal>
0

> <r_i_glide_rewards>
-2.10799121625066

> <r_i_glide_evdw>
-33.0566596984863

> <r_i_glide_ecoul>
-3.65498280525208

> <r_i_glide_erotb>
0.467202892499687

> <r_i_glide_esite>
0

> <r_i_glide_emodel>
-49.2986542694035

> <r_i_glide_energy>
-36.7116425037384

> <r_i_glide_einternal>
6.94193410873413

> <i_i_glide_confnum>
6

> <i_i_glide_posenum>
228

> <r_i_glide_eff_state_penalty>
0

> <s_user_duplicate_titles>
CHEMBL1957_lig1050

> <i_f3d_flags>
0

> <s_m_subgroup_title>
dock_pv

> <s_m_subgroupid>
dock_pv

> <b_m_subgroup_collapsed>
1

$$$$
CHEMBL1957_lig141
                    3D
 Schrodinger Suite 2021-1.
 56 61  0  0  1  0            999 V2000
    7.2381   -1.4206   24.9460 N   0  0  0  0  0  0
    6.0763   -1.0986   24.3480 C   0  0  0  0  0  0
    5.4795   -1.9266   23.4119 C   0  0  0  0  0  0
    7.8447   -2.5943   24.6370 C   0  0  0  0  0  0
    7.2743   -3.5229   23.7433 C   0  0  0  0  0  0
    6.0924   -3.1162   23.1017 N   0  0  0  0  0  0
    5.7854   -4.1150   22.1964 C   0  0  0  0  0  0
    6.5885   -5.1487   22.3548 N   0  0  0  0  0  0
    7.4933   -4.8436   23.2582 C   0  0  0  0  0  0
    9.0468   -2.8540   25.2787 N   0  0  0  0  0  0
    8.5276   -5.8270   23.6719 C   0  0  0  0  0  0
    8.1587   -7.1297   24.0340 C   0  0  0  0  0  0
    9.1135   -8.0394   24.5200 C   0  0  0  0  0  0
   10.4370   -7.6194   24.6372 C   0  0  0  0  0  0
   10.8138   -6.3390   24.2389 C   0  0  0  0  0  0
    9.8652   -5.4440   23.7567 C   0  0  0  0  0  0
    8.8518   -9.3360   24.9205 O   0  0  0  0  0  0
    7.6470   -9.9906   24.5230 C   0  0  0  0  0  0
    7.7545  -10.5923   23.1244 C   0  0  0  0  0  0
    8.9890  -11.0305   22.6309 C   0  0  0  0  0  0
    9.0628  -11.6523   21.3876 C   0  0  0  0  0  0
    7.9022  -11.8314   20.6384 C   0  0  0  0  0  0
    6.6717  -11.3809   21.1104 C   0  0  0  0  0  0
    6.5981  -10.7636   22.3565 C   0  0  0  0  0  0
    4.7557   -4.0599   21.1041 C   0  0  0  0  0  0
    4.0419   -5.2371   20.8156 C   0  0  0  0  0  0
    3.2380   -5.3437   19.6916 C   0  0  0  0  0  0
    3.0654   -4.2576   18.8533 C   0  0  0  0  0  0
    4.6020   -2.9269   20.2380 C   0  0  0  0  0  0
    3.7083   -3.0376   19.1248 C   0  0  0  0  0  0
    3.5643   -1.9591   18.2379 C   0  0  0  0  0  0
    4.3436   -0.8254   18.3897 C   0  0  0  0  0  0
    5.2381   -0.6943   19.4337 C   0  0  0  0  0  0
    5.3812   -1.7314   20.3404 C   0  0  0  0  0  0
    5.6376   -0.1532   24.6317 H   0  0  0  0  0  0
    4.5470   -1.7023   22.9194 H   0  0  0  0  0  0
    9.5685   -3.6782   25.0215 H   0  0  0  0  0  0
    9.4702   -2.0843   25.7752 H   0  0  0  0  0  0
    7.1191   -7.4001   23.9595 H   0  0  0  0  0  0
   11.1873   -8.3059   24.9985 H   0  0  0  0  0  0
   11.8540   -6.0527   24.2819 H   0  0  0  0  0  0
   10.1795   -4.4621   23.4302 H   0  0  0  0  0  0
    6.7759   -9.3486   24.6198 H   0  0  0  0  0  0
    7.4799  -10.8129   25.2197 H   0  0  0  0  0  0
    9.8892  -10.9061   23.2162 H   0  0  0  0  0  0
   10.0144  -11.9980   21.0100 H   0  0  0  0  0  0
    7.9580  -12.3118   19.6728 H   0  0  0  0  0  0
    5.7784  -11.5187   20.5175 H   0  0  0  0  0  0
    5.6383  -10.4383   22.7309 H   0  0  0  0  0  0
    4.1714   -6.1107   21.4394 H   0  0  0  0  0  0
    2.7599   -6.2791   19.4422 H   0  0  0  0  0  0
    2.4392   -4.3438   17.9771 H   0  0  0  0  0  0
    2.9070   -2.0538   17.3845 H   0  0  0  0  0  0
    4.3005   -0.0540   17.6410 H   0  0  0  0  0  0
    5.8646    0.1850   19.5016 H   0  0  0  0  0  0
    6.1696   -1.6331   21.0642 H   0  0  0  0  0  0
  1  4  2  0  0  0
  1  2  1  0  0  0
  2  3  2  0  0  0
  2 35  1  0  0  0
  3  6  1  0  0  0
  3 36  1  0  0  0
  4 10  1  0  0  0
  4  5  1  0  0  0
  5  9  2  0  0  0
  5  6  1  0  0  0
  6  7  1  0  0  0
  7  8  2  0  0  0
  7 25  1  0  0  0
  8  9  1  0  0  0
  9 11  1  0  0  0
 10 37  1  0  0  0
 10 38  1  0  0  0
 11 16  1  0  0  0
 11 12  2  0  0  0
 12 13  1  0  0  0
 12 39  1  0  0  0
 13 17  1  0  0  0
 13 14  2  0  0  0
 14 15  1  0  0  0
 14 40  1  0  0  0
 15 16  2  0  0  0
 15 41  1  0  0  0
 16 42  1  0  0  0
 17 18  1  0  0  0
 18 19  1  0  0  0
 18 43  1  0  0  0
 18 44  1  0  0  0
 19 20  2  0  0  0
 19 24  1  0  0  0
 20 21  1  0  0  0
 20 45  1  0  0  0
 21 22  2  0  0  0
 21 46  1  0  0  0
 22 23  1  0  0  0
 22 47  1  0  0  0
 23 24  2  0  0  0
 23 48  1  0  0  0
 24 49  1  0  0  0
 25 26  2  0  0  0
 25 29  1  0  0  0
 26 27  1  0  0  0
 26 50  1  0  0  0
 27 28  2  0  0  0
 27 51  1  0  0  0
 28 30  1  0  0  0
 28 52  1  0  0  0
 29 30  1  0  0  0
 29 34  2  0  0  0
 30 31  2  0  0  0
 31 32  1  0  0  0
 31 53  1  0  0  0
 32 33  2  0  0  0
 32 54  1  0  0  0
 33 34  1  0  0  0
 33 55  1  0  0  0
 34 56  1  0  0  0
M  END
> <s_m_entry_id>
5753

> <s_m_entry_name>
dock_pv.148

> <s_m_Source_Path>
/home/csk/Desktop/cluster/DUD-E-result/igf1r

> <s_m_Source_File>
dock_pv.maegz

> <i_m_Source_File_Index>
148

> <chembl_id>
CHEMBL393945

> <chembl_pref_name>
None

> <i_lp_mmshare_version>
53161

> <r_lp_tautomer_probability>
1

> <s_lp_Force_Field>
OPLS_2005

> <r_lp_Energy>
47.512726

> <b_lp_Chiralities_Consistent>
1

> <s_lp_Variant>
CHEMBL1957_lig141-1

> <s_i_glide_gridfile>
glide-grid_2oj9

> <i_i_glide_lignum>
309

> <i_i_glide_rotatable_bonds>
5

> <r_i_docking_score>
-7.31571924216942

> <r_i_glide_ligand_efficiency>
-0.215168213004983

> <r_i_glide_ligand_efficiency_sa>
-0.697061481291367

> <r_i_glide_ligand_efficiency_ln>
-1.61624757956942

> <r_i_glide_gscore>
-7.31571924216942

> <r_i_glide_lipo>
-3.73477956215185

> <r_i_glide_hbond>
-0.152703253768335

> <r_i_glide_metal>
0

> <r_i_glide_rewards>
-1.86387499059027

> <r_i_glide_evdw>
-33.7614631652832

> <r_i_glide_ecoul>
-2.54080271720886

> <r_i_glide_erotb>
0.510273657318329

> <r_i_glide_esite>
-0.00544152713180738

> <r_i_glide_emodel>
-38.9685809520554

> <r_i_glide_energy>
-36.3022658824921

> <r_i_glide_einternal>
3.40288305282593

> <i_i_glide_confnum>
27

> <i_i_glide_posenum>
297

> <r_i_glide_eff_state_penalty>
0

> <s_user_duplicate_titles>
CHEMBL1957_lig141

> <i_f3d_flags>
0

> <s_m_subgroup_title>
dock_pv

> <s_m_subgroupid>
dock_pv

> <b_m_subgroup_collapsed>
1

$$$$
CHEMBL1957_lig2300
                    3D
 Schrodinger Suite 2021-1.
 52 56  0  0  1  0            999 V2000
    6.2697  -11.6513   21.4675 C   0  0  0  0  0  0
    5.7283  -10.2527   21.2837 C   0  0  0  0  0  0
    5.0532   -9.6491   20.2432 C   0  0  0  0  0  0
    4.7938   -8.3307   20.6203 C   0  0  0  0  0  0
    4.1024   -7.4249   19.8553 N   0  0  0  0  0  0
    3.8713   -6.0540   20.0144 C   0  0  0  0  0  0
    3.2380   -5.4991   18.9508 N   0  0  0  0  0  0
    3.2166   -4.1455   18.8894 C   0  0  0  0  0  0
    3.7782   -3.3274   19.8692 C   0  0  0  0  0  0
    3.7156   -1.8006   19.8169 C   0  0  0  0  0  0
    5.0590   -1.1466   20.2222 C   0  0  0  0  0  0
    5.5577   -1.8034   21.5006 C   0  0  0  0  0  0
    6.2312   -1.1946   22.4389 N   0  0  0  0  0  0
    6.5255   -2.1535   23.3207 N   0  0  0  0  0  0
    7.2076   -1.7585   24.5437 C   0  0  0  0  0  0
    6.0404   -3.3975   22.9655 C   0  0  0  0  0  0
    6.2630   -4.6522   23.8074 C   0  0  0  0  0  0
    7.6607   -5.2651   23.8649 C   0  0  0  0  0  0
    7.8221   -6.4170   24.6380 C   0  0  0  0  0  0
    9.0806   -6.9769   24.8292 C   0  0  0  0  0  0
   10.1866   -6.3817   24.2370 C   0  0  0  0  0  0
   10.0372   -5.2540   23.4345 C   0  0  0  0  0  0
    8.7751   -4.6974   23.2381 C   0  0  0  0  0  0
    5.2977   -3.1498   21.8069 C   0  0  0  0  0  0
    4.4380   -3.9948   20.9206 C   0  0  0  0  0  0
    4.4386   -5.3539   21.0380 N   0  0  0  0  0  0
    5.2899   -8.0900   21.8148 N   0  0  0  0  0  0
    5.8191   -9.2537   22.2231 N   0  0  0  0  0  0
    6.4535   -9.3142   23.5271 C   0  0  0  0  0  0
    6.1244  -12.2591   20.5741 H   0  0  0  0  0  0
    7.3385  -11.6457   21.6809 H   0  0  0  0  0  0
    5.7755  -12.1669   22.2914 H   0  0  0  0  0  0
    4.7664  -10.1110   19.3130 H   0  0  0  0  0  0
    3.7676   -7.7311   18.9522 H   0  0  0  0  0  0
    2.7099   -3.7165   18.0352 H   0  0  0  0  0  0
    2.9287   -1.4713   20.4963 H   0  0  0  0  0  0
    3.4204   -1.4577   18.8240 H   0  0  0  0  0  0
    4.9398   -0.0695   20.3420 H   0  0  0  0  0  0
    5.7963   -1.2651   19.4274 H   0  0  0  0  0  0
    6.4836   -1.7159   25.3556 H   0  0  0  0  0  0
    8.0010   -2.4667   24.7809 H   0  0  0  0  0  0
    7.6380   -0.7648   24.4305 H   0  0  0  0  0  0
    5.5632   -5.4392   23.5230 H   0  0  0  0  0  0
    6.0324   -4.4417   24.8514 H   0  0  0  0  0  0
    6.9715   -6.8548   25.1390 H   0  0  0  0  0  0
    9.1986   -7.8542   25.4475 H   0  0  0  0  0  0
   11.1696   -6.8096   24.3725 H   0  0  0  0  0  0
   10.9027   -4.8181   22.9574 H   0  0  0  0  0  0
    8.6852   -3.8146   22.6228 H   0  0  0  0  0  0
    6.4396  -10.3372   23.9020 H   0  0  0  0  0  0
    7.4862   -8.9790   23.4344 H   0  0  0  0  0  0
    5.9150   -8.6796   24.2319 H   0  0  0  0  0  0
  1  2  1  0  0  0
  1 30  1  0  0  0
  1 31  1  0  0  0
  1 32  1  0  0  0
  2  3  2  0  0  0
  2 28  1  0  0  0
  3  4  1  0  0  0
  3 33  1  0  0  0
  4  5  1  0  0  0
  4 27  2  0  0  0
  5  6  1  0  0  0
  5 34  1  0  0  0
  6  7  2  0  0  0
  6 26  1  0  0  0
  7  8  1  0  0  0
  8  9  2  0  0  0
  8 35  1  0  0  0
  9 10  1  0  0  0
  9 25  1  0  0  0
 10 11  1  0  0  0
 10 36  1  0  0  0
 10 37  1  0  0  0
 11 12  1  0  0  0
 11 38  1  0  0  0
 11 39  1  0  0  0
 12 13  2  0  0  0
 12 24  1  0  0  0
 13 14  1  0  0  0
 14 15  1  0  0  0
 14 16  1  0  0  0
 15 40  1  0  0  0
 15 41  1  0  0  0
 15 42  1  0  0  0
 16 17  1  0  0  0
 16 24  2  0  0  0
 17 18  1  0  0  0
 17 43  1  0  0  0
 17 44  1  0  0  0
 18 19  2  0  0  0
 18 23  1  0  0  0
 19 20  1  0  0  0
 19 45  1  0  0  0
 20 21  2  0  0  0
 20 46  1  0  0  0
 21 22  1  0  0  0
 21 47  1  0  0  0
 22 23  2  0  0  0
 22 48  1  0  0  0
 23 49  1  0  0  0
 24 25  1  0  0  0
 25 26  2  0  0  0
 27 28  1  0  0  0
 28 29  1  0  0  0
 29 50  1  0  0  0
 29 51  1  0  0  0
 29 52  1  0  0  0
M  END
> <s_m_entry_id>
5754

> <s_m_entry_name>
dock_pv.149

> <s_m_Source_Path>
/home/csk/Desktop/cluster/DUD-E-result/igf1r

> <s_m_Source_File>
dock_pv.maegz

> <i_m_Source_File_Index>
149

> <chembl_id>
CHEMBL3656741

> <chembl_pref_name>
None

> <i_lp_mmshare_version>
53161

> <r_lp_tautomer_probability>
0.999999987636

> <s_lp_Force_Field>
OPLS_2005

> <r_lp_Energy>
7.051127

> <b_lp_Chiralities_Consistent>
1

> <s_lp_Variant>
CHEMBL1957_lig2300-1

> <s_i_glide_gridfile>
glide-grid_2oj9

> <i_i_glide_lignum>
3282

> <i_i_glide_rotatable_bonds>
4

> <r_i_docking_score>
-7.31495171096127

> <r_i_glide_ligand_efficiency>
-0.252239714171078

> <r_i_glide_ligand_efficiency_sa>
-0.774960317084152

> <r_i_glide_ligand_efficiency_ln>
-1.67493845063936

> <r_i_glide_gscore>
-7.31495171096127

> <r_i_glide_lipo>
-3.14360913606893

> <r_i_glide_hbond>
-0.242464570790435

> <r_i_glide_metal>
0

> <r_i_glide_rewards>
-1.71603997247598

> <r_i_glide_evdw>
-40.8343162536621

> <r_i_glide_ecoul>
-4.63215446472168

> <r_i_glide_erotb>
0.523700950765435

> <r_i_glide_esite>
0

> <r_i_glide_emodel>
-60.8906249966691

> <r_i_glide_energy>
-45.4664707183838

> <r_i_glide_einternal>
3.52256965637207

> <i_i_glide_confnum>
1

> <i_i_glide_posenum>
139

> <r_i_glide_eff_state_penalty>
0

> <s_user_duplicate_titles>
CHEMBL1957_lig2300

> <i_f3d_flags>
0

> <s_m_subgroup_title>
dock_pv

> <s_m_subgroupid>
dock_pv

> <b_m_subgroup_collapsed>
1

$$$$
CHEMBL1957_lig1237
                    3D
 Schrodinger Suite 2021-1.
 46 49  0  0  1  0            999 V2000
    3.3380   -3.4477   19.0270 C   0  0  0  0  0  0
    2.9056   -4.4968   18.2218 C   0  0  0  0  0  0
    3.0375   -5.7988   18.5781 N   0  0  0  0  0  0
    3.6382   -6.0506   19.7639 C   0  0  0  0  0  0
    4.0378   -5.0863   20.6380 N   0  0  0  0  0  0
    3.8972   -3.7827   20.2626 C   0  0  0  0  0  0
    4.4132   -2.7614   21.0740 N   0  0  0  0  0  0
    4.0417   -7.3864   19.9355 N   0  0  0  0  0  0
    5.4657   -2.8620   21.9484 C   0  0  0  0  0  0
    6.6068   -3.6398   22.0127 C   0  0  0  0  0  0
    7.3072   -3.2420   23.1627 C   0  0  0  0  0  0
    6.6470   -2.2936   23.7954 N   0  0  0  0  0  0
    5.5668   -2.0554   23.0465 N   0  0  0  0  0  0
    8.6255   -3.7821   23.6924 C   0  0  0  0  0  0
    9.2385   -3.2382   24.9736 C   0  0  0  0  0  0
    8.6766   -4.6389   24.9306 C   0  0  0  0  0  0
    3.2387   -1.6543   18.3963 Br  0  0  0  0  0  0
    4.8383   -8.0567   20.8845 C   0  0  0  0  0  0
    5.2375   -9.3744   20.6173 C   0  0  0  0  0  0
    6.0457  -10.0814   21.5258 C   0  0  0  0  0  0
    6.4444   -9.4560   22.7005 C   0  0  0  0  0  0
    6.0318   -8.1663   23.0062 C   0  0  0  0  0  0
    5.2379   -7.4728   22.0883 C   0  0  0  0  0  0
    6.4959  -11.3742   21.3630 O   0  0  0  0  0  0
    6.0708  -12.1211   20.2382 C   0  0  0  0  0  0
    6.4262   -7.6590   24.2234 O   0  0  0  0  0  0
    5.7771   -6.4866   24.6844 C   0  0  0  0  0  0
    2.4736   -4.3043   17.2525 H   0  0  0  0  0  0
    4.1201   -1.8518   20.7504 H   0  0  0  0  0  0
    3.8310   -7.9488   19.1233 H   0  0  0  0  0  0
    6.9032   -4.4067   21.3130 H   0  0  0  0  0  0
    4.8781   -1.3688   23.3086 H   0  0  0  0  0  0
    9.3276   -4.0549   22.9037 H   0  0  0  0  0  0
   10.3179   -3.1175   25.0389 H   0  0  0  0  0  0
    8.7142   -2.4542   25.5182 H   0  0  0  0  0  0
    7.7445   -4.8540   25.4375 H   0  0  0  0  0  0
    9.3556   -5.4925   24.9386 H   0  0  0  0  0  0
    4.9235   -9.8403   19.6962 H   0  0  0  0  0  0
    7.0568   -9.9969   23.4072 H   0  0  0  0  0  0
    4.9170   -6.4803   22.3364 H   0  0  0  0  0  0
    6.4831  -13.1281   20.2961 H   0  0  0  0  0  0
    4.9833  -12.2099   20.2137 H   0  0  0  0  0  0
    6.4382  -11.6658   19.3176 H   0  0  0  0  0  0
    6.0375   -6.3224   25.7240 H   0  0  0  0  0  0
    4.6998   -6.6096   24.6380 H   0  0  0  0  0  0
    6.0568   -5.6075   24.1071 H   0  0  0  0  0  0
  1  2  2  0  0  0
  1  6  1  0  0  0
  1 17  1  0  0  0
  2  3  1  0  0  0
  2 28  1  0  0  0
  3  4  2  0  0  0
  4  5  1  0  0  0
  4  8  1  0  0  0
  5  6  2  0  0  0
  6  7  1  0  0  0
  7  9  1  0  0  0
  7 29  1  0  0  0
  8 18  1  0  0  0
  8 30  1  0  0  0
  9 13  1  0  0  0
  9 10  2  0  0  0
 10 11  1  0  0  0
 10 31  1  0  0  0
 11 14  1  0  0  0
 11 12  2  0  0  0
 12 13  1  0  0  0
 13 32  1  0  0  0
 14 15  1  0  0  0
 14 16  1  0  0  0
 14 33  1  0  0  0
 15 16  1  0  0  0
 15 34  1  0  0  0
 15 35  1  0  0  0
 16 36  1  0  0  0
 16 37  1  0  0  0
 18 19  2  0  0  0
 18 23  1  0  0  0
 19 20  1  0  0  0
 19 38  1  0  0  0
 20 21  2  0  0  0
 20 24  1  0  0  0
 21 22  1  0  0  0
 21 39  1  0  0  0
 22 23  2  0  0  0
 22 26  1  0  0  0
 23 40  1  0  0  0
 24 25  1  0  0  0
 25 41  1  0  0  0
 25 42  1  0  0  0
 25 43  1  0  0  0
 26 27  1  0  0  0
 27 44  1  0  0  0
 27 45  1  0  0  0
 27 46  1  0  0  0
M  END
> <s_m_entry_id>
5755

> <s_m_entry_name>
dock_pv.150

> <s_m_Source_Path>
/home/csk/Desktop/cluster/DUD-E-result/igf1r

> <s_m_Source_File>
dock_pv.maegz

> <i_m_Source_File_Index>
150

> <chembl_id>
CHEMBL3951175

> <chembl_pref_name>
None

> <i_lp_mmshare_version>
53161

> <r_lp_tautomer_probability>
0.15739995007316

> <s_lp_Force_Field>
OPLS_2005

> <r_lp_Energy>
13.328398

> <b_lp_Chiralities_Consistent>
1

> <s_lp_Variant>
CHEMBL1957_lig1237-2

> <s_i_glide_gridfile>
glide-grid_2oj9

> <i_i_glide_lignum>
1611

> <i_i_glide_rotatable_bonds>
7

> <r_i_docking_score>
-7.31376565175814

> <r_i_glide_ligand_efficiency>
-0.270880209324376

> <r_i_glide_ligand_efficiency_sa>
-0.81264062708035

> <r_i_glide_ligand_efficiency_ln>
-1.70252406687893

> <r_i_glide_gscore>
-7.31376565175814

> <r_i_glide_lipo>
-3.08950528381411

> <r_i_glide_hbond>
-0.373183502790809

> <r_i_glide_metal>
0

> <r_i_glide_rewards>
-1.82064425838037

> <r_i_glide_evdw>
-40.1709136962891

> <r_i_glide_ecoul>
-2.64078497886658

> <r_i_glide_erotb>
0.374230824871583

> <r_i_glide_esite>
0

> <r_i_glide_emodel>
-58.4974141695429

> <r_i_glide_energy>
-42.8116986751556

> <r_i_glide_einternal>
8.23802185058594

> <i_i_glide_confnum>
1

> <i_i_glide_posenum>
15

> <r_i_glide_eff_state_penalty>
0

> <s_user_duplicate_titles>
CHEMBL1957_lig1237

> <i_f3d_flags>
0

> <s_m_subgroup_title>
dock_pv

> <s_m_subgroupid>
dock_pv

> <b_m_subgroup_collapsed>
1

$$$$
CHEMBL1957_lig2943
                    3D
 Schrodinger Suite 2021-1.
 41 43  0  0  1  0            999 V2000
    5.1252   -0.2408   19.6491 C   0  0  0  0  0  0
    5.9340   -0.7996   20.6393 C   0  0  0  0  0  0
    3.6986   -2.2092   19.5467 C   0  0  0  0  0  0
    4.0382   -0.9280   19.1095 C   0  0  0  0  0  0
    4.5178   -2.8128   20.5120 C   0  0  0  0  0  0
    5.6312   -2.1060   21.0386 C   0  0  0  0  0  0
    6.2401   -3.0064   21.8951 N   0  0  0  0  0  0
    5.4887   -4.1695   21.8272 C   0  0  0  0  0  0
    4.4387   -4.0699   21.0380 N   0  0  0  0  0  0
    5.9477   -5.2997   22.4798 N   0  0  0  0  0  0
    5.3995   -6.5333   22.4945 C   0  0  0  0  0  0
    4.3243   -6.8306   21.9688 O   0  0  0  0  0  0
    6.2436   -7.5906   23.1750 C   0  0  0  0  0  0
    6.0371   -8.9443   22.8756 C   0  0  0  0  0  0
    6.8388   -9.9311   23.4438 C   0  0  0  0  0  0
    7.8730   -9.5803   24.3082 C   0  0  0  0  0  0
    8.1109   -8.2353   24.6230 C   0  0  0  0  0  0
    7.2743   -7.2558   24.0714 C   0  0  0  0  0  0
    9.2401   -7.8451   25.4964 N   0  3  0  0  0  0
    9.7387   -8.6987   26.2247 O   0  0  0  0  0  0
    9.6379   -6.6848   25.4391 O   0  5  0  0  0  0
    7.4721   -2.7897   22.6678 C   0  0  0  0  0  0
    7.1930   -2.3062   24.1012 C   0  0  0  0  0  0
    6.4530   -0.9592   24.1839 C   0  0  0  0  0  0
    6.6719   -0.3564   25.4380 O   0  0  0  0  0  0
    5.3605    0.7459   19.2737 H   0  0  0  0  0  0
    6.7874   -0.2646   21.0244 H   0  0  0  0  0  0
    2.8595   -2.7398   19.1191 H   0  0  0  0  0  0
    3.4503   -0.4560   18.3354 H   0  0  0  0  0  0
    6.8128   -5.1828   22.9785 H   0  0  0  0  0  0
    5.2527   -9.2476   22.1946 H   0  0  0  0  0  0
    6.6576  -10.9700   23.2082 H   0  0  0  0  0  0
    8.4972  -10.3595   24.7225 H   0  0  0  0  0  0
    7.4528   -6.2256   24.3491 H   0  0  0  0  0  0
    8.0624   -3.7062   22.6743 H   0  0  0  0  0  0
    8.0850   -2.0539   22.1553 H   0  0  0  0  0  0
    6.6272   -3.0658   24.6388 H   0  0  0  0  0  0
    8.1534   -2.2303   24.6148 H   0  0  0  0  0  0
    6.8379   -0.2664   23.4363 H   0  0  0  0  0  0
    5.3908   -1.0807   23.9698 H   0  0  0  0  0  0
    7.5632    0.0129   25.4379 H   0  0  0  0  0  0
  1  4  2  0  0  0
  1  2  1  0  0  0
  1 26  1  0  0  0
  2  6  2  0  0  0
  2 27  1  0  0  0
  3  4  1  0  0  0
  3  5  2  0  0  0
  3 28  1  0  0  0
  4 29  1  0  0  0
  5  6  1  0  0  0
  5  9  1  0  0  0
  6  7  1  0  0  0
  7  8  1  0  0  0
  7 22  1  0  0  0
  8  9  2  0  0  0
  8 10  1  0  0  0
 10 11  1  0  0  0
 10 30  1  0  0  0
 11 12  2  0  0  0
 11 13  1  0  0  0
 13 14  2  0  0  0
 13 18  1  0  0  0
 14 15  1  0  0  0
 14 31  1  0  0  0
 15 16  2  0  0  0
 15 32  1  0  0  0
 16 17  1  0  0  0
 16 33  1  0  0  0
 17 18  2  0  0  0
 17 19  1  0  0  0
 18 34  1  0  0  0
 19 20  2  0  0  0
 19 21  1  0  0  0
 22 23  1  0  0  0
 22 35  1  0  0  0
 22 36  1  0  0  0
 23 24  1  0  0  0
 23 37  1  0  0  0
 23 38  1  0  0  0
 24 25  1  0  0  0
 24 39  1  0  0  0
 24 40  1  0  0  0
 25 41  1  0  0  0
M  CHG  2  19   1  21  -1
M  END
> <s_m_entry_id>
5756

> <s_m_entry_name>
dock_pv.151

> <s_m_Source_Path>
/home/csk/Desktop/cluster/DUD-E-result/igf1r

> <s_m_Source_File>
dock_pv.maegz

> <i_m_Source_File_Index>
151

> <chembl_id>
CHEMBL210887

> <chembl_pref_name>
None

> <i_lp_mmshare_version>
53161

> <r_lp_tautomer_probability>
1

> <s_lp_Force_Field>
OPLS_2005

> <r_lp_Energy>
22.669755

> <b_lp_Chiralities_Consistent>
1

> <s_lp_Variant>
CHEMBL1957_lig2943-1

> <s_i_glide_gridfile>
glide-grid_2oj9

> <i_i_glide_lignum>
4072

> <i_i_glide_rotatable_bonds>
8

> <r_i_docking_score>
-7.30868365270292

> <r_i_glide_ligand_efficiency>
-0.292347346108117

> <r_i_glide_ligand_efficiency_sa>
-0.854828824822394

> <r_i_glide_ligand_efficiency_ln>
-1.73237704926555

> <r_i_glide_gscore>
-7.30868365270292

> <r_i_glide_lipo>
-2.48294842715274

> <r_i_glide_hbond>
-0.511942244425614

> <r_i_glide_metal>
0

> <r_i_glide_rewards>
-2.3717630716063

> <r_i_glide_evdw>
-40.7240524291992

> <r_i_glide_ecoul>
-5.9012656211853

> <r_i_glide_erotb>
0.980914759804849

> <r_i_glide_esite>
-0.00155220468536357

> <r_i_glide_emodel>
-64.8983391465916

> <r_i_glide_energy>
-46.6253180503845

> <r_i_glide_einternal>
3.93365406990051

> <i_i_glide_confnum>
24

> <i_i_glide_posenum>
130

> <r_i_glide_eff_state_penalty>
0

> <s_user_duplicate_titles>
CHEMBL1957_lig2943

> <i_f3d_flags>
0

> <s_m_subgroup_title>
dock_pv

> <s_m_subgroupid>
dock_pv

> <b_m_subgroup_collapsed>
1

$$$$
CHEMBL1957_lig111
                    3D
 Schrodinger Suite 2021-1.
 37 40  0  0  1  0            999 V2000
    7.8401   -2.9120   24.2379 N   0  0  0  0  0  0
    7.2399   -1.7694   23.8448 C   0  0  0  0  0  0
    6.2229   -1.7562   22.9053 C   0  0  0  0  0  0
    7.4248   -4.0925   23.7257 C   0  0  0  0  0  0
    6.3593   -4.1896   22.8058 C   0  0  0  0  0  0
    5.8041   -2.9581   22.3932 N   0  0  0  0  0  0
    4.8617   -3.2673   21.4394 C   0  0  0  0  0  0
    4.7419   -4.5638   21.3026 N   0  0  0  0  0  0
    5.5974   -5.1726   22.0954 C   0  0  0  0  0  0
    4.0920   -2.2556   20.6046 C   0  0  0  0  0  0
    4.9169   -1.1036   20.0017 C   0  0  0  0  0  0
    4.0927   -1.2466   18.7263 C   0  0  0  0  0  0
    3.7448   -2.6714   19.1618 C   0  0  0  0  0  0
    8.1414   -5.1980   24.1504 N   0  0  0  0  0  0
    5.6162   -6.6720   22.1266 C   0  0  0  0  0  0
    5.2353   -7.3844   20.9783 C   0  0  0  0  0  0
    5.2383   -8.7760   20.9625 C   0  0  0  0  0  0
    5.6544   -9.4800   22.0891 C   0  0  0  0  0  0
    6.0392   -8.7889   23.2379 C   0  0  0  0  0  0
    6.0015   -7.3937   23.2625 C   0  0  0  0  0  0
    4.8377   -9.4449   19.8381 O   0  0  0  0  0  0
    7.6198   -0.8540   24.2774 H   0  0  0  0  0  0
    5.7444   -0.8573   22.5549 H   0  0  0  0  0  0
    3.2052   -1.9168   21.1407 H   0  0  0  0  0  0
    4.8379   -0.1304   20.4843 H   0  0  0  0  0  0
    5.9670   -1.3507   19.8230 H   0  0  0  0  0  0
    3.2384   -0.5783   18.6410 H   0  0  0  0  0  0
    4.7026   -1.1642   17.8380 H   0  0  0  0  0  0
    4.4360   -3.3937   18.7220 H   0  0  0  0  0  0
    2.7090   -2.9612   18.9813 H   0  0  0  0  0  0
    7.9806   -6.0956   23.7216 H   0  0  0  0  0  0
    8.9103   -5.0397   24.7833 H   0  0  0  0  0  0
    4.9264   -6.8562   20.0887 H   0  0  0  0  0  0
    5.6611  -10.5605   22.0819 H   0  0  0  0  0  0
    6.3415   -9.3399   24.1164 H   0  0  0  0  0  0
    6.2429   -6.8841   24.1823 H   0  0  0  0  0  0
    4.5666   -8.8662   19.1189 H   0  0  0  0  0  0
  1  2  1  0  0  0
  1  4  2  0  0  0
  2  3  2  0  0  0
  2 22  1  0  0  0
  3  6  1  0  0  0
  3 23  1  0  0  0
  4 14  1  0  0  0
  4  5  1  0  0  0
  5  6  1  0  0  0
  5  9  2  0  0  0
  6  7  1  0  0  0
  7 10  1  0  0  0
  7  8  2  0  0  0
  8  9  1  0  0  0
  9 15  1  0  0  0
 10 11  1  0  0  0
 10 13  1  0  0  0
 10 24  1  0  0  0
 11 12  1  0  0  0
 11 25  1  0  0  0
 11 26  1  0  0  0
 12 13  1  0  0  0
 12 27  1  0  0  0
 12 28  1  0  0  0
 13 29  1  0  0  0
 13 30  1  0  0  0
 14 31  1  0  0  0
 14 32  1  0  0  0
 15 16  2  0  0  0
 15 20  1  0  0  0
 16 17  1  0  0  0
 16 33  1  0  0  0
 17 18  2  0  0  0
 17 21  1  0  0  0
 18 19  1  0  0  0
 18 34  1  0  0  0
 19 20  2  0  0  0
 19 35  1  0  0  0
 20 36  1  0  0  0
 21 37  1  0  0  0
M  END
> <s_m_entry_id>
5757

> <s_m_entry_name>
dock_pv.152

> <s_m_Source_Path>
/home/csk/Desktop/cluster/DUD-E-result/igf1r

> <s_m_Source_File>
dock_pv.maegz

> <i_m_Source_File_Index>
152

> <chembl_id>
CHEMBL245407

> <chembl_pref_name>
None

> <i_lp_mmshare_version>
53161

> <r_lp_tautomer_probability>
0.999999999997365

> <s_lp_Force_Field>
OPLS_2005

> <r_lp_Energy>
31.726954

> <b_lp_Chiralities_Consistent>
1

> <s_lp_Variant>
CHEMBL1957_lig111-1

> <s_i_glide_gridfile>
glide-grid_2oj9

> <i_i_glide_lignum>
276

> <i_i_glide_rotatable_bonds>
3

> <r_i_docking_score>
-7.28954762197913

> <r_i_glide_ligand_efficiency>
-0.347121315332339

> <r_i_glide_ligand_efficiency_sa>
-0.957681388035712

> <r_i_glide_ligand_efficiency_ln>
-1.80232591961642

> <r_i_glide_gscore>
-7.28954762197913

> <r_i_glide_lipo>
-3.30282136945773

> <r_i_glide_hbond>
-0.231099717162448

> <r_i_glide_metal>
0

> <r_i_glide_rewards>
-2.29978465036019

> <r_i_glide_evdw>
-35.8283767700195

> <r_i_glide_ecoul>
-0.826826393604279

> <r_i_glide_erotb>
0.459600912542867

> <r_i_glide_esite>
0

> <r_i_glide_emodel>
-52.8502370020874

> <r_i_glide_energy>
-36.6552031636238

> <r_i_glide_einternal>
1.65376591682434

> <i_i_glide_confnum>
2

> <i_i_glide_posenum>
160

> <r_i_glide_eff_state_penalty>
0

> <s_user_duplicate_titles>
CHEMBL1957_lig111,408764

> <i_f3d_flags>
0

> <s_m_subgroup_title>
dock_pv

> <s_m_subgroupid>
dock_pv

> <b_m_subgroup_collapsed>
1

$$$$
CHEMBL1957_lig818
                    3D
 Schrodinger Suite 2021-1.
 47 50  0  0  1  0            999 V2000
    3.9392   -1.5991   18.9904 N   0  0  0  0  0  0
    4.4329   -2.1549   20.1231 C   0  0  0  0  0  0
    4.2413   -3.4396   20.5146 N   0  0  0  0  0  0
    3.5662   -4.2532   19.6679 C   0  0  0  0  0  0
    3.0368   -3.7730   18.4690 C   0  0  0  0  0  0
    3.2380   -2.4267   18.1761 C   0  0  0  0  0  0
    3.5072   -5.6361   19.8991 N   0  0  0  0  0  0
    4.2534   -6.4659   20.7544 C   0  0  0  0  0  0
    4.8438   -6.0423   21.9480 C   0  0  0  0  0  0
    5.2378   -8.6734   21.0364 N   0  0  0  0  0  0
    4.4647   -7.7888   20.3591 C   0  0  0  0  0  0
    5.8382   -8.2567   22.1832 C   0  0  0  0  0  0
    5.6637   -6.9299   22.6857 C   0  0  0  0  0  0
    6.3243   -6.5504   23.8777 C   0  0  0  0  0  0
    7.1464   -7.4602   24.5397 C   0  0  0  0  0  0
    7.3128   -8.7527   24.0523 C   0  0  0  0  0  0
    6.6651   -9.1614   22.8902 C   0  0  0  0  0  0
    5.2399   -1.3257   20.9025 N   0  0  0  0  0  0
    6.0382   -1.6747   21.9986 C   0  0  0  0  0  0
    6.0385   -0.8543   23.1230 C   0  0  0  0  0  0
    6.8378   -1.1545   24.2381 C   0  0  0  0  0  0
    7.6911   -2.2664   24.1827 C   0  0  0  0  0  0
    7.6746   -3.0993   23.0547 C   0  0  0  0  0  0
    6.8498   -2.8092   21.9737 C   0  0  0  0  0  0
    8.5428   -2.4541   25.2522 O   0  0  0  0  0  0
    9.2395   -3.6888   25.3796 C   0  0  0  0  0  0
    6.8370   -0.4094   25.4063 O   0  0  0  0  0  0
    5.9370    0.6828   25.5434 C   0  0  0  0  0  0
    2.5104   -4.4110   17.7765 H   0  0  0  0  0  0
    2.8489   -2.0009   17.2614 H   0  0  0  0  0  0
    3.0322   -6.1303   19.1611 H   0  0  0  0  0  0
    4.7154   -5.0410   22.3271 H   0  0  0  0  0  0
    4.0394   -8.1628   19.4383 H   0  0  0  0  0  0
    6.1979   -5.5487   24.2657 H   0  0  0  0  0  0
    7.6626   -7.1590   25.4380 H   0  0  0  0  0  0
    7.9561   -9.4432   24.5806 H   0  0  0  0  0  0
    6.7934  -10.1685   22.5187 H   0  0  0  0  0  0
    5.4266   -0.4282   20.4837 H   0  0  0  0  0  0
    5.4177    0.0226   23.1146 H   0  0  0  0  0  0
    8.3235   -3.9597   22.9876 H   0  0  0  0  0  0
    6.8721   -3.4518   21.1042 H   0  0  0  0  0  0
    9.7009   -3.7337   26.3642 H   0  0  0  0  0  0
   10.0343   -3.7776   24.6389 H   0  0  0  0  0  0
    8.5692   -4.5475   25.2997 H   0  0  0  0  0  0
    6.0377    1.1136   26.5388 H   0  0  0  0  0  0
    6.1480    1.4677   24.8160 H   0  0  0  0  0  0
    4.8986    0.3624   25.4377 H   0  0  0  0  0  0
  1  2  2  0  0  0
  1  6  1  0  0  0
  2 18  1  0  0  0
  2  3  1  0  0  0
  3  4  2  0  0  0
  4  7  1  0  0  0
  4  5  1  0  0  0
  5  6  2  0  0  0
  5 29  1  0  0  0
  6 30  1  0  0  0
  7  8  1  0  0  0
  7 31  1  0  0  0
  8  9  2  0  0  0
  8 11  1  0  0  0
  9 13  1  0  0  0
  9 32  1  0  0  0
 10 12  1  0  0  0
 10 11  2  0  0  0
 11 33  1  0  0  0
 12 17  2  0  0  0
 12 13  1  0  0  0
 13 14  2  0  0  0
 14 15  1  0  0  0
 14 34  1  0  0  0
 15 16  2  0  0  0
 15 35  1  0  0  0
 16 17  1  0  0  0
 16 36  1  0  0  0
 17 37  1  0  0  0
 18 19  1  0  0  0
 18 38  1  0  0  0
 19 20  2  0  0  0
 19 24  1  0  0  0
 20 21  1  0  0  0
 20 39  1  0  0  0
 21 22  2  0  0  0
 21 27  1  0  0  0
 22 23  1  0  0  0
 22 25  1  0  0  0
 23 24  2  0  0  0
 23 40  1  0  0  0
 24 41  1  0  0  0
 25 26  1  0  0  0
 26 42  1  0  0  0
 26 43  1  0  0  0
 26 44  1  0  0  0
 27 28  1  0  0  0
 28 45  1  0  0  0
 28 46  1  0  0  0
 28 47  1  0  0  0
M  END
> <s_m_entry_id>
5758

> <s_m_entry_name>
dock_pv.153

> <s_m_Source_Path>
/home/csk/Desktop/cluster/DUD-E-result/igf1r

> <s_m_Source_File>
dock_pv.maegz

> <i_m_Source_File_Index>
153

> <chembl_id>
CHEMBL1760049

> <chembl_pref_name>
None

> <i_lp_mmshare_version>
53161

> <r_lp_tautomer_probability>
0.999999624730965

> <s_lp_Force_Field>
OPLS_2005

> <r_lp_Energy>
21.285526

> <b_lp_Chiralities_Consistent>
1

> <s_lp_Variant>
CHEMBL1957_lig818-1

> <s_i_glide_gridfile>
glide-grid_2oj9

> <i_i_glide_lignum>
1049

> <i_i_glide_rotatable_bonds>
6

> <r_i_docking_score>
-7.28909892153666

> <r_i_glide_ligand_efficiency>
-0.260324961483452

> <r_i_glide_ligand_efficiency_sa>
-0.790499906266571

> <r_i_glide_ligand_efficiency_ln>
-1.68253804833463

> <r_i_glide_gscore>
-7.28909892153666

> <r_i_glide_lipo>
-3.68126686501623

> <r_i_glide_hbond>
-0.32

> <r_i_glide_metal>
0

> <r_i_glide_rewards>
-1.18169293795948

> <r_i_glide_evdw>
-45.5550422668457

> <r_i_glide_ecoul>
-2.55177664756775

> <r_i_glide_erotb>
0.554379491916492

> <r_i_glide_esite>
0

> <r_i_glide_emodel>
-66.3822982635738

> <r_i_glide_energy>
-48.1068189144135

> <r_i_glide_einternal>
2.36771440505981

> <i_i_glide_confnum>
1

> <i_i_glide_posenum>
23

> <r_i_glide_eff_state_penalty>
0

> <s_user_duplicate_titles>
CHEMBL1957_lig818

> <i_f3d_flags>
0

> <s_m_subgroup_title>
dock_pv

> <s_m_subgroupid>
dock_pv

> <b_m_subgroup_collapsed>
1

$$$$
CHEMBL1957_lig2008
                    3D
 Schrodinger Suite 2021-1.
 61 66  0  0  1  0            999 V2000
    6.4846   -9.3771   23.8361 C   0  0  0  0  0  0
    7.1411   -9.3664   22.4432 C   0  0  1  0  0  0
    7.6237  -10.8128   22.1020 C   0  0  0  0  0  0
    6.7883  -11.2673   20.9169 C   0  0  0  0  0  0
    5.6471  -10.2667   20.8609 C   0  0  0  0  0  0
    6.1098   -9.0018   21.4382 N   0  0  0  0  0  0
    5.3912   -7.7932   21.3259 C   0  0  0  0  0  0
    5.7581   -6.7818   22.1445 N   0  0  0  0  0  0
    5.2791   -5.5466   21.9165 C   0  0  0  0  0  0
    5.8963   -4.5595   22.6936 N   0  0  0  0  0  0
    5.9761   -3.2285   22.3984 C   0  0  0  0  0  0
    6.0320   -2.5409   21.2175 C   0  0  0  0  0  0
    5.9491   -1.1895   21.5237 C   0  0  0  0  0  0
    6.0378   -1.0048   22.8249 N   0  0  0  0  0  0
    6.0440   -2.2422   23.3423 N   0  0  0  0  0  0
    5.7157   -0.0460   20.5681 C   0  0  0  0  0  0
    5.7205   -0.2653   19.0606 C   0  0  0  0  0  0
    4.4400   -0.0182   19.7838 C   0  0  0  0  0  0
    4.3469   -5.3071   20.8841 C   0  0  0  0  0  0
    3.6384   -4.2155   20.2949 C   0  0  0  0  0  0
    3.1154   -4.6783   19.1030 C   0  0  0  0  0  0
    3.2380   -6.0574   19.0651 C   0  0  0  0  0  0
    4.0376   -6.4514   20.1147 N   0  0  0  0  0  0
    4.5057   -7.6924   20.3024 N   0  0  0  0  0  0
    8.3646   -8.3791   22.4105 C   0  0  0  0  0  0
    9.2314   -8.4573   21.5376 O   0  0  0  0  0  0
    8.4497   -7.4351   23.3671 N   0  0  0  0  0  0
    9.5573   -6.4931   23.4766 C   0  0  2  0  0  0
    9.8000   -6.0375   24.8994 C   0  0  0  0  0  0
    9.2393   -4.6138   24.9574 C   0  0  0  0  0  0
    8.7965   -4.2247   23.6281 N   0  0  2  0  0  0
    9.3590   -5.1944   22.6996 C   0  0  0  0  0  0
    7.1766   -9.7203   24.6075 H   0  0  0  0  0  0
    6.0967   -8.4094   24.1550 H   0  0  0  0  0  0
    5.6394  -10.0541   23.8377 H   0  0  0  0  0  0
    8.6835  -10.8993   21.8507 H   0  0  0  0  0  0
    7.4574  -11.5015   22.9326 H   0  0  0  0  0  0
    7.3609  -11.2540   19.9886 H   0  0  0  0  0  0
    6.4179  -12.2854   21.0420 H   0  0  0  0  0  0
    5.3599  -10.0927   19.8230 H   0  0  0  0  0  0
    4.7337  -10.6123   21.3469 H   0  0  0  0  0  0
    6.5761   -4.9511   23.3326 H   0  0  0  0  0  0
    6.0094   -2.9760   20.2394 H   0  0  0  0  0  0
    6.0814   -2.4110   24.3361 H   0  0  0  0  0  0
    6.0388    0.9261   20.9382 H   0  0  0  0  0  0
    6.1075    0.5129   18.4061 H   0  0  0  0  0  0
    5.9015   -1.2539   18.6499 H   0  0  0  0  0  0
    3.7277   -0.8401   19.8776 H   0  0  0  0  0  0
    3.9588    0.9469   19.6518 H   0  0  0  0  0  0
    3.6072   -3.1854   20.6171 H   0  0  0  0  0  0
    2.6089   -4.0712   18.3640 H   0  0  0  0  0  0
    2.8771   -6.7692   18.3433 H   0  0  0  0  0  0
    7.6503   -7.2712   23.9585 H   0  0  0  0  0  0
   10.4377   -7.0191   23.1216 H   0  0  0  0  0  0
   10.8767   -5.9991   25.0334 H   0  0  0  0  0  0
    9.3888   -6.7095   25.6540 H   0  0  0  0  0  0
    9.9973   -3.9058   25.2863 H   0  0  0  0  0  0
    8.4346   -4.5332   25.6791 H   0  0  0  0  0  0
    9.2045   -3.3217   23.4048 H   0  0  0  0  0  0
    8.8010   -5.3161   21.7703 H   0  0  0  0  0  0
   10.3409   -4.8048   22.4215 H   0  0  0  0  0  0
  1  2  1  0  0  0
  1 33  1  0  0  0
  1 34  1  0  0  0
  1 35  1  0  0  0
  2  3  1  0  0  0
  2  6  1  0  0  0
  2 25  1  0  0  0
  3  4  1  0  0  0
  3 36  1  0  0  0
  3 37  1  0  0  0
  4  5  1  0  0  0
  4 38  1  0  0  0
  4 39  1  0  0  0
  5  6  1  0  0  0
  5 40  1  0  0  0
  5 41  1  0  0  0
  6  7  1  0  0  0
  7  8  1  0  0  0
  7 24  2  0  0  0
  8  9  2  0  0  0
  9 19  1  0  0  0
  9 10  1  0  0  0
 10 11  1  0  0  0
 10 42  1  0  0  0
 11 15  1  0  0  0
 11 12  2  0  0  0
 12 13  1  0  0  0
 12 43  1  0  0  0
 13 16  1  0  0  0
 13 14  2  0  0  0
 14 15  1  0  0  0
 15 44  1  0  0  0
 16 17  1  0  0  0
 16 18  1  0  0  0
 16 45  1  0  0  0
 17 18  1  0  0  0
 17 46  1  0  0  0
 17 47  1  0  0  0
 18 48  1  0  0  0
 18 49  1  0  0  0
 19 20  2  0  0  0
 19 23  1  0  0  0
 20 21  1  0  0  0
 20 50  1  0  0  0
 21 22  2  0  0  0
 21 51  1  0  0  0
 22 23  1  0  0  0
 22 52  1  0  0  0
 23 24  1  0  0  0
 25 26  2  0  0  0
 25 27  1  0  0  0
 27 28  1  0  0  0
 27 53  1  0  0  0
 28 29  1  0  0  0
 28 32  1  0  0  0
 28 54  1  0  0  0
 29 30  1  0  0  0
 29 55  1  0  0  0
 29 56  1  0  0  0
 30 31  1  0  0  0
 30 57  1  0  0  0
 30 58  1  0  0  0
 31 32  1  0  0  0
 31 59  1  0  0  0
 32 60  1  0  0  0
 32 61  1  0  0  0
M  END
> <s_m_entry_id>
5759

> <s_m_entry_name>
dock_pv.154

> <s_m_Source_Path>
/home/csk/Desktop/cluster/DUD-E-result/igf1r

> <s_m_Source_File>
dock_pv.maegz

> <i_m_Source_File_Index>
154

> <chembl_id>
CHEMBL3655736

> <chembl_pref_name>
None

> <i_lp_mmshare_version>
53161

> <r_lp_tautomer_probability>
0.157399999843308

> <s_lp_Force_Field>
OPLS_2005

> <r_lp_Energy>
67.627853

> <b_lp_Chiralities_Consistent>
1

> <s_lp_Variant>
CHEMBL1957_lig2008-3

> <s_i_glide_gridfile>
glide-grid_2oj9

> <i_i_glide_lignum>
2931

> <i_i_glide_rotatable_bonds>
7

> <r_i_docking_score>
-7.28805548483897

> <r_i_glide_ligand_efficiency>
-0.227751733901218

> <r_i_glide_ligand_efficiency_sa>
-0.72306668312943

> <r_i_glide_ligand_efficiency_ln>
-1.63199428794476

> <r_i_glide_gscore>
-7.28805548483897

> <r_i_glide_lipo>
-3.18901686428053

> <r_i_glide_hbond>
-0.595618857894514

> <r_i_glide_metal>
0

> <r_i_glide_rewards>
-1.47417585386444

> <r_i_glide_evdw>
-34.9011077880859

> <r_i_glide_ecoul>
-6.79161596298218

> <r_i_glide_erotb>
0.735310274034432

> <r_i_glide_esite>
-0.000756398982295654

> <r_i_glide_emodel>
-41.8792380918671

> <r_i_glide_energy>
-41.6927237510681

> <r_i_glide_einternal>
10.9812097549438

> <i_i_glide_confnum>
105

> <i_i_glide_posenum>
181

> <r_i_glide_eff_state_penalty>
0

> <s_user_duplicate_titles>
CHEMBL1957_lig2008

> <i_f3d_flags>
0

> <s_m_subgroup_title>
dock_pv

> <s_m_subgroupid>
dock_pv

> <b_m_subgroup_collapsed>
1

$$$$
CHEMBL1957_lig2905
                    3D
 Schrodinger Suite 2021-1.
 43 45  0  0  1  0            999 V2000
   10.1456   -7.3216   24.6321 O   0  0  0  0  0  0
    9.6383   -4.0531   24.6261 O   0  0  0  0  0  0
    5.2921   -4.6449   22.1922 N   0  0  0  0  0  0
    8.1145   -6.6355   23.8677 N   0  0  0  0  0  0
    3.9361   -5.7942   20.5920 N   0  0  0  0  0  0
    3.0802   -4.8341   18.5361 N   0  0  0  0  0  0
    3.3536   -2.4569   18.3533 N   0  0  0  0  0  0
    4.4389   -4.6086   21.0377 C   0  0  0  0  0  0
    4.1817   -3.4374   20.2405 C   0  0  0  0  0  0
    6.2767   -5.7755   22.3778 C   0  0  2  0  0  0
    3.4869   -3.6583   19.0085 C   0  0  0  0  0  0
    5.6509   -7.2073   22.5037 C   0  0  1  0  0  0
    7.1691   -5.5151   23.6381 C   0  0  0  0  0  0
    4.4904   -2.0225   20.2390 C   0  0  0  0  0  0
    6.7720   -8.2417   22.7214 C   0  0  0  0  0  0
    3.3052   -5.8508   19.3946 C   0  0  0  0  0  0
    3.9727   -1.4732   19.0815 C   0  0  0  0  0  0
    7.5330   -7.9796   24.0302 C   0  0  0  0  0  0
    9.4224   -6.4287   24.1821 C   0  0  0  0  0  0
    5.6762   -3.3156   22.6900 C   0  0  0  0  0  0
    4.5597   -7.3105   23.5807 C   0  0  0  0  0  0
   10.0974   -5.1043   23.7884 C   0  0  0  0  0  0
    9.9672   -3.2337   24.2319 H   0  0  0  0  0  0
    2.9185   -2.3037   17.4537 H   0  0  0  0  0  0
    6.9189   -5.7563   21.4954 H   0  0  0  0  0  0
    5.2261   -7.5327   21.5583 H   0  0  0  0  0  0
    6.5542   -5.3691   24.5265 H   0  0  0  0  0  0
    7.7019   -4.5965   23.4191 H   0  0  0  0  0  0
    5.0587   -1.4507   20.9564 H   0  0  0  0  0  0
    7.4658   -8.2583   21.8785 H   0  0  0  0  0  0
    6.3402   -9.2422   22.7800 H   0  0  0  0  0  0
    3.0299   -6.8324   19.0376 H   0  0  0  0  0  0
    4.0233   -0.4632   18.6982 H   0  0  0  0  0  0
    8.2822   -8.7636   24.1579 H   0  0  0  0  0  0
    6.8603   -7.9834   24.8890 H   0  0  0  0  0  0
    4.8165   -2.6467   22.7182 H   0  0  0  0  0  0
    6.0369   -3.3285   23.7179 H   0  0  0  0  0  0
    6.4497   -2.8726   22.0603 H   0  0  0  0  0  0
    4.8389   -6.8003   24.5022 H   0  0  0  0  0  0
    3.6362   -6.8740   23.2088 H   0  0  0  0  0  0
    4.3691   -8.3507   23.8393 H   0  0  0  0  0  0
    9.8762   -4.8769   22.7445 H   0  0  0  0  0  0
   11.1832   -5.1962   23.8401 H   0  0  0  0  0  0
  1 19  2  0  0  0
  2 22  1  0  0  0
  2 23  1  0  0  0
  3  8  1  0  0  0
  3 10  1  0  0  0
  3 20  1  0  0  0
  4 13  1  0  0  0
  4 18  1  0  0  0
  4 19  1  0  0  0
  5  8  2  0  0  0
  5 16  1  0  0  0
  6 11  1  0  0  0
  6 16  2  0  0  0
  7 11  1  0  0  0
  7 17  1  0  0  0
  7 24  1  0  0  0
  8  9  1  0  0  0
  9 11  2  0  0  0
  9 14  1  0  0  0
 10 12  1  0  0  0
 10 13  1  0  0  0
 10 25  1  0  0  0
 12 15  1  0  0  0
 12 21  1  0  0  0
 12 26  1  0  0  0
 13 27  1  0  0  0
 13 28  1  0  0  0
 14 17  2  0  0  0
 14 29  1  0  0  0
 15 18  1  0  0  0
 15 30  1  0  0  0
 15 31  1  0  0  0
 16 32  1  0  0  0
 17 33  1  0  0  0
 18 34  1  0  0  0
 18 35  1  0  0  0
 19 22  1  0  0  0
 20 36  1  0  0  0
 20 37  1  0  0  0
 20 38  1  0  0  0
 21 39  1  0  0  0
 21 40  1  0  0  0
 21 41  1  0  0  0
 22 42  1  0  0  0
 22 43  1  0  0  0
M  END
> <s_m_entry_id>
5760

> <s_m_entry_name>
dock_pv.155

> <s_m_Source_Path>
/home/csk/Desktop/cluster/DUD-E-result/igf1r

> <s_m_Source_File>
dock_pv.maegz

> <i_m_Source_File_Index>
155

> <chembl_id>
CHEMBL1969879

> <chembl_pref_name>
None

> <i_lp_mmshare_version>
53161

> <r_lp_tautomer_probability>
0.999998369746258

> <s_lp_Force_Field>
OPLS_2005

> <r_lp_Energy>
38.403626

> <b_lp_Chiralities_Consistent>
1

> <s_lp_Variant>
CHEMBL1957_lig2905-3

> <s_i_glide_gridfile>
glide-grid_2oj9

> <i_i_glide_lignum>
4018

> <i_i_glide_rotatable_bonds>
5

> <r_i_docking_score>
-7.28489613395217

> <r_i_glide_ligand_efficiency>
-0.331131642452371

> <r_i_glide_ligand_efficiency_sa>
-0.92784388482006

> <r_i_glide_ligand_efficiency_ln>
-1.78069433818073

> <r_i_glide_gscore>
-7.28489613395217

> <r_i_glide_lipo>
-2.15522924804093

> <r_i_glide_hbond>
-0.0207577001466755

> <r_i_glide_metal>
0

> <r_i_glide_rewards>
-3.73858225999548

> <r_i_glide_evdw>
-31.3882007598877

> <r_i_glide_ecoul>
-4.01208543777466

> <r_i_glide_erotb>
0.800895927891503

> <r_i_glide_esite>
0

> <r_i_glide_emodel>
-47.7850396948232

> <r_i_glide_energy>
-35.4002861976624

> <r_i_glide_einternal>
7.10113620758057

> <i_i_glide_confnum>
14

> <i_i_glide_posenum>
143

> <r_i_glide_eff_state_penalty>
0

> <s_user_duplicate_titles>
CHEMBL1957_lig2905

> <i_f3d_flags>
0

> <s_m_subgroup_title>
dock_pv

> <s_m_subgroupid>
dock_pv

> <b_m_subgroup_collapsed>
1

$$$$
CHEMBL1957_lig2939
                    3D
 Schrodinger Suite 2021-1.
 39 42  0  0  1  0            999 V2000
    5.2493   -5.8449   23.2999 O   0  0  0  0  0  0
    6.8890   -9.9645   23.0083 O   0  0  0  0  0  0
   10.4379  -10.0656   22.9093 O   0  0  0  0  0  0
    8.1444   -8.7890   24.5074 N   0  0  0  0  0  0
    5.9568   -6.7802   24.0540 N   0  0  0  0  0  0
    2.8383   -2.8952   18.2351 N   0  0  0  0  0  0
    3.2877   -1.6967   18.6440 N   0  0  0  0  0  0
    5.1377   -6.3068   22.0322 C   0  0  0  0  0  0
    6.3470   -7.7329   23.2281 C   0  0  0  0  0  0
    4.4383   -5.4539   21.0382 C   0  0  0  0  0  0
    7.1471   -8.8979   23.5745 C   0  0  0  0  0  0
    5.7592   -7.5339   21.9714 C   0  0  0  0  0  0
    4.0065   -3.2814   20.0817 C   0  0  0  0  0  0
    3.2657   -3.9178   19.0565 C   0  0  0  0  0  0
    4.5863   -4.0610   21.0903 C   0  0  0  0  0  0
    3.6989   -6.0539   20.0175 C   0  0  0  0  0  0
    3.1115   -5.3069   19.0006 C   0  0  0  0  0  0
    3.9730   -1.8989   19.7367 C   0  0  0  0  0  0
    8.9497   -9.9826   24.8640 C   0  0  0  0  0  0
    8.7050   -7.5274   25.0382 C   0  0  0  0  0  0
   10.3958   -9.8437   24.3054 C   0  0  2  0  0  0
   10.0644   -7.3048   24.3508 C   0  0  0  0  0  0
   11.0239   -8.4733   24.6419 C   0  0  0  0  0  0
   11.3689  -10.0555   22.6380 H   0  0  0  0  0  0
    2.3032   -2.9693   17.3727 H   0  0  0  0  0  0
    5.8405   -8.1795   21.1096 H   0  0  0  0  0  0
    5.1772   -3.6005   21.8688 H   0  0  0  0  0  0
    3.6383   -7.1310   19.9688 H   0  0  0  0  0  0
    2.5617   -5.7979   18.2186 H   0  0  0  0  0  0
    4.4574   -1.0767   20.2383 H   0  0  0  0  0  0
    8.4784  -10.9197   24.5635 H   0  0  0  0  0  0
    8.9944  -10.0655   25.9499 H   0  0  0  0  0  0
    8.8586   -7.6841   26.1074 H   0  0  0  0  0  0
    8.0589   -6.6556   25.0294 H   0  0  0  0  0  0
   11.0165  -10.6191   24.7574 H   0  0  0  0  0  0
   10.5104   -6.3746   24.7045 H   0  0  0  0  0  0
    9.9288   -7.1758   23.2753 H   0  0  0  0  0  0
   11.3028   -8.4572   25.6960 H   0  0  0  0  0  0
   11.9549   -8.3325   24.0901 H   0  0  0  0  0  0
  1  5  1  0  0  0
  1  8  1  0  0  0
  2 11  2  0  0  0
  3 21  1  0  0  0
  3 24  1  0  0  0
  4 11  1  0  0  0
  4 19  1  0  0  0
  4 20  1  0  0  0
  5  9  2  0  0  0
  6  7  1  0  0  0
  6 14  1  0  0  0
  6 25  1  0  0  0
  7 18  2  0  0  0
  8 10  1  0  0  0
  8 12  2  0  0  0
  9 11  1  0  0  0
  9 12  1  0  0  0
 10 15  1  0  0  0
 10 16  2  0  0  0
 12 26  1  0  0  0
 13 14  1  0  0  0
 13 15  2  0  0  0
 13 18  1  0  0  0
 14 17  2  0  0  0
 15 27  1  0  0  0
 16 17  1  0  0  0
 16 28  1  0  0  0
 17 29  1  0  0  0
 18 30  1  0  0  0
 19 21  1  0  0  0
 19 31  1  0  0  0
 19 32  1  0  0  0
 20 22  1  0  0  0
 20 33  1  0  0  0
 20 34  1  0  0  0
 21 23  1  0  0  0
 21 35  1  0  0  0
 22 23  1  0  0  0
 22 36  1  0  0  0
 22 37  1  0  0  0
 23 38  1  0  0  0
 23 39  1  0  0  0
M  END
> <s_m_entry_id>
5761

> <s_m_entry_name>
dock_pv.156

> <s_m_Source_Path>
/home/csk/Desktop/cluster/DUD-E-result/igf1r

> <s_m_Source_File>
dock_pv.maegz

> <i_m_Source_File_Index>
156

> <chembl_id>
CHEMBL1997340

> <chembl_pref_name>
None

> <i_lp_mmshare_version>
53161

> <r_lp_tautomer_probability>
0.980392156862745

> <s_lp_Force_Field>
OPLS_2005

> <r_lp_Energy>
32.990028

> <b_lp_Chiralities_Consistent>
1

> <s_lp_Variant>
CHEMBL1957_lig2939-1

> <s_i_glide_gridfile>
glide-grid_2oj9

> <i_i_glide_lignum>
4065

> <i_i_glide_rotatable_bonds>
4

> <r_i_docking_score>
-7.28433512546591

> <r_i_glide_ligand_efficiency>
-0.316710222846344

> <r_i_glide_ligand_efficiency_sa>
-0.900681743992787

> <r_i_glide_ligand_efficiency_ln>
-1.76141828403677

> <r_i_glide_gscore>
-7.28433512546591

> <r_i_glide_lipo>
-2.36880294097873

> <r_i_glide_hbond>
-0.608

> <r_i_glide_metal>
0

> <r_i_glide_rewards>
-2.32523432769247

> <r_i_glide_evdw>
-31.398796081543

> <r_i_glide_ecoul>
-6.55404758453369

> <r_i_glide_erotb>
0.570749084962497

> <r_i_glide_esite>
0

> <r_i_glide_emodel>
-51.923612143838

> <r_i_glide_energy>
-37.9528436660767

> <r_i_glide_einternal>
3.56281709671021

> <i_i_glide_confnum>
13

> <i_i_glide_posenum>
54

> <r_i_glide_eff_state_penalty>
0

> <s_user_duplicate_titles>
CHEMBL1957_lig2939

> <i_f3d_flags>
0

> <s_m_subgroup_title>
dock_pv

> <s_m_subgroupid>
dock_pv

> <b_m_subgroup_collapsed>
1

$$$$
CHEMBL1957_lig3290
                    3D
 Schrodinger Suite 2021-1.
 48 52  0  0  1  0            999 V2000
    4.4383   -6.8541   19.8374 F   0  0  0  0  0  0
    6.0461   -9.6572   23.2712 F   0  0  0  0  0  0
   11.4403   -6.7671   24.2380 O   0  0  0  0  0  0
    5.1702   -2.2732   20.9126 N   0  0  0  0  0  0
    4.0254   -4.1789   20.4514 N   0  0  0  0  0  0
    7.5226   -3.8686   23.0274 N   0  0  0  0  0  0
    4.1407   -0.8589   18.7730 N   0  0  0  0  0  0
    8.4379   -2.5605   24.8254 N   0  0  0  0  0  0
    9.2775   -4.6997   24.3939 N   0  0  0  0  0  0
    5.5419   -3.2330   21.8274 C   0  0  0  0  0  0
    4.8709   -4.4179   21.4379 C   0  0  0  0  0  0
    4.2512   -2.8996   20.0674 C   0  0  0  0  0  0
    6.5423   -2.9475   22.8753 C   0  0  0  0  0  0
    5.0594   -5.8351   21.9417 C   0  0  0  0  0  0
    3.7928   -2.1581   18.9625 C   0  0  0  0  0  0
    5.5704   -0.9727   20.7004 C   0  0  0  0  0  0
    4.8979   -6.9616   21.1044 C   0  0  0  0  0  0
    6.4476   -1.8142   23.6811 C   0  0  0  0  0  0
    5.4737   -6.0643   23.2641 C   0  0  0  0  0  0
    8.4051   -3.6653   24.0395 C   0  0  0  0  0  0
   10.0836   -7.0704   24.4002 C   0  0  0  0  0  0
    5.0044   -0.2813   19.6349 C   0  0  0  0  0  0
    5.2378   -8.2369   21.5514 C   0  0  0  0  0  0
    7.4391   -1.6546   24.6392 C   0  0  0  0  0  0
    5.7734   -7.3455   23.7177 C   0  0  0  0  0  0
    5.6861   -8.4268   22.8521 C   0  0  0  0  0  0
    9.6400   -7.8037   25.6433 C   0  0  0  0  0  0
    9.6678   -8.5167   24.3060 C   0  0  0  0  0  0
    9.1465   -6.0240   23.7934 C   0  0  0  0  0  0
    2.9960   -2.7652   17.8381 C   0  0  0  0  0  0
   11.6383   -6.8538   23.2736 H   0  0  0  0  0  0
    9.8834   -4.5876   25.1925 H   0  0  0  0  0  0
    6.3111   -0.5490   21.3597 H   0  0  0  0  0  0
    5.6422   -1.1033   23.5788 H   0  0  0  0  0  0
    5.6320   -5.2541   23.9570 H   0  0  0  0  0  0
    5.2478    0.7490   19.4300 H   0  0  0  0  0  0
    5.1477   -9.0854   20.8891 H   0  0  0  0  0  0
    7.4151   -0.8065   25.3052 H   0  0  0  0  0  0
    6.1252   -7.4898   24.7275 H   0  0  0  0  0  0
    8.6468   -7.6508   26.0675 H   0  0  0  0  0  0
   10.3660   -8.1735   26.3676 H   0  0  0  0  0  0
   10.4143   -9.3083   24.2245 H   0  0  0  0  0  0
    8.6931   -8.7986   23.9061 H   0  0  0  0  0  0
    9.3060   -5.9487   22.7160 H   0  0  0  0  0  0
    8.1189   -6.3495   23.9190 H   0  0  0  0  0  0
    3.5239   -3.6220   17.4188 H   0  0  0  0  0  0
    2.0381   -3.1069   18.2069 H   0  0  0  0  0  0
    2.8376   -2.0513   17.0332 H   0  0  0  0  0  0
  1 17  1  0  0  0
  2 26  1  0  0  0
  3 21  1  0  0  0
  3 31  1  0  0  0
  4 10  1  0  0  0
  4 12  1  0  0  0
  4 16  1  0  0  0
  5 11  1  0  0  0
  5 12  2  0  0  0
  6 13  1  0  0  0
  6 20  2  0  0  0
  7 15  2  0  0  0
  7 22  1  0  0  0
  8 20  1  0  0  0
  8 24  2  0  0  0
  9 20  1  0  0  0
  9 29  1  0  0  0
  9 32  1  0  0  0
 10 11  2  0  0  0
 10 13  1  0  0  0
 11 14  1  0  0  0
 12 15  1  0  0  0
 13 18  2  0  0  0
 14 17  1  0  0  0
 14 19  2  0  0  0
 15 30  1  0  0  0
 16 22  2  0  0  0
 16 33  1  0  0  0
 17 23  2  0  0  0
 18 24  1  0  0  0
 18 34  1  0  0  0
 19 25  1  0  0  0
 19 35  1  0  0  0
 21 27  1  0  0  0
 21 28  1  0  0  0
 21 29  1  0  0  0
 22 36  1  0  0  0
 23 26  1  0  0  0
 23 37  1  0  0  0
 24 38  1  0  0  0
 25 26  2  0  0  0
 25 39  1  0  0  0
 27 28  1  0  0  0
 27 40  1  0  0  0
 27 41  1  0  0  0
 28 42  1  0  0  0
 28 43  1  0  0  0
 29 44  1  0  0  0
 29 45  1  0  0  0
 30 46  1  0  0  0
 30 47  1  0  0  0
 30 48  1  0  0  0
M  END
> <s_m_entry_id>
5762

> <s_m_entry_name>
dock_pv.157

> <s_m_Source_Path>
/home/csk/Desktop/cluster/DUD-E-result/igf1r

> <s_m_Source_File>
dock_pv.maegz

> <i_m_Source_File_Index>
157

> <chembl_id>
CHEMBL1965589

> <chembl_pref_name>
None

> <i_lp_mmshare_version>
53161

> <r_lp_tautomer_probability>
0.999999987636

> <s_lp_Force_Field>
OPLS_2005

> <r_lp_Energy>
26.908174

> <b_lp_Chiralities_Consistent>
1

> <s_lp_Variant>
CHEMBL1957_lig3290-1

> <s_i_glide_gridfile>
glide-grid_2oj9

> <i_i_glide_lignum>
4620

> <i_i_glide_rotatable_bonds>
6

> <r_i_docking_score>
-7.28352297417467

> <r_i_glide_ligand_efficiency>
-0.242784099139156

> <r_i_glide_ligand_efficiency_sa>
-0.754386643918637

> <r_i_glide_ligand_efficiency_ln>
-1.65489578007155

> <r_i_glide_gscore>
-7.28352297417467

> <r_i_glide_lipo>
-3.12368072156914

> <r_i_glide_hbond>
-0.159006955322168

> <r_i_glide_metal>
0

> <r_i_glide_rewards>
-1.51087776298997

> <r_i_glide_evdw>
-36.9683532714844

> <r_i_glide_ecoul>
-8.21013069152832

> <r_i_glide_erotb>
0.58997973301007

> <r_i_glide_esite>
0

> <r_i_glide_emodel>
-56.4422222205054

> <r_i_glide_energy>
-45.1784839630127

> <r_i_glide_einternal>
3.06654572486877

> <i_i_glide_confnum>
96

> <i_i_glide_posenum>
176

> <r_i_glide_eff_state_penalty>
0

> <s_user_duplicate_titles>
CHEMBL1957_lig3290

> <i_f3d_flags>
0

> <s_m_subgroup_title>
dock_pv

> <s_m_subgroupid>
dock_pv

> <b_m_subgroup_collapsed>
1

$$$$
CHEMBL1957_lig178
                    3D
 Schrodinger Suite 2021-1.
 57 61  0  0  1  0            999 V2000
    4.4997   -3.5600   20.9132 C   0  0  0  0  0  0
    3.5937   -4.1128   19.9939 C   0  0  0  0  0  0
    3.4455   -5.4929   19.8366 C   0  0  0  0  0  0
    5.1753   -4.3850   21.8355 C   0  0  0  0  0  0
    5.0600   -5.7679   21.6549 C   0  0  0  0  0  0
    4.2477   -6.3121   20.6432 C   0  0  0  0  0  0
    4.4385   -7.6517   20.5482 N   0  0  0  0  0  0
    5.3128   -7.9889   21.4628 C   0  0  0  0  0  0
    5.6436   -6.8825   22.2305 N   0  0  0  0  0  0
    4.8422   -2.1861   20.7970 N   0  0  0  0  0  0
    5.6475   -1.4240   21.6182 C   0  0  0  0  0  0
    5.9060   -0.2196   21.1648 N   0  0  0  0  0  0
    5.2483   -0.1409   20.0256 C   0  0  0  0  0  0
    4.5772   -1.3189   19.7547 C   0  0  0  0  0  0
    5.8469   -9.3805   21.5995 C   0  0  0  0  0  0
    6.9786   -9.7052   22.3072 C   0  0  0  0  0  0
    7.3071  -11.1176   22.5039 C   0  0  0  0  0  0
    6.4806  -12.0394   21.9821 C   0  0  0  0  0  0
    5.4117  -11.7201   21.2032 N   0  0  0  0  0  0
    5.1356  -10.4438   20.8429 C   0  0  0  0  0  0
    4.4409  -10.2856   19.8400 O   0  0  0  0  0  0
    2.5986   -6.0422   18.7016 C   0  0  0  0  0  0
    7.8043   -8.7452   22.8375 N   0  0  0  0  0  0
    8.7845   -8.8280   23.9210 C   0  0  1  0  0  0
    9.8900   -7.7693   23.7103 C   0  0  0  0  0  0
    8.1503   -8.7310   25.3284 C   0  0  0  0  0  0
    7.2387   -7.6546   25.4352 O   0  0  0  0  0  0
    9.4066   -6.3194   23.6092 C   0  0  0  0  0  0
    8.8670   -5.8239   22.4165 C   0  0  0  0  0  0
    8.3897   -4.5145   22.3507 C   0  0  0  0  0  0
    8.4406   -3.6914   23.4771 C   0  0  0  0  0  0
    9.0533   -4.1562   24.6416 C   0  0  0  0  0  0
    9.5145   -5.4689   24.7130 C   0  0  0  0  0  0
    9.2380   -3.3257   25.6926 F   0  0  0  0  0  0
    3.0502   -3.4719   19.3152 H   0  0  0  0  0  0
    5.8342   -3.9880   22.5877 H   0  0  0  0  0  0
    6.2566   -6.9291   23.0338 H   0  0  0  0  0  0
    6.0433   -1.8363   22.5317 H   0  0  0  0  0  0
    5.2936    0.7417   19.4002 H   0  0  0  0  0  0
    3.9967   -1.6142   18.8956 H   0  0  0  0  0  0
    8.1745  -11.4232   23.0681 H   0  0  0  0  0  0
    6.6501  -13.1061   22.0374 H   0  0  0  0  0  0
    4.9301  -12.4060   20.6430 H   0  0  0  0  0  0
    2.4304   -5.2896   17.9286 H   0  0  0  0  0  0
    3.1469   -6.8535   18.2397 H   0  0  0  0  0  0
    1.6427   -6.4548   19.0396 H   0  0  0  0  0  0
    7.6577   -7.7923   22.5530 H   0  0  0  0  0  0
    9.2966   -9.7897   23.8635 H   0  0  0  0  0  0
   10.4374   -8.0474   22.8111 H   0  0  0  0  0  0
   10.6352   -7.8413   24.5040 H   0  0  0  0  0  0
    7.5988   -9.6488   25.5339 H   0  0  0  0  0  0
    8.9168   -8.6547   26.1016 H   0  0  0  0  0  0
    7.5378   -7.0345   26.1183 H   0  0  0  0  0  0
    8.8175   -6.4519   21.5396 H   0  0  0  0  0  0
    7.9809   -4.1365   21.4249 H   0  0  0  0  0  0
    8.0971   -2.6695   23.4247 H   0  0  0  0  0  0
    9.9617   -5.8180   25.6310 H   0  0  0  0  0  0
  1  4  1  0  0  0
  1 10  1  0  0  0
  1  2  2  0  0  0
  2  3  1  0  0  0
  2 35  1  0  0  0
  3 22  1  0  0  0
  3  6  2  0  0  0
  4  5  2  0  0  0
  4 36  1  0  0  0
  5  9  1  0  0  0
  5  6  1  0  0  0
  6  7  1  0  0  0
  7  8  2  0  0  0
  8  9  1  0  0  0
  8 15  1  0  0  0
  9 37  1  0  0  0
 10 11  1  0  0  0
 10 14  1  0  0  0
 11 12  2  0  0  0
 11 38  1  0  0  0
 12 13  1  0  0  0
 13 14  2  0  0  0
 13 39  1  0  0  0
 14 40  1  0  0  0
 15 20  1  0  0  0
 15 16  2  0  0  0
 16 17  1  0  0  0
 16 23  1  0  0  0
 17 18  2  0  0  0
 17 41  1  0  0  0
 18 19  1  0  0  0
 18 42  1  0  0  0
 19 20  1  0  0  0
 19 43  1  0  0  0
 20 21  2  0  0  0
 22 44  1  0  0  0
 22 45  1  0  0  0
 22 46  1  0  0  0
 23 24  1  0  0  0
 23 47  1  0  0  0
 24 25  1  0  0  0
 24 26  1  0  0  0
 24 48  1  0  0  0
 25 28  1  0  0  0
 25 49  1  0  0  0
 25 50  1  0  0  0
 26 27  1  0  0  0
 26 51  1  0  0  0
 26 52  1  0  0  0
 27 53  1  0  0  0
 28 29  2  0  0  0
 28 33  1  0  0  0
 29 30  1  0  0  0
 29 54  1  0  0  0
 30 31  2  0  0  0
 30 55  1  0  0  0
 31 32  1  0  0  0
 31 56  1  0  0  0
 32 33  2  0  0  0
 32 34  1  0  0  0
 33 57  1  0  0  0
M  END
> <s_m_entry_id>
5763

> <s_m_entry_name>
dock_pv.158

> <s_m_Source_Path>
/home/csk/Desktop/cluster/DUD-E-result/igf1r

> <s_m_Source_File>
dock_pv.maegz

> <i_m_Source_File_Index>
158

> <chembl_id>
CHEMBL391158

> <chembl_pref_name>
None

> <i_lp_mmshare_version>
53161

> <r_lp_tautomer_probability>
0.999206294981429

> <s_lp_Force_Field>
OPLS_2005

> <r_lp_Energy>
35.786886

> <b_lp_Chiralities_Consistent>
1

> <s_lp_Variant>
CHEMBL1957_lig178-1

> <s_i_glide_gridfile>
glide-grid_2oj9

> <i_i_glide_lignum>
346

> <i_i_glide_rotatable_bonds>
8

> <r_i_docking_score>
-7.28086513276754

> <r_i_glide_ligand_efficiency>
-0.214143092140222

> <r_i_glide_ligand_efficiency_sa>
-0.693740487644054

> <r_i_glide_ligand_efficiency_ln>
-1.60854732917789

> <r_i_glide_gscore>
-7.28086513276754

> <r_i_glide_lipo>
-3.04720128869721

> <r_i_glide_hbond>
-0.32

> <r_i_glide_metal>
0

> <r_i_glide_rewards>
-1.61580922504745

> <r_i_glide_evdw>
-39.7062644958496

> <r_i_glide_ecoul>
-5.91084384918213

> <r_i_glide_erotb>
0.574085183146917

> <r_i_glide_esite>
0

> <r_i_glide_emodel>
-60.849697590289

> <r_i_glide_energy>
-45.6171083450317

> <r_i_glide_einternal>
7.9941873550415

> <i_i_glide_confnum>
24

> <i_i_glide_posenum>
21

> <r_i_glide_eff_state_penalty>
0

> <s_user_duplicate_titles>
CHEMBL1957_lig178,410383

> <i_f3d_flags>
0

> <s_m_subgroup_title>
dock_pv

> <s_m_subgroupid>
dock_pv

> <b_m_subgroup_collapsed>
1

$$$$
CHEMBL1957_lig28
                    3D
 Schrodinger Suite 2021-1.
 57 59  0  0  1  0            999 V2000
    5.7144   -6.8303   21.8523 C   0  0  0  0  0  0
    6.9441   -7.3361   22.4802 C   0  0  0  0  0  0
    5.0208   -7.5388   20.9194 C   0  0  0  0  0  0
    7.6960   -6.5350   23.1591 N   0  0  0  0  0  0
    6.2722   -9.6788   21.4730 C   0  0  0  0  0  0
    5.2378   -8.9573   20.6188 C   0  0  0  0  0  0
    7.2614   -8.7936   22.2376 C   0  0  0  0  0  0
    9.0488   -6.8437   23.7208 C   0  0  2  0  0  0
    5.0929   -5.4946   22.3259 C   0  0  0  0  0  0
    9.0214   -7.6746   25.0425 C   0  0  0  0  0  0
    5.6690   -4.1569   21.7788 C   0  0  1  0  0  0
    4.6517   -3.1591   21.0972 C   0  0  1  0  0  0
    4.0378   -7.0011   20.1510 O   0  0  0  0  0  0
    8.3022   -9.3248   22.6186 O   0  0  0  0  0  0
   10.0450   -8.0122   25.6268 O   0  0  0  0  0  0
    9.8707   -5.5311   23.9589 C   0  0  1  0  0  0
    5.4761   -1.9754   20.4902 C   0  0  2  0  0  0
    4.6283   -9.5498   19.7310 O   0  0  0  0  0  0
    7.7753   -8.0533   25.4469 O   0  0  0  0  0  0
   10.0381   -4.8541   22.7234 O   0  0  0  0  0  0
    6.3665   -3.3764   22.9252 C   0  0  0  0  0  0
    7.1600   -2.1659   22.4237 C   0  0  0  0  0  0
    3.5826   -3.7562   20.1209 C   0  0  0  0  0  0
    6.2493   -1.2308   21.6037 C   0  0  0  0  0  0
    4.6558   -0.9967   19.6198 C   0  0  0  0  0  0
    9.2865   -4.5208   24.9673 C   0  0  0  0  0  0
    2.8500   -2.7155   19.2470 C   0  0  0  0  0  0
    3.8024   -1.7198   18.5745 C   0  0  0  0  0  0
    6.8263  -10.3765   20.8451 H   0  0  0  0  0  0
    9.6576   -7.3935   23.0029 H   0  0  0  0  0  0
    4.0380   -5.5401   22.1103 H   0  0  0  0  0  0
    5.1038   -5.4988   23.4177 H   0  0  0  0  0  0
    6.4292   -4.4112   21.0379 H   0  0  0  0  0  0
    4.0488   -2.6987   21.8838 H   0  0  0  0  0  0
    3.7588   -7.6626   19.5072 H   0  0  0  0  0  0
    5.7329  -10.2718   22.2115 H   0  0  0  0  0  0
   10.8786   -5.7992   24.2818 H   0  0  0  0  0  0
    6.2084   -2.4402   19.8383 H   0  0  0  0  0  0
    7.8556   -8.5493   26.2620 H   0  0  0  0  0  0
   10.4319   -3.9783   22.8714 H   0  0  0  0  0  0
    5.6395   -3.0738   23.6790 H   0  0  0  0  0  0
    7.0498   -4.0354   23.4520 H   0  0  0  0  0  0
    7.5875   -1.6295   23.2720 H   0  0  0  0  0  0
    8.0071   -2.5161   21.8368 H   0  0  0  0  0  0
    4.0373   -4.4226   19.3981 H   0  0  0  0  0  0
    2.8710   -4.3961   20.6384 H   0  0  0  0  0  0
    5.5544   -0.7160   22.2657 H   0  0  0  0  0  0
    6.8385   -0.4370   21.1521 H   0  0  0  0  0  0
    3.9909   -0.4000   20.2378 H   0  0  0  0  0  0
    5.3186   -0.2692   19.1475 H   0  0  0  0  0  0
    8.4032   -4.9300   25.4448 H   0  0  0  0  0  0
    9.0026   -3.5750   24.4998 H   0  0  0  0  0  0
    9.9945   -4.2843   25.7614 H   0  0  0  0  0  0
    2.1226   -2.1753   19.8549 H   0  0  0  0  0  0
    2.2916   -3.2265   18.4641 H   0  0  0  0  0  0
    3.2398   -0.9926   17.9896 H   0  0  0  0  0  0
    4.4379   -2.2472   17.8624 H   0  0  0  0  0  0
  1  2  1  0  0  0
  1  3  2  0  0  0
  1  9  1  0  0  0
  2  4  2  0  0  0
  2  7  1  0  0  0
  3 13  1  0  0  0
  3  6  1  0  0  0
  4  8  1  0  0  0
  5  7  1  0  0  0
  5  6  1  0  0  0
  5 29  1  0  0  0
  5 36  1  0  0  0
  6 18  2  0  0  0
  7 14  2  0  0  0
  8 10  1  0  0  0
  8 16  1  0  0  0
  8 30  1  0  0  0
  9 11  1  0  0  0
  9 31  1  0  0  0
  9 32  1  0  0  0
 10 15  2  0  0  0
 10 19  1  0  0  0
 11 12  1  0  0  0
 11 21  1  0  0  0
 11 33  1  0  0  0
 12 17  1  0  0  0
 12 23  1  0  0  0
 12 34  1  0  0  0
 13 35  1  0  0  0
 16 20  1  0  0  0
 16 26  1  0  0  0
 16 37  1  0  0  0
 17 25  1  0  0  0
 17 24  1  0  0  0
 17 38  1  0  0  0
 19 39  1  0  0  0
 20 40  1  0  0  0
 21 22  1  0  0  0
 21 41  1  0  0  0
 21 42  1  0  0  0
 22 24  1  0  0  0
 22 43  1  0  0  0
 22 44  1  0  0  0
 23 27  1  0  0  0
 23 45  1  0  0  0
 23 46  1  0  0  0
 24 47  1  0  0  0
 24 48  1  0  0  0
 25 28  1  0  0  0
 25 49  1  0  0  0
 25 50  1  0  0  0
 26 51  1  0  0  0
 26 52  1  0  0  0
 26 53  1  0  0  0
 27 28  1  0  0  0
 27 54  1  0  0  0
 27 55  1  0  0  0
 28 56  1  0  0  0
 28 57  1  0  0  0
M  END
> <s_m_entry_id>
5764

> <s_m_entry_name>
dock_pv.159

> <s_m_Source_Path>
/home/csk/Desktop/cluster/DUD-E-result/igf1r

> <s_m_Source_File>
dock_pv.maegz

> <i_m_Source_File_Index>
159

> <chembl_id>
CHEMBL442388

> <chembl_pref_name>
None

> <i_lp_mmshare_version>
53161

> <r_lp_tautomer_probability>
0.818181818181818

> <s_lp_Force_Field>
OPLS_2005

> <r_lp_Energy>
36.627043

> <b_lp_Chiralities_Consistent>
1

> <s_lp_Variant>
CHEMBL1957_lig28-31

> <s_i_glide_gridfile>
glide-grid_2oj9

> <i_i_glide_lignum>
84

> <i_i_glide_rotatable_bonds>
8

> <r_i_docking_score>
-7.27837434461825

> <r_i_glide_ligand_efficiency>
-0.259941940879223

> <r_i_glide_ligand_efficiency_sa>
-0.78933683012506

> <r_i_glide_ligand_efficiency_ln>
-1.6800625010946

> <r_i_glide_gscore>
-7.27837434461825

> <r_i_glide_lipo>
-3.41666836055599

> <r_i_glide_hbond>
-0.32

> <r_i_glide_metal>
0

> <r_i_glide_rewards>
-1.71841206947032

> <r_i_glide_evdw>
-37.4790725708008

> <r_i_glide_ecoul>
-3.90722393989563

> <r_i_glide_erotb>
0.636743304932449

> <r_i_glide_esite>
0

> <r_i_glide_emodel>
-43.0103785769369

> <r_i_glide_energy>
-41.3862965106964

> <r_i_glide_einternal>
19.8376274108887

> <i_i_glide_confnum>
89

> <i_i_glide_posenum>
250

> <r_i_glide_eff_state_penalty>
0

> <s_user_duplicate_titles>
CHEMBL1957_lig28,CHEMBL1957_lig28

> <i_f3d_flags>
0

> <s_m_subgroup_title>
dock_pv

> <s_m_subgroupid>
dock_pv

> <b_m_subgroup_collapsed>
1

$$$$
CHEMBL1957_lig2709
                    3D
 Schrodinger Suite 2021-1.
 49 52  0  0  1  0            999 V2000
    7.9014   -4.4057   22.5550 O   0  0  0  0  0  0
    9.2379   -7.0288   22.2847 O   0  0  0  0  0  0
    5.0962   -7.2531   20.8896 N   0  0  0  0  0  0
    6.6748   -1.2617   24.1229 N   0  0  0  0  0  0
    3.1635   -4.9985   18.9675 N   0  0  0  0  0  0
    6.1481   -8.7634   22.1772 C   0  0  0  0  0  0
    6.4343   -7.4531   22.7004 C   0  0  0  0  0  0
    5.3022   -8.6026   21.0376 C   0  0  0  0  0  0
    5.7527   -6.5724   21.8822 C   0  0  0  0  0  0
    6.5289  -10.0634   22.5475 C   0  0  0  0  0  0
    7.3395   -7.1331   23.8794 C   0  0  0  0  0  0
    4.8495   -9.6833   20.2766 C   0  0  0  0  0  0
    8.7244   -6.5271   23.5110 C   0  0  2  0  0  0
    6.0669  -11.1446   21.8001 C   0  0  0  0  0  0
    5.2463  -10.9540   20.6929 C   0  0  0  0  0  0
    7.3100   -3.1723   22.7582 C   0  0  0  0  0  0
    6.0614   -1.3258   21.7812 C   0  0  0  0  0  0
    8.7563   -4.9819   23.5493 C   0  0  0  0  0  0
    6.6654   -2.5852   21.6656 C   0  0  0  0  0  0
    7.3015   -2.4537   23.9649 C   0  0  0  0  0  0
    6.0648   -0.7225   23.0405 C   0  0  0  0  0  0
    5.4761   -0.6003   20.6382 C   0  0  0  0  0  0
    4.0041   -2.3719   19.5305 C   0  0  0  0  0  0
    4.6172   -1.0405   19.6970 C   0  0  0  0  0  0
    3.6380   -2.7495   18.2388 C   0  0  0  0  0  0
    3.8242   -3.3006   20.5635 C   0  0  0  0  0  0
    3.2381   -4.0602   17.9938 C   0  0  0  0  0  0
    3.4050   -4.5930   20.2378 C   0  0  0  0  0  0
   10.1926   -6.8540   22.2381 H   0  0  0  0  0  0
    4.5662   -6.7934   20.1619 H   0  0  0  0  0  0
    5.7100   -5.4939   21.9115 H   0  0  0  0  0  0
    7.1657  -10.2270   23.4035 H   0  0  0  0  0  0
    7.5061   -8.0418   24.4589 H   0  0  0  0  0  0
    6.8234   -6.4710   24.5771 H   0  0  0  0  0  0
    4.2236   -9.5490   19.4064 H   0  0  0  0  0  0
    9.4259   -6.8634   24.2771 H   0  0  0  0  0  0
    6.3468  -12.1487   22.0846 H   0  0  0  0  0  0
    4.9109  -11.8193   20.1399 H   0  0  0  0  0  0
    9.7714   -4.6113   23.3967 H   0  0  0  0  0  0
    8.4716   -4.7091   24.5628 H   0  0  0  0  0  0
    6.6830   -3.0900   20.7103 H   0  0  0  0  0  0
    7.8076   -2.7993   24.8484 H   0  0  0  0  0  0
    5.6377    0.2558   23.1900 H   0  0  0  0  0  0
    5.8043    0.4266   20.5463 H   0  0  0  0  0  0
    4.3270   -0.3150   18.9499 H   0  0  0  0  0  0
    3.7038   -2.0416   17.4356 H   0  0  0  0  0  0
    4.0294   -3.0466   21.5919 H   0  0  0  0  0  0
    2.9822   -4.3774   16.9949 H   0  0  0  0  0  0
    3.2637   -5.3395   21.0023 H   0  0  0  0  0  0
  1 16  1  0  0  0
  1 18  1  0  0  0
  2 13  1  0  0  0
  2 29  1  0  0  0
  3  8  1  0  0  0
  3  9  1  0  0  0
  3 30  1  0  0  0
  4 20  1  0  0  0
  4 21  2  0  0  0
  5 27  2  0  0  0
  5 28  1  0  0  0
  6  7  1  0  0  0
  6  8  1  0  0  0
  6 10  2  0  0  0
  7  9  2  0  0  0
  7 11  1  0  0  0
  8 12  2  0  0  0
  9 31  1  0  0  0
 10 14  1  0  0  0
 10 32  1  0  0  0
 11 13  1  0  0  0
 11 33  1  0  0  0
 11 34  1  0  0  0
 12 15  1  0  0  0
 12 35  1  0  0  0
 13 18  1  0  0  0
 13 36  1  0  0  0
 14 15  2  0  0  0
 14 37  1  0  0  0
 15 38  1  0  0  0
 16 19  1  0  0  0
 16 20  2  0  0  0
 17 19  2  0  0  0
 17 21  1  0  0  0
 17 22  1  0  0  0
 18 39  1  0  0  0
 18 40  1  0  0  0
 19 41  1  0  0  0
 20 42  1  0  0  0
 21 43  1  0  0  0
 22 24  2  3  0  0
 22 44  1  0  0  0
 23 24  1  0  0  0
 23 25  2  0  0  0
 23 26  1  0  0  0
 24 45  1  0  0  0
 25 27  1  0  0  0
 25 46  1  0  0  0
 26 28  2  0  0  0
 26 47  1  0  0  0
 27 48  1  0  0  0
 28 49  1  0  0  0
M  END
> <s_m_entry_id>
5765

> <s_m_entry_name>
dock_pv.160

> <s_m_Source_Path>
/home/csk/Desktop/cluster/DUD-E-result/igf1r

> <s_m_Source_File>
dock_pv.maegz

> <i_m_Source_File_Index>
160

> <chembl_id>
CHEMBL1993584

> <chembl_pref_name>
None

> <i_lp_mmshare_version>
53161

> <r_lp_tautomer_probability>
1

> <s_lp_Force_Field>
OPLS_2005

> <r_lp_Energy>
25.210748

> <b_lp_Chiralities_Consistent>
1

> <s_lp_Variant>
CHEMBL1957_lig2709-2

> <s_i_glide_gridfile>
glide-grid_2oj9

> <i_i_glide_lignum>
3750

> <i_i_glide_rotatable_bonds>
8

> <r_i_docking_score>
-7.27795754399968

> <r_i_glide_ligand_efficiency>
-0.259927055142846

> <r_i_glide_ligand_efficiency_sa>
-0.789291628262188

> <r_i_glide_ligand_efficiency_ln>
-1.67996629127403

> <r_i_glide_gscore>
-7.27795754399968

> <r_i_glide_lipo>
-3.93151134117021

> <r_i_glide_hbond>
0

> <r_i_glide_metal>
0

> <r_i_glide_rewards>
-1.31654548512105

> <r_i_glide_evdw>
-43.8056793212891

> <r_i_glide_ecoul>
-4.52742958068848

> <r_i_glide_erotb>
0.839497685459311

> <r_i_glide_esite>
0

> <r_i_glide_emodel>
-62.0235959959318

> <r_i_glide_energy>
-48.3331089019775

> <r_i_glide_einternal>
11.981333732605

> <i_i_glide_confnum>
5

> <i_i_glide_posenum>
104

> <r_i_glide_eff_state_penalty>
0

> <s_user_duplicate_titles>
CHEMBL1957_lig2709

> <i_f3d_flags>
0

> <s_m_subgroup_title>
dock_pv

> <s_m_subgroupid>
dock_pv

> <b_m_subgroup_collapsed>
1

$$$$
CHEMBL1957_lig2680
                    3D
 Schrodinger Suite 2021-1.
 41 45  0  0  1  0            999 V2000
    7.0909   -4.3558   23.8137 C   0  0  0  0  0  0
    7.8254   -3.1783   23.9720 C   0  0  0  0  0  0
    7.6379   -2.0539   23.2379 N   0  0  0  0  0  0
    6.0934   -4.4399   22.8273 C   0  0  0  0  0  0
    5.3003   -5.5840   22.6305 N   0  0  0  0  0  0
    5.8876   -3.2866   22.0356 C   0  0  0  0  0  0
    6.6944   -2.1562   22.3072 C   0  0  0  0  0  0
    6.4020   -1.1172   21.4651 O   0  0  0  0  0  0
    5.0413   -2.8994   20.9784 C   0  0  0  0  0  0
    5.4070   -1.5722   20.6400 C   0  0  0  0  0  0
    4.8151   -0.8558   19.5945 C   0  0  0  0  0  0
    3.8084   -1.5072   18.8802 C   0  0  0  0  0  0
    3.4079   -2.8049   19.2042 C   0  0  0  0  0  0
    4.0102   -3.5164   20.2473 C   0  0  0  0  0  0
    5.1535   -6.6103   23.6643 C   0  0  0  0  0  0
    6.2004   -7.7227   23.5959 C   0  0  0  0  0  0
    8.0127   -9.8787   23.6760 C   0  0  0  0  0  0
    8.0418   -8.8955   24.6565 C   0  0  0  0  0  0
    7.1361   -7.8446   24.6267 C   0  0  0  0  0  0
    7.0647   -9.8173   22.6268 C   0  0  0  0  0  0
    6.1570   -8.7106   22.5578 C   0  0  0  0  0  0
    5.2388   -8.6663   21.4689 C   0  0  0  0  0  0
    5.1914   -9.6949   20.5333 C   0  0  0  0  0  0
    6.0441  -10.7855   20.6382 C   0  0  0  0  0  0
    6.9887  -10.8464   21.6561 C   0  0  0  0  0  0
    7.3155   -5.1876   24.4578 H   0  0  0  0  0  0
    8.6053   -3.1203   24.7180 H   0  0  0  0  0  0
    4.5038   -5.4496   22.0280 H   0  0  0  0  0  0
    5.1314    0.1477   19.3467 H   0  0  0  0  0  0
    3.3292   -0.9985   18.0562 H   0  0  0  0  0  0
    2.6264   -3.2720   18.6219 H   0  0  0  0  0  0
    3.6964   -4.5257   20.4657 H   0  0  0  0  0  0
    4.1661   -7.0629   23.5678 H   0  0  0  0  0  0
    5.1599   -6.1451   24.6519 H   0  0  0  0  0  0
    8.7063  -10.7063   23.7209 H   0  0  0  0  0  0
    8.7590   -8.9592   25.4619 H   0  0  0  0  0  0
    7.1533   -7.1307   25.4369 H   0  0  0  0  0  0
    4.5497   -7.8419   21.3731 H   0  0  0  0  0  0
    4.4791   -9.6520   19.7218 H   0  0  0  0  0  0
    5.9887  -11.5791   19.9066 H   0  0  0  0  0  0
    7.6631  -11.6886   21.7162 H   0  0  0  0  0  0
  1  2  2  0  0  0
  1  4  1  0  0  0
  1 26  1  0  0  0
  2  3  1  0  0  0
  2 27  1  0  0  0
  3  7  2  0  0  0
  4  6  2  0  0  0
  4  5  1  0  0  0
  5 15  1  0  0  0
  5 28  1  0  0  0
  6  7  1  0  0  0
  6  9  1  0  0  0
  7  8  1  0  0  0
  8 10  1  0  0  0
  9 14  1  0  0  0
  9 10  2  0  0  0
 10 11  1  0  0  0
 11 12  2  0  0  0
 11 29  1  0  0  0
 12 13  1  0  0  0
 12 30  1  0  0  0
 13 14  2  0  0  0
 13 31  1  0  0  0
 14 32  1  0  0  0
 15 16  1  0  0  0
 15 33  1  0  0  0
 15 34  1  0  0  0
 16 21  2  0  0  0
 16 19  1  0  0  0
 17 20  2  0  0  0
 17 18  1  0  0  0
 17 35  1  0  0  0
 18 19  2  0  0  0
 18 36  1  0  0  0
 19 37  1  0  0  0
 20 21  1  0  0  0
 20 25  1  0  0  0
 21 22  1  0  0  0
 22 23  2  0  0  0
 22 38  1  0  0  0
 23 24  1  0  0  0
 23 39  1  0  0  0
 24 25  2  0  0  0
 24 40  1  0  0  0
 25 41  1  0  0  0
M  END
> <s_m_entry_id>
5766

> <s_m_entry_name>
dock_pv.161

> <s_m_Source_Path>
/home/csk/Desktop/cluster/DUD-E-result/igf1r

> <s_m_Source_File>
dock_pv.maegz

> <i_m_Source_File_Index>
161

> <chembl_id>
CHEMBL1290071

> <chembl_pref_name>
None

> <i_lp_mmshare_version>
53161

> <r_lp_tautomer_probability>
1

> <s_lp_Force_Field>
OPLS_2005

> <r_lp_Energy>
18.298271

> <b_lp_Chiralities_Consistent>
1

> <s_lp_Variant>
CHEMBL1957_lig2680-1

> <s_i_glide_gridfile>
glide-grid_2oj9

> <i_i_glide_lignum>
3706

> <i_i_glide_rotatable_bonds>
3

> <r_i_docking_score>
-7.26361662512321

> <r_i_glide_ligand_efficiency>
-0.290544665004928

> <r_i_glide_ligand_efficiency_sa>
-0.849557753305985

> <r_i_glide_ligand_efficiency_ln>
-1.72169481317932

> <r_i_glide_gscore>
-7.26361662512321

> <r_i_glide_lipo>
-4.04975282906432

> <r_i_glide_hbond>
0

> <r_i_glide_metal>
0

> <r_i_glide_rewards>
-1.38077487878788

> <r_i_glide_evdw>
-40.405445098877

> <r_i_glide_ecoul>
-2.311687707901

> <r_i_glide_erotb>
0.533936493857986

> <r_i_glide_esite>
0

> <r_i_glide_emodel>
-59.0115312316443

> <r_i_glide_energy>
-42.717132806778

> <r_i_glide_einternal>
3.02083206176758

> <i_i_glide_confnum>
15

> <i_i_glide_posenum>
393

> <r_i_glide_eff_state_penalty>
0

> <s_user_duplicate_titles>
CHEMBL1957_lig2680

> <i_f3d_flags>
0

> <s_m_subgroup_title>
dock_pv

> <s_m_subgroupid>
dock_pv

> <b_m_subgroup_collapsed>
1

$$$$
CHEMBL1957_lig89
                    3D
 Schrodinger Suite 2021-1.
 47 50  0  0  1  0            999 V2000
    3.1981   -2.7351   18.8466 C   0  0  0  0  0  0
    3.8095   -1.4898   18.7059 C   0  0  0  0  0  0
    4.8150   -1.0592   19.5768 C   0  0  0  0  0  0
    3.5450   -3.6195   19.8699 C   0  0  0  0  0  0
    5.4636    0.2918   19.3476 C   0  0  0  0  0  0
    4.5650   -3.2033   20.7272 C   0  0  0  0  0  0
    5.2039   -1.9452   20.5982 C   0  0  0  0  0  0
    6.1854   -1.8010   21.5418 N   0  0  0  0  0  0
    6.2073   -2.9343   22.2030 C   0  0  0  0  0  0
    7.2009   -3.2721   23.2295 C   0  0  0  0  0  0
    7.8733   -4.4664   23.2319 C   0  0  0  0  0  0
    8.9094   -4.6827   24.2416 C   0  0  0  0  0  0
    9.2362   -3.6513   25.0377 C   0  0  0  0  0  0
    7.4787   -2.2371   24.2379 C   0  0  0  0  0  0
    6.7636   -1.2732   24.5077 O   0  0  0  0  0  0
    8.5193   -6.5451   21.9082 C   0  0  0  0  0  0
    8.0712   -7.8327   22.6524 C   0  0  1  0  0  0
    6.9075   -8.5766   21.9646 C   0  0  0  0  0  0
    5.8110   -7.8740   21.4379 C   0  0  0  0  0  0
    4.8451   -8.5258   20.6684 C   0  0  0  0  0  0
    4.9386   -9.9001   20.4574 C   0  0  0  0  0  0
    5.9752  -10.6259   21.0390 C   0  0  0  0  0  0
    6.9430   -9.9713   21.8010 C   0  0  0  0  0  0
    6.0881  -12.3269   20.7703 Cl  0  0  0  0  0  0
    5.2156   -3.7923   21.7842 N   0  0  0  0  0  0
    8.5858   -2.4542   24.9916 N   0  0  0  0  0  0
    7.7091   -5.3679   22.2035 N   0  0  0  0  0  0
    9.2381   -8.6294   22.7964 O   0  0  0  0  0  0
    2.4365   -3.0209   18.1348 H   0  0  0  0  0  0
    3.5025   -0.8514   17.8899 H   0  0  0  0  0  0
    3.0692   -4.5842   19.9649 H   0  0  0  0  0  0
    5.6377    0.4648   18.2847 H   0  0  0  0  0  0
    4.8357    1.0974   19.7263 H   0  0  0  0  0  0
    6.4357    0.3436   19.8406 H   0  0  0  0  0  0
    9.4155   -5.6305   24.3373 H   0  0  0  0  0  0
    9.9893   -3.6848   25.8121 H   0  0  0  0  0  0
    9.5622   -6.3013   22.1248 H   0  0  0  0  0  0
    8.5029   -6.7230   20.8329 H   0  0  0  0  0  0
    7.7534   -7.5821   23.6659 H   0  0  0  0  0  0
    5.7238   -6.8083   21.5700 H   0  0  0  0  0  0
    4.0361   -7.9663   20.2224 H   0  0  0  0  0  0
    4.2177  -10.4080   19.8352 H   0  0  0  0  0  0
    7.7561  -10.5515   22.2130 H   0  0  0  0  0  0
    5.0718   -4.7026   22.1935 H   0  0  0  0  0  0
    8.8415   -1.6774   25.5825 H   0  0  0  0  0  0
    7.2201   -5.0152   21.3941 H   0  0  0  0  0  0
   10.0130   -8.0606   22.8480 H   0  0  0  0  0  0
  1  4  1  0  0  0
  1  2  2  0  0  0
  1 29  1  0  0  0
  2  3  1  0  0  0
  2 30  1  0  0  0
  3  5  1  0  0  0
  3  7  2  0  0  0
  4  6  2  0  0  0
  4 31  1  0  0  0
  5 32  1  0  0  0
  5 33  1  0  0  0
  5 34  1  0  0  0
  6  7  1  0  0  0
  6 25  1  0  0  0
  7  8  1  0  0  0
  8  9  2  0  0  0
  9 10  1  0  0  0
  9 25  1  0  0  0
 10 11  2  0  0  0
 10 14  1  0  0  0
 11 12  1  0  0  0
 11 27  1  0  0  0
 12 13  2  0  0  0
 12 35  1  0  0  0
 13 26  1  0  0  0
 13 36  1  0  0  0
 14 15  2  0  0  0
 14 26  1  0  0  0
 16 17  1  0  0  0
 16 27  1  0  0  0
 16 37  1  0  0  0
 16 38  1  0  0  0
 17 18  1  0  0  0
 17 28  1  0  0  0
 17 39  1  0  0  0
 18 19  2  0  0  0
 18 23  1  0  0  0
 19 20  1  0  0  0
 19 40  1  0  0  0
 20 21  2  0  0  0
 20 41  1  0  0  0
 21 22  1  0  0  0
 21 42  1  0  0  0
 22 23  2  0  0  0
 22 24  1  0  0  0
 23 43  1  0  0  0
 25 44  1  0  0  0
 26 45  1  0  0  0
 27 46  1  0  0  0
 28 47  1  0  0  0
M  END
> <s_m_entry_id>
5767

> <s_m_entry_name>
dock_pv.162

> <s_m_Source_Path>
/home/csk/Desktop/cluster/DUD-E-result/igf1r

> <s_m_Source_File>
dock_pv.maegz

> <i_m_Source_File_Index>
162

> <chembl_id>
CHEMBL230309

> <chembl_pref_name>
None

> <i_lp_mmshare_version>
53161

> <r_lp_tautomer_probability>
0.999206294981429

> <s_lp_Force_Field>
OPLS_2005

> <r_lp_Energy>
36.220071

> <b_lp_Chiralities_Consistent>
1

> <s_lp_Variant>
CHEMBL1957_lig89-2

> <s_i_glide_gridfile>
glide-grid_2oj9

> <i_i_glide_lignum>
254

> <i_i_glide_rotatable_bonds>
6

> <r_i_docking_score>
-7.25949523692824

> <r_i_glide_ligand_efficiency>
-0.259267687033152

> <r_i_glide_ligand_efficiency_sa>
-0.787289398334109

> <r_i_glide_ligand_efficiency_ln>
-1.67570464872506

> <r_i_glide_gscore>
-7.25949523692824

> <r_i_glide_lipo>
-3.47535533788662

> <r_i_glide_hbond>
-0.164691603558494

> <r_i_glide_metal>
0

> <r_i_glide_rewards>
-1.3188928518425

> <r_i_glide_evdw>
-44.1504936218262

> <r_i_glide_ecoul>
-3.74135446548462

> <r_i_glide_erotb>
0.501548257061345

> <r_i_glide_esite>
-0.0333758497879679

> <r_i_glide_emodel>
-63.3665173442296

> <r_i_glide_energy>
-47.8918480873108

> <r_i_glide_einternal>
3.99459671974182

> <i_i_glide_confnum>
4

> <i_i_glide_posenum>
84

> <r_i_glide_eff_state_penalty>
0

> <s_user_duplicate_titles>
CHEMBL1957_lig89

> <i_f3d_flags>
0

> <s_m_subgroup_title>
dock_pv

> <s_m_subgroupid>
dock_pv

> <b_m_subgroup_collapsed>
1

$$$$
CHEMBL1957_lig3311
                    3D
 Schrodinger Suite 2021-1.
 38 41  0  0  1  0            999 V2000
    6.3124   -6.8716   21.6226 Cl  0  0  0  0  0  0
    7.9813   -9.2429   26.1738 Cl  0  0  0  0  0  0
    6.7696   -0.8109   25.1029 O   0  0  0  0  0  0
    8.8378   -3.4678   24.9898 O   0  0  0  0  0  0
    6.0300   -1.2194   21.9437 N   0  0  0  0  0  0
    7.8345   -4.0401   21.8385 N   0  0  0  0  0  0
    3.0139   -3.3433   17.8381 N   0  0  0  0  0  0
    2.8381   -4.6075   18.2534 N   0  0  0  0  0  0
    6.7960   -1.9558   22.8206 C   0  0  0  0  0  0
    7.5310   -3.1019   22.8012 C   0  0  0  0  0  0
    7.1025   -1.6544   24.2710 C   0  0  0  0  0  0
    8.0426   -2.9170   24.2245 C   0  0  0  0  0  0
    5.2371   -1.7073   20.8956 C   0  0  0  0  0  0
    3.9353   -3.4503   19.8520 C   0  0  0  0  0  0
    3.6845   -2.5766   18.7676 C   0  0  0  0  0  0
    4.7049   -3.0025   20.9341 C   0  0  0  0  0  0
    8.8673   -5.0709   21.8779 C   0  0  0  0  0  0
    4.9277   -0.8505   19.8346 C   0  0  0  0  0  0
    8.6023   -6.1271   22.9479 C   0  0  0  0  0  0
    4.1347   -1.2540   18.7561 C   0  0  0  0  0  0
    3.2879   -4.6676   19.4788 C   0  0  0  0  0  0
    7.4770   -6.9724   22.9019 C   0  0  0  0  0  0
    9.5314   -6.2814   23.9832 C   0  0  0  0  0  0
    7.2845   -7.9294   23.9024 C   0  0  0  0  0  0
    8.2084   -8.0598   24.9392 C   0  0  0  0  0  0
    9.3287   -7.2346   24.9786 C   0  0  0  0  0  0
    6.0356   -0.2144   22.0217 H   0  0  0  0  0  0
    7.4517   -3.8978   20.9134 H   0  0  0  0  0  0
    2.6504   -3.0641   16.9288 H   0  0  0  0  0  0
    4.9125   -3.6632   21.7634 H   0  0  0  0  0  0
    9.8377   -4.5967   22.0387 H   0  0  0  0  0  0
    8.9236   -5.5667   20.9091 H   0  0  0  0  0  0
    5.3326    0.1528   19.8227 H   0  0  0  0  0  0
    3.9401   -0.5922   17.9251 H   0  0  0  0  0  0
    3.2453   -5.5899   20.0392 H   0  0  0  0  0  0
   10.4088   -5.6499   24.0269 H   0  0  0  0  0  0
    6.4215   -8.5794   23.8700 H   0  0  0  0  0  0
   10.0396   -7.3300   25.7843 H   0  0  0  0  0  0
  1 22  1  0  0  0
  2 25  1  0  0  0
  3 11  2  0  0  0
  4 12  2  0  0  0
  5  9  1  0  0  0
  5 13  1  0  0  0
  5 27  1  0  0  0
  6 10  1  0  0  0
  6 17  1  0  0  0
  6 28  1  0  0  0
  7  8  1  0  0  0
  7 15  1  0  0  0
  7 29  1  0  0  0
  8 21  2  0  0  0
  9 10  2  0  0  0
  9 11  1  0  0  0
 10 12  1  0  0  0
 11 12  1  0  0  0
 13 16  1  0  0  0
 13 18  2  0  0  0
 14 15  1  0  0  0
 14 16  2  0  0  0
 14 21  1  0  0  0
 15 20  2  0  0  0
 16 30  1  0  0  0
 17 19  1  0  0  0
 17 31  1  0  0  0
 17 32  1  0  0  0
 18 20  1  0  0  0
 18 33  1  0  0  0
 19 22  1  0  0  0
 19 23  2  0  0  0
 20 34  1  0  0  0
 21 35  1  0  0  0
 22 24  2  0  0  0
 23 26  1  0  0  0
 23 36  1  0  0  0
 24 25  1  0  0  0
 24 37  1  0  0  0
 25 26  2  0  0  0
 26 38  1  0  0  0
M  END
> <s_m_entry_id>
5769

> <s_m_entry_name>
dock_pv.164

> <s_m_Source_Path>
/home/csk/Desktop/cluster/DUD-E-result/igf1r

> <s_m_Source_File>
dock_pv.maegz

> <i_m_Source_File_Index>
164

> <chembl_id>
CHEMBL1979554

> <chembl_pref_name>
None

> <i_lp_mmshare_version>
53161

> <r_lp_tautomer_probability>
1

> <s_lp_Force_Field>
OPLS_2005

> <r_lp_Energy>
53.532245

> <b_lp_Chiralities_Consistent>
1

> <s_lp_Variant>
CHEMBL1957_lig3311-1

> <s_i_glide_gridfile>
glide-grid_2oj9

> <i_i_glide_lignum>
4655

> <i_i_glide_rotatable_bonds>
5

> <r_i_docking_score>
-7.25300634931716

> <r_i_glide_ligand_efficiency>
-0.278961782666045

> <r_i_glide_ligand_efficiency_sa>
-0.826423183486546

> <r_i_glide_ligand_efficiency_ln>
-1.70334474208217

> <r_i_glide_gscore>
-7.25300634931716

> <r_i_glide_lipo>
-2.80267025100116

> <r_i_glide_hbond>
-0.439361004930438

> <r_i_glide_metal>
0

> <r_i_glide_rewards>
-1.7691601279902

> <r_i_glide_evdw>
-42.656982421875

> <r_i_glide_ecoul>
-5.05520582199097

> <r_i_glide_erotb>
0.649315028997026

> <r_i_glide_esite>
0

> <r_i_glide_emodel>
-64.7379173365413

> <r_i_glide_energy>
-47.712188243866

> <r_i_glide_einternal>
4.90699481964111

> <i_i_glide_confnum>
40

> <i_i_glide_posenum>
77

> <r_i_glide_eff_state_penalty>
0

> <s_user_duplicate_titles>
CHEMBL1957_lig3311

> <i_f3d_flags>
0

> <s_m_subgroup_title>
dock_pv

> <s_m_subgroupid>
dock_pv

> <b_m_subgroup_collapsed>
1

$$$$
CHEMBL1957_lig821
                    3D
 Schrodinger Suite 2021-1.
 43 46  0  0  1  0            999 V2000
    3.9409   -1.6149   18.9996 N   0  0  0  0  0  0
    4.4389   -2.1821   20.1238 C   0  0  0  0  0  0
    4.2401   -3.4671   20.5059 N   0  0  0  0  0  0
    3.5716   -4.2753   19.6494 C   0  0  0  0  0  0
    3.0415   -3.7857   18.4557 C   0  0  0  0  0  0
    3.2377   -2.4340   18.1774 C   0  0  0  0  0  0
    3.5261   -5.6610   19.8685 N   0  0  0  0  0  0
    4.2626   -6.4989   20.7296 C   0  0  0  0  0  0
    4.8680   -6.0770   21.9196 C   0  0  0  0  0  0
    5.1905   -8.7273   21.0372 N   0  0  0  0  0  0
    4.4403   -7.8309   20.3490 C   0  0  0  0  0  0
    5.7956   -8.3170   22.1829 C   0  0  0  0  0  0
    5.6545   -6.9823   22.6721 C   0  0  0  0  0  0
    6.3118   -6.6135   23.8706 C   0  0  0  0  0  0
    7.1022   -7.5416   24.5456 C   0  0  0  0  0  0
    7.2406   -8.8406   24.0661 C   0  0  0  0  0  0
    6.5927   -9.2392   22.8997 C   0  0  0  0  0  0
    5.2721   -1.3794   20.9036 N   0  0  0  0  0  0
    6.0688   -1.7581   21.9915 C   0  0  0  0  0  0
    6.0613   -0.9611   23.1355 C   0  0  0  0  0  0
    6.8306   -1.3098   24.2579 C   0  0  0  0  0  0
    7.6318   -2.4501   24.1957 C   0  0  0  0  0  0
    7.6544   -3.2455   23.0512 C   0  0  0  0  0  0
    6.8706   -2.9010   21.9527 C   0  0  0  0  0  0
    6.8398   -0.5999   25.4382 O   0  0  0  0  0  0
    5.9686    0.5143   25.5916 C   0  0  0  0  0  0
    2.5202   -4.4170   17.7518 H   0  0  0  0  0  0
    2.8530   -1.9998   17.2650 H   0  0  0  0  0  0
    3.0577   -6.1531   19.1260 H   0  0  0  0  0  0
    4.7656   -5.0685   22.2890 H   0  0  0  0  0  0
    4.0026   -8.2097   19.4387 H   0  0  0  0  0  0
    6.2064   -5.6086   24.2522 H   0  0  0  0  0  0
    7.6136   -7.2555   25.4524 H   0  0  0  0  0  0
    7.8578   -9.5426   24.6060 H   0  0  0  0  0  0
    6.7034  -10.2492   22.5340 H   0  0  0  0  0  0
    5.4712   -0.4772   20.4953 H   0  0  0  0  0  0
    5.4613   -0.0711   23.1397 H   0  0  0  0  0  0
    8.2511   -2.7167   25.0381 H   0  0  0  0  0  0
    8.2881   -4.1202   23.0137 H   0  0  0  0  0  0
    6.8997   -3.5205   21.0665 H   0  0  0  0  0  0
    6.0460    0.9087   26.6063 H   0  0  0  0  0  0
    6.2310    1.3200   24.9040 H   0  0  0  0  0  0
    4.9265    0.2315   25.4380 H   0  0  0  0  0  0
  1  6  1  0  0  0
  1  2  2  0  0  0
  2 18  1  0  0  0
  2  3  1  0  0  0
  3  4  2  0  0  0
  4  7  1  0  0  0
  4  5  1  0  0  0
  5  6  2  0  0  0
  5 27  1  0  0  0
  6 28  1  0  0  0
  7  8  1  0  0  0
  7 29  1  0  0  0
  8  9  2  0  0  0
  8 11  1  0  0  0
  9 13  1  0  0  0
  9 30  1  0  0  0
 10 12  1  0  0  0
 10 11  2  0  0  0
 11 31  1  0  0  0
 12 13  1  0  0  0
 12 17  2  0  0  0
 13 14  2  0  0  0
 14 15  1  0  0  0
 14 32  1  0  0  0
 15 16  2  0  0  0
 15 33  1  0  0  0
 16 17  1  0  0  0
 16 34  1  0  0  0
 17 35  1  0  0  0
 18 19  1  0  0  0
 18 36  1  0  0  0
 19 20  2  0  0  0
 19 24  1  0  0  0
 20 21  1  0  0  0
 20 37  1  0  0  0
 21 22  2  0  0  0
 21 25  1  0  0  0
 22 23  1  0  0  0
 22 38  1  0  0  0
 23 24  2  0  0  0
 23 39  1  0  0  0
 24 40  1  0  0  0
 25 26  1  0  0  0
 26 41  1  0  0  0
 26 42  1  0  0  0
 26 43  1  0  0  0
M  END
> <s_m_entry_id>
5770

> <s_m_entry_name>
dock_pv.165

> <s_m_Source_Path>
/home/csk/Desktop/cluster/DUD-E-result/igf1r

> <s_m_Source_File>
dock_pv.maegz

> <i_m_Source_File_Index>
165

> <chembl_id>
CHEMBL1760052

> <chembl_pref_name>
None

> <i_lp_mmshare_version>
53161

> <r_lp_tautomer_probability>
0.999999624730965

> <s_lp_Force_Field>
OPLS_2005

> <r_lp_Energy>
13.717828

> <b_lp_Chiralities_Consistent>
1

> <s_lp_Variant>
CHEMBL1957_lig821-1

> <s_i_glide_gridfile>
glide-grid_2oj9

> <i_i_glide_lignum>
1052

> <i_i_glide_rotatable_bonds>
5

> <r_i_docking_score>
-7.25120830787105

> <r_i_glide_ligand_efficiency>
-0.278892627225809

> <r_i_glide_ligand_efficiency_sa>
-0.826218310766963

> <r_i_glide_ligand_efficiency_ln>
-1.7029224779484

> <r_i_glide_gscore>
-7.25120830787105

> <r_i_glide_lipo>
-3.61297370285304

> <r_i_glide_hbond>
-0.32

> <r_i_glide_metal>
0

> <r_i_glide_rewards>
-1.38715422448802

> <r_i_glide_evdw>
-44.3949089050293

> <r_i_glide_ecoul>
-2.36677360534668

> <r_i_glide_erotb>
0.643681105523484

> <r_i_glide_esite>
0

> <r_i_glide_emodel>
-64.3657336334713

> <r_i_glide_energy>
-46.761682510376

> <r_i_glide_einternal>
2.41565179824829

> <i_i_glide_confnum>
5

> <i_i_glide_posenum>
171

> <r_i_glide_eff_state_penalty>
0

> <s_user_duplicate_titles>
CHEMBL1957_lig821

> <i_f3d_flags>
0

> <s_m_subgroup_title>
dock_pv

> <s_m_subgroupid>
dock_pv

> <b_m_subgroup_collapsed>
1

$$$$
CHEMBL1957_lig1352
                    3D
 Schrodinger Suite 2021-1.
 44 48  0  0  1  0            999 V2000
    6.0537   -9.1750   21.5880 C   0  0  0  0  0  0
    7.3317   -9.4716   22.0537 C   0  0  0  0  0  0
    8.1962   -8.5093   22.4554 N   0  0  0  0  0  0
    7.7475   -7.2300   22.4396 C   0  0  0  0  0  0
    6.5089   -6.8463   22.0227 N   0  0  0  0  0  0
    5.6775   -7.8247   21.5727 C   0  0  0  0  0  0
    4.4361   -7.5053   21.0146 N   0  0  0  0  0  0
    8.6654   -6.3193   22.9770 N   0  0  0  0  0  0
    4.0391   -6.3778   20.3419 C   0  0  0  0  0  0
    3.9247   -5.0292   20.6377 C   0  0  0  0  0  0
    3.3636   -4.4137   19.4908 C   0  0  0  0  0  0
    3.2376   -5.2912   18.5220 N   0  0  0  0  0  0
    3.6377   -6.4538   19.0395 N   0  0  0  0  0  0
    2.8611   -2.9984   19.2407 C   0  0  0  0  0  0
    2.8413   -2.0582   20.4102 C   0  0  0  0  0  0
    3.6847   -1.7343   19.1889 C   0  0  0  0  0  0
    4.9196  -10.5806   20.9685 Br  0  0  0  0  0  0
    8.5617   -5.0198   23.5083 C   0  0  0  0  0  0
    8.4381   -2.5770   24.9196 C   0  0  0  0  0  0
    9.2381   -3.6161   25.3751 C   0  0  0  0  0  0
    9.2829   -4.8188   24.6849 C   0  0  0  0  0  0
    7.6960   -2.7122   23.7301 C   0  0  0  0  0  0
    7.8047   -3.9243   22.9738 C   0  0  0  0  0  0
    7.1921   -3.9482   21.7008 C   0  0  0  0  0  0
    6.4282   -2.8841   21.2518 C   0  0  0  0  0  0
    6.2433   -1.7521   22.0312 C   0  0  0  0  0  0
    6.8757   -1.6540   23.2639 C   0  0  0  0  0  0
    7.6901  -10.4908   22.0826 H   0  0  0  0  0  0
    3.9486   -8.3641   20.8096 H   0  0  0  0  0  0
    9.5083   -6.7951   23.2622 H   0  0  0  0  0  0
    4.1787   -4.5602   21.5730 H   0  0  0  0  0  0
    3.7123   -7.2905   18.4714 H   0  0  0  0  0  0
    2.0382   -2.9556   18.5299 H   0  0  0  0  0  0
    3.3420   -2.3439   21.3359 H   0  0  0  0  0  0
    1.8965   -1.5546   20.6044 H   0  0  0  0  0  0
    3.3539   -0.9378   18.5210 H   0  0  0  0  0  0
    4.7659   -1.7990   19.1979 H   0  0  0  0  0  0
    8.3865   -1.6550   25.4782 H   0  0  0  0  0  0
    9.8003   -3.5011   26.2899 H   0  0  0  0  0  0
    9.8801   -5.6195   25.0977 H   0  0  0  0  0  0
    7.3420   -4.7862   21.0416 H   0  0  0  0  0  0
    5.9967   -2.9703   20.2725 H   0  0  0  0  0  0
    5.6443   -0.9346   21.6588 H   0  0  0  0  0  0
    6.7828   -0.7525   23.8521 H   0  0  0  0  0  0
  1  2  2  0  0  0
  1  6  1  0  0  0
  1 17  1  0  0  0
  2  3  1  0  0  0
  2 28  1  0  0  0
  3  4  2  0  0  0
  4  5  1  0  0  0
  4  8  1  0  0  0
  5  6  2  0  0  0
  6  7  1  0  0  0
  7  9  1  0  0  0
  7 29  1  0  0  0
  8 18  1  0  0  0
  8 30  1  0  0  0
  9 13  1  0  0  0
  9 10  2  0  0  0
 10 11  1  0  0  0
 10 31  1  0  0  0
 11 14  1  0  0  0
 11 12  2  0  0  0
 12 13  1  0  0  0
 13 32  1  0  0  0
 14 15  1  0  0  0
 14 16  1  0  0  0
 14 33  1  0  0  0
 15 16  1  0  0  0
 15 34  1  0  0  0
 15 35  1  0  0  0
 16 36  1  0  0  0
 16 37  1  0  0  0
 18 23  2  0  0  0
 18 21  1  0  0  0
 19 22  2  0  0  0
 19 20  1  0  0  0
 19 38  1  0  0  0
 20 21  2  0  0  0
 20 39  1  0  0  0
 21 40  1  0  0  0
 22 23  1  0  0  0
 22 27  1  0  0  0
 23 24  1  0  0  0
 24 25  2  0  0  0
 24 41  1  0  0  0
 25 26  1  0  0  0
 25 42  1  0  0  0
 26 27  2  0  0  0
 26 43  1  0  0  0
 27 44  1  0  0  0
M  END
> <s_m_entry_id>
5771

> <s_m_entry_name>
dock_pv.166

> <s_m_Source_Path>
/home/csk/Desktop/cluster/DUD-E-result/igf1r

> <s_m_Source_File>
dock_pv.maegz

> <i_m_Source_File_Index>
166

> <chembl_id>
CHEMBL3918863

> <chembl_pref_name>
None

> <i_lp_mmshare_version>
53161

> <r_lp_tautomer_probability>
0.15739995007316

> <s_lp_Force_Field>
OPLS_2005

> <r_lp_Energy>
11.585579

> <b_lp_Chiralities_Consistent>
1

> <s_lp_Variant>
CHEMBL1957_lig1352-2

> <s_i_glide_gridfile>
glide-grid_2oj9

> <i_i_glide_lignum>
1837

> <i_i_glide_rotatable_bonds>
5

> <r_i_docking_score>
-7.24717280765554

> <r_i_glide_ligand_efficiency>
-0.268413807690946

> <r_i_glide_ligand_efficiency_sa>
-0.80524142218819

> <r_i_glide_ligand_efficiency_ln>
-1.68702235064069

> <r_i_glide_gscore>
-7.24717280765554

> <r_i_glide_lipo>
-3.50200524745465

> <r_i_glide_hbond>
-0.330996124609608

> <r_i_glide_metal>
0

> <r_i_glide_rewards>
-1.54357294617412

> <r_i_glide_evdw>
-35.4724502563477

> <r_i_glide_ecoul>
-3.09582781791687

> <r_i_glide_erotb>
0.390452004585867

> <r_i_glide_esite>
-0.0230538084981193

> <r_i_glide_emodel>
-50.897199450401

> <r_i_glide_energy>
-38.5682780742645

> <r_i_glide_einternal>
11.1184501647949

> <i_i_glide_confnum>
14

> <i_i_glide_posenum>
236

> <r_i_glide_eff_state_penalty>
0

> <s_user_duplicate_titles>
CHEMBL1957_lig1352,CHEMBL1957_lig1352

> <i_f3d_flags>
0

> <s_m_subgroup_title>
dock_pv

> <s_m_subgroupid>
dock_pv

> <b_m_subgroup_collapsed>
1

$$$$
CHEMBL1957_lig110
                    3D
 Schrodinger Suite 2021-1.
 37 40  0  0  1  0            999 V2000
    7.6394   -3.2828   24.1088 N   0  0  0  0  0  0
    7.1063   -2.0929   23.7578 C   0  0  0  0  0  0
    6.0899   -1.9897   22.8181 C   0  0  0  0  0  0
    7.1656   -4.4135   23.5359 C   0  0  0  0  0  0
    6.1044   -4.4120   22.6035 C   0  0  0  0  0  0
    5.6139   -3.1444   22.2447 N   0  0  0  0  0  0
    4.6648   -3.3728   21.2696 C   0  0  0  0  0  0
    4.4835   -4.6589   21.0552 N   0  0  0  0  0  0
    5.3119   -5.3248   21.8381 C   0  0  0  0  0  0
    3.9646   -2.2788   20.4904 C   0  0  0  0  0  0
    4.8661   -1.1395   19.9828 C   0  0  0  0  0  0
    4.0651   -1.1574   18.6912 C   0  0  0  0  0  0
    3.6380   -2.5884   19.0176 C   0  0  0  0  0  0
    7.8202   -5.5746   23.9105 N   0  0  0  0  0  0
    5.3291   -6.8177   21.8343 C   0  0  0  0  0  0
    5.1550   -7.5321   20.6407 C   0  0  0  0  0  0
    5.2379   -8.9231   20.6380 C   0  0  0  0  0  0
    5.5027   -9.5986   21.8252 C   0  0  0  0  0  0
    5.6660   -8.8961   23.0157 C   0  0  0  0  0  0
    5.5626   -7.5106   23.0247 C   0  0  0  0  0  0
    5.5503  -10.9646   21.8381 O   0  0  0  0  0  0
    7.5240   -1.2168   24.2351 H   0  0  0  0  0  0
    5.6552   -1.0520   22.5140 H   0  0  0  0  0  0
    3.0915   -1.9201   21.0373 H   0  0  0  0  0  0
    4.8345   -0.1935   20.5208 H   0  0  0  0  0  0
    5.9044   -1.4344   19.8092 H   0  0  0  0  0  0
    3.2380   -0.4540   18.6381 H   0  0  0  0  0  0
    4.7098   -1.0318   17.8380 H   0  0  0  0  0  0
    4.2976   -3.3204   18.5474 H   0  0  0  0  0  0
    2.5926   -2.8084   18.7967 H   0  0  0  0  0  0
    7.6150   -6.4421   23.4393 H   0  0  0  0  0  0
    8.5930   -5.4830   24.5531 H   0  0  0  0  0  0
    4.9640   -7.0173   19.7098 H   0  0  0  0  0  0
    5.0974   -9.4758   19.7194 H   0  0  0  0  0  0
    5.8533   -9.4263   23.9348 H   0  0  0  0  0  0
    5.6525   -6.9817   23.9633 H   0  0  0  0  0  0
    5.4581  -11.3132   22.7309 H   0  0  0  0  0  0
  1  2  1  0  0  0
  1  4  2  0  0  0
  2  3  2  0  0  0
  2 22  1  0  0  0
  3  6  1  0  0  0
  3 23  1  0  0  0
  4 14  1  0  0  0
  4  5  1  0  0  0
  5  6  1  0  0  0
  5  9  2  0  0  0
  6  7  1  0  0  0
  7 10  1  0  0  0
  7  8  2  0  0  0
  8  9  1  0  0  0
  9 15  1  0  0  0
 10 11  1  0  0  0
 10 13  1  0  0  0
 10 24  1  0  0  0
 11 12  1  0  0  0
 11 25  1  0  0  0
 11 26  1  0  0  0
 12 13  1  0  0  0
 12 27  1  0  0  0
 12 28  1  0  0  0
 13 29  1  0  0  0
 13 30  1  0  0  0
 14 31  1  0  0  0
 14 32  1  0  0  0
 15 16  2  0  0  0
 15 20  1  0  0  0
 16 17  1  0  0  0
 16 33  1  0  0  0
 17 18  2  0  0  0
 17 34  1  0  0  0
 18 19  1  0  0  0
 18 21  1  0  0  0
 19 20  2  0  0  0
 19 35  1  0  0  0
 20 36  1  0  0  0
 21 37  1  0  0  0
M  END
> <s_m_entry_id>
5772

> <s_m_entry_name>
dock_pv.167

> <s_m_Source_Path>
/home/csk/Desktop/cluster/DUD-E-result/igf1r

> <s_m_Source_File>
dock_pv.maegz

> <i_m_Source_File_Index>
167

> <chembl_id>
CHEMBL398077

> <chembl_pref_name>
None

> <i_lp_mmshare_version>
53161

> <r_lp_tautomer_probability>
0.999999999997365

> <s_lp_Force_Field>
OPLS_2005

> <r_lp_Energy>
31.196553

> <b_lp_Chiralities_Consistent>
1

> <s_lp_Variant>
CHEMBL1957_lig110-1

> <s_i_glide_gridfile>
glide-grid_2oj9

> <i_i_glide_lignum>
275

> <i_i_glide_rotatable_bonds>
3

> <r_i_docking_score>
-7.246487754391

> <r_i_glide_ligand_efficiency>
-0.34507084544719

> <r_i_glide_ligand_efficiency_sa>
-0.952024297102374

> <r_i_glide_ligand_efficiency_ln>
-1.79167945436591

> <r_i_glide_gscore>
-7.246487754391

> <r_i_glide_lipo>
-3.41994955914842

> <r_i_glide_hbond>
-0.174604276720956

> <r_i_glide_metal>
0

> <r_i_glide_rewards>
-2.07545232488468

> <r_i_glide_evdw>
-34.4946136474609

> <r_i_glide_ecoul>
-2.07567882537842

> <r_i_glide_erotb>
0.459600912542867

> <r_i_glide_esite>
0

> <r_i_glide_emodel>
-50.5547776253226

> <r_i_glide_energy>
-36.5702924728394

> <r_i_glide_einternal>
2.67544960975647

> <i_i_glide_confnum>
1

> <i_i_glide_posenum>
213

> <r_i_glide_eff_state_penalty>
0

> <s_user_duplicate_titles>
CHEMBL1957_lig110

> <i_f3d_flags>
0

> <s_m_subgroup_title>
dock_pv

> <s_m_subgroupid>
dock_pv

> <b_m_subgroup_collapsed>
1

$$$$
CHEMBL1957_lig3407
                    3D
 Schrodinger Suite 2021-1.
 45 49  0  0  1  0            999 V2000
    5.1976  -10.0270   21.1317 F   0  0  0  0  0  0
    5.2834   -2.1350   23.4984 F   0  0  0  0  0  0
    9.4721   -2.8183   25.5851 F   0  0  0  0  0  0
    2.8406   -5.9946   19.1734 O   0  0  0  0  0  0
    2.8302   -2.0185   19.9216 O   0  0  0  0  0  0
    3.1859   -3.3733   18.1241 O   0  0  0  0  0  0
    7.0023   -8.8888   23.1208 N   0  0  0  0  0  0
    5.5993   -4.5545   21.9383 N   0  0  0  0  0  0
    6.0900   -6.8154   22.6025 N   0  0  0  0  0  0
   10.0379   -9.2545   22.5008 N   0  0  0  0  0  0
    8.4590  -10.6880   23.9530 C   0  0  2  0  0  0
    8.7584   -9.4496   24.7506 C   0  0  1  0  0  0
    9.7796   -9.9611   23.7459 C   0  0  2  0  0  0
    5.3739   -5.9633   21.8237 C   0  0  0  0  0  0
    6.0651   -8.1518   22.3789 C   0  0  0  0  0  0
    4.4749   -6.4531   20.8494 C   0  0  0  0  0  0
    7.2309  -10.3285   23.1022 C   0  0  0  0  0  0
    7.6858   -8.4380   24.3307 C   0  0  0  0  0  0
    5.2384   -8.6985   21.3882 C   0  0  0  0  0  0
    3.6290   -5.5400   20.0087 C   0  0  0  0  0  0
    3.8984   -4.0955   20.2378 C   0  0  0  0  0  0
    4.4379   -7.8408   20.6378 C   0  0  0  0  0  0
    6.6392   -3.9898   22.7463 C   0  0  0  0  0  0
    4.8379   -3.7061   21.1369 C   0  0  0  0  0  0
    6.4382   -2.8436   23.5464 C   0  0  0  0  0  0
    3.2443   -3.0726   19.4538 C   0  0  0  0  0  0
    7.8948   -4.6244   22.8422 C   0  0  0  0  0  0
    7.4182   -2.4144   24.4411 C   0  0  0  0  0  0
    8.8307   -4.2495   23.8034 C   0  0  0  0  0  0
    8.5788   -3.1604   24.6304 C   0  0  0  0  0  0
    2.7185   -2.7045   17.6202 H   0  0  0  0  0  0
   10.7028   -8.4964   22.6371 H   0  0  0  0  0  0
   10.4517   -9.8902   21.8335 H   0  0  0  0  0  0
    8.4071  -11.6362   24.4884 H   0  0  0  0  0  0
    8.9150   -9.5570   25.8239 H   0  0  0  0  0  0
   10.6718  -10.4352   24.1575 H   0  0  0  0  0  0
    6.3383  -10.8399   23.4646 H   0  0  0  0  0  0
    7.3633  -10.6879   22.0817 H   0  0  0  0  0  0
    8.1331   -7.4537   24.1862 H   0  0  0  0  0  0
    6.9520   -8.2826   25.1217 H   0  0  0  0  0  0
    3.8133   -8.2681   19.8639 H   0  0  0  0  0  0
    5.0710   -2.6530   21.2384 H   0  0  0  0  0  0
    8.1405   -5.4650   22.2102 H   0  0  0  0  0  0
    7.2466   -1.5333   25.0388 H   0  0  0  0  0  0
    9.7556   -4.7986   23.8990 H   0  0  0  0  0  0
  1 19  1  0  0  0
  2 25  1  0  0  0
  3 30  1  0  0  0
  4 20  2  0  0  0
  5 26  2  0  0  0
  6 26  1  0  0  0
  6 31  1  0  0  0
  7 15  1  0  0  0
  7 17  1  0  0  0
  7 18  1  0  0  0
  8 14  1  0  0  0
  8 23  1  0  0  0
  8 24  1  0  0  0
  9 14  1  0  0  0
  9 15  2  0  0  0
 10 13  1  0  0  0
 10 32  1  0  0  0
 10 33  1  0  0  0
 11 12  1  0  0  0
 11 13  1  0  0  0
 11 17  1  0  0  0
 11 34  1  0  0  0
 12 13  1  0  0  0
 12 18  1  0  0  0
 12 35  1  0  0  0
 13 36  1  0  0  0
 14 16  2  0  0  0
 15 19  1  0  0  0
 16 20  1  0  0  0
 16 22  1  0  0  0
 17 37  1  0  0  0
 17 38  1  0  0  0
 18 39  1  0  0  0
 18 40  1  0  0  0
 19 22  2  0  0  0
 20 21  1  0  0  0
 21 24  2  0  0  0
 21 26  1  0  0  0
 22 41  1  0  0  0
 23 25  1  0  0  0
 23 27  2  0  0  0
 24 42  1  0  0  0
 25 28  2  0  0  0
 27 29  1  0  0  0
 27 43  1  0  0  0
 28 30  1  0  0  0
 28 44  1  0  0  0
 29 30  2  0  0  0
 29 45  1  0  0  0
M  END
> <s_m_entry_id>
5773

> <s_m_entry_name>
dock_pv.168

> <s_m_Source_Path>
/home/csk/Desktop/cluster/DUD-E-result/igf1r

> <s_m_Source_File>
dock_pv.maegz

> <i_m_Source_File_Index>
168

> <chembl_id>
CHEMBL1624529

> <chembl_pref_name>
None

> <i_lp_mmshare_version>
53161

> <r_lp_tautomer_probability>
1

> <s_lp_Force_Field>
OPLS_2005

> <r_lp_Energy>
76.442406

> <b_lp_Chiralities_Consistent>
1

> <s_lp_Variant>
CHEMBL1957_lig3407-2

> <s_i_glide_gridfile>
glide-grid_2oj9

> <i_i_glide_lignum>
4797

> <i_i_glide_rotatable_bonds>
4

> <r_i_docking_score>
-7.24208228812095

> <r_i_glide_ligand_efficiency>
-0.241402742937365

> <r_i_glide_ligand_efficiency_sa>
-0.750094449030997

> <r_i_glide_ligand_efficiency_ln>
-1.64548000466771

> <r_i_glide_gscore>
-7.24208228812095

> <r_i_glide_lipo>
-2.3759200601165

> <r_i_glide_hbond>
-0.103353007400528

> <r_i_glide_metal>
0

> <r_i_glide_rewards>
-2.27708902331902

> <r_i_glide_evdw>
-39.697193145752

> <r_i_glide_ecoul>
-5.61829471588135

> <r_i_glide_erotb>
0.341883667384902

> <r_i_glide_esite>
0

> <r_i_glide_emodel>
-59.1447669272877

> <r_i_glide_energy>
-45.3154878616333

> <r_i_glide_einternal>
5.80155277252197

> <i_i_glide_confnum>
36

> <i_i_glide_posenum>
199

> <r_i_glide_eff_state_penalty>
0

> <s_user_duplicate_titles>
CHEMBL1957_lig3407

> <i_f3d_flags>
0

> <s_m_subgroup_title>
dock_pv

> <s_m_subgroupid>
dock_pv

> <b_m_subgroup_collapsed>
1

$$$$
CHEMBL1957_lig440
                    3D
 Schrodinger Suite 2021-1.
 33 35  0  0  1  0            999 V2000
    6.7797   -9.3910   23.6030 C   0  0  0  0  0  0
    7.7798   -8.5086   23.9920 C   0  0  0  0  0  0
    7.6922   -7.1414   23.6976 C   0  0  0  0  0  0
    5.7065   -8.9269   22.8604 C   0  0  0  0  0  0
    5.6032   -7.5743   22.5580 C   0  0  0  0  0  0
    6.5463   -6.6348   23.0275 C   0  0  0  0  0  0
    4.4380   -6.0454   21.1681 C   0  0  0  0  0  0
    4.5223   -7.2540   21.7630 O   0  0  0  0  0  0
    5.2380   -4.9080   21.7440 C   0  0  0  0  0  0
    6.2350   -5.1909   22.7089 C   0  0  0  0  0  0
    6.8380   -4.1118   23.3726 C   0  0  0  0  0  0
    6.5632   -2.7949   23.0244 C   0  0  0  0  0  0
    5.6695   -2.5280   21.9943 C   0  0  0  0  0  0
    4.9861   -3.5676   21.3755 C   0  0  0  0  0  0
    3.6380   -5.9665   20.2380 O   0  0  0  0  0  0
    4.0626   -3.2151   20.4227 O   0  0  0  0  0  0
    7.1825   -1.7849   23.7093 O   0  0  0  0  0  0
    8.9091   -6.3002   24.0622 C   0  0  0  0  0  0
    6.8380  -10.7128   23.9522 O   0  0  0  0  0  0
    6.2258   -0.6185   24.4202 S   0  0  0  0  0  0
    7.2380   -0.1550   25.6355 O   0  0  0  0  0  0
    6.0804    0.5023   23.4857 O   0  0  0  0  0  0
    5.0588   -1.2540   25.0380 O   0  0  0  0  0  0
    8.6347   -8.8960   24.5276 H   0  0  0  0  0  0
    4.9530   -9.6195   22.5155 H   0  0  0  0  0  0
    7.5145   -4.2590   24.1949 H   0  0  0  0  0  0
    5.4773   -1.5039   21.7126 H   0  0  0  0  0  0
    4.0869   -2.2832   20.1992 H   0  0  0  0  0  0
    9.1129   -5.5440   23.3039 H   0  0  0  0  0  0
    9.8137   -6.9097   24.0963 H   0  0  0  0  0  0
    8.7848   -5.8300   25.0380 H   0  0  0  0  0  0
    5.9876  -11.1562   23.8380 H   0  0  0  0  0  0
    8.1600   -0.0289   25.2966 H   0  0  0  0  0  0
  1  2  2  0  0  0
  1 19  1  0  0  0
  1  4  1  0  0  0
  2  3  1  0  0  0
  2 24  1  0  0  0
  3  6  2  0  0  0
  3 18  1  0  0  0
  4  5  2  0  0  0
  4 25  1  0  0  0
  5  8  1  0  0  0
  5  6  1  0  0  0
  6 10  1  0  0  0
  7 15  2  0  0  0
  7  9  1  0  0  0
  7  8  1  0  0  0
  9 14  1  0  0  0
  9 10  2  0  0  0
 10 11  1  0  0  0
 11 12  2  0  0  0
 11 26  1  0  0  0
 12 13  1  0  0  0
 12 17  1  0  0  0
 13 14  2  0  0  0
 13 27  1  0  0  0
 14 16  1  0  0  0
 16 28  1  0  0  0
 17 20  1  0  0  0
 18 29  1  0  0  0
 18 30  1  0  0  0
 18 31  1  0  0  0
 19 32  1  0  0  0
 20 21  1  0  0  0
 20 22  2  0  0  0
 20 23  2  0  0  0
 21 33  1  0  0  0
M  END
> <s_m_entry_id>
5774

> <s_m_entry_name>
dock_pv.169

> <s_m_Source_Path>
/home/csk/Desktop/cluster/DUD-E-result/igf1r

> <s_m_Source_File>
dock_pv.maegz

> <i_m_Source_File_Index>
169

> <chembl_id>
CHEMBL483525

> <chembl_pref_name>
None

> <i_lp_mmshare_version>
53161

> <r_lp_tautomer_probability>
1

> <s_lp_Force_Field>
OPLS_2005

> <r_lp_Energy>
29.46629

> <b_lp_Chiralities_Consistent>
1

> <s_lp_Variant>
CHEMBL1957_lig440-1

> <s_i_glide_gridfile>
glide-grid_2oj9

> <i_i_glide_lignum>
624

> <i_i_glide_rotatable_bonds>
5

> <r_i_docking_score>
-7.23791059170052

> <r_i_glide_ligand_efficiency>
-0.314691764856545

> <r_i_glide_ligand_efficiency_sa>
-0.894941517971379

> <r_i_glide_ligand_efficiency_ln>
-1.7501924108179

> <r_i_glide_gscore>
-7.23791059170052

> <r_i_glide_lipo>
-2.21412566569899

> <r_i_glide_hbond>
-0.268195694857423

> <r_i_glide_metal>
0

> <r_i_glide_rewards>
-1.40263710388975

> <r_i_glide_evdw>
-31.8907241821289

> <r_i_glide_ecoul>
-13.7740898132324

> <r_i_glide_erotb>
0.330479441622716

> <r_i_glide_esite>
-0.0227818877857606

> <r_i_glide_emodel>
-62.87665135317

> <r_i_glide_energy>
-45.6648139953613

> <r_i_glide_einternal>
4.5295262336731

> <i_i_glide_confnum>
7

> <i_i_glide_posenum>
353

> <r_i_glide_eff_state_penalty>
0

> <s_user_duplicate_titles>
CHEMBL1957_lig440

> <i_f3d_flags>
0

> <s_m_subgroup_title>
dock_pv

> <s_m_subgroupid>
dock_pv

> <b_m_subgroup_collapsed>
1

$$$$
CHEMBL1957_lig3125
                    3D
 Schrodinger Suite 2021-1.
 38 41  0  0  1  0            999 V2000
    6.6859   -0.5380   23.8591 O   0  0  0  0  0  0
    9.6380   -7.5238   22.4616 O   0  0  0  0  0  0
    6.0380   -0.3741   21.6482 N   0  0  0  0  0  0
    6.1240   -4.7358   23.2991 N   0  0  0  0  0  0
    2.8380   -4.8540   17.8380 N   0  0  0  0  0  0
    5.6424   -2.4107   22.6533 C   0  0  1  0  0  0
    5.0215   -2.3522   21.2962 C   0  0  0  0  0  0
    6.6490   -3.5583   22.8658 C   0  0  0  0  0  0
    5.3067   -1.1208   20.7385 C   0  0  0  0  0  0
    6.1998   -0.9990   22.8301 C   0  0  0  0  0  0
    6.9550   -5.7670   23.6227 C   0  0  0  0  0  0
    8.3554   -5.6803   23.4466 C   0  0  0  0  0  0
    4.2724   -3.2827   20.5880 C   0  0  0  0  0  0
    8.0195   -3.4178   22.6331 C   0  0  0  0  0  0
    4.8143   -0.7537   19.4880 C   0  0  0  0  0  0
    3.8082   -2.9504   19.3126 C   0  0  0  0  0  0
    8.8579   -4.4932   22.9099 C   0  0  0  0  0  0
    9.2824   -6.8809   23.6693 C   0  0  1  0  0  0
    4.0380   -1.6746   18.7799 C   0  0  0  0  0  0
    6.3163   -7.0139   24.2380 C   0  0  0  0  0  0
    8.6424   -7.9116   24.6123 C   0  0  0  0  0  0
    7.2222   -8.2583   24.1424 C   0  0  0  0  0  0
    3.2467   -4.0001   18.4905 C   0  0  0  0  0  0
   10.5623   -7.2724   22.2380 H   0  0  0  0  0  0
    6.3957    0.5514   21.4632 H   0  0  0  0  0  0
    4.8697   -2.4540   23.4172 H   0  0  0  0  0  0
    4.1027   -4.2672   21.0038 H   0  0  0  0  0  0
    8.4380   -2.5007   22.2476 H   0  0  0  0  0  0
    5.0232    0.2181   19.0626 H   0  0  0  0  0  0
    9.9173   -4.4125   22.7110 H   0  0  0  0  0  0
   10.2208   -6.5402   24.1111 H   0  0  0  0  0  0
    3.6725   -1.4135   17.7980 H   0  0  0  0  0  0
    6.1327   -6.7983   25.2915 H   0  0  0  0  0  0
    5.3399   -7.2124   23.7936 H   0  0  0  0  0  0
    8.6257   -7.5196   25.6310 H   0  0  0  0  0  0
    9.2654   -8.8057   24.6689 H   0  0  0  0  0  0
    6.8380   -9.0761   24.7462 H   0  0  0  0  0  0
    7.2437   -8.6272   23.1154 H   0  0  0  0  0  0
  1 10  2  0  0  0
  2 18  1  0  0  0
  2 24  1  0  0  0
  3  9  1  0  0  0
  3 10  1  0  0  0
  3 25  1  0  0  0
  4  8  1  0  0  0
  4 11  2  0  0  0
  5 23  3  0  0  0
  6  7  1  0  0  0
  6  8  1  0  0  0
  6 10  1  0  0  0
  6 26  1  0  0  0
  7  9  1  0  0  0
  7 13  2  0  0  0
  8 14  2  0  0  0
  9 15  2  0  0  0
 11 12  1  0  0  0
 11 20  1  0  0  0
 12 17  2  0  0  0
 12 18  1  0  0  0
 13 16  1  0  0  0
 13 27  1  0  0  0
 14 17  1  0  0  0
 14 28  1  0  0  0
 15 19  1  0  0  0
 15 29  1  0  0  0
 16 19  2  0  0  0
 16 23  1  0  0  0
 17 30  1  0  0  0
 18 21  1  0  0  0
 18 31  1  0  0  0
 19 32  1  0  0  0
 20 22  1  0  0  0
 20 33  1  0  0  0
 20 34  1  0  0  0
 21 22  1  0  0  0
 21 35  1  0  0  0
 21 36  1  0  0  0
 22 37  1  0  0  0
 22 38  1  0  0  0
M  END
> <s_m_entry_id>
5777

> <s_m_entry_name>
dock_pv.172

> <s_m_Source_Path>
/home/csk/Desktop/cluster/DUD-E-result/igf1r

> <s_m_Source_File>
dock_pv.maegz

> <i_m_Source_File_Index>
172

> <chembl_id>
CHEMBL1985681

> <chembl_pref_name>
None

> <i_lp_mmshare_version>
53161

> <r_lp_tautomer_probability>
1

> <s_lp_Force_Field>
OPLS_2005

> <r_lp_Energy>
33.891137

> <b_lp_Chiralities_Consistent>
1

> <s_lp_Variant>
CHEMBL1957_lig3125-4

> <s_i_glide_gridfile>
glide-grid_2oj9

> <i_i_glide_lignum>
4345

> <i_i_glide_rotatable_bonds>
2

> <r_i_docking_score>
-7.22869281775513

> <r_i_glide_ligand_efficiency>
-0.31429099207631

> <r_i_glide_ligand_efficiency_sa>
-0.893801773496438

> <r_i_glide_ligand_efficiency_ln>
-1.74796346949575

> <r_i_glide_gscore>
-7.22869281775513

> <r_i_glide_lipo>
-2.3322712567708

> <r_i_glide_hbond>
-0.362827571841887

> <r_i_glide_metal>
0

> <r_i_glide_rewards>
-1.97065737623416

> <r_i_glide_evdw>
-29.6124897003174

> <r_i_glide_ecoul>
-8.45137691497803

> <r_i_glide_erotb>
0.197964064361684

> <r_i_glide_esite>
-0.0125696550073964

> <r_i_glide_emodel>
-51.9614180610236

> <r_i_glide_energy>
-38.0638666152954

> <r_i_glide_einternal>
2.34355282783508

> <i_i_glide_confnum>
4

> <i_i_glide_posenum>
365

> <r_i_glide_eff_state_penalty>
0

> <s_user_duplicate_titles>
CHEMBL1957_lig3125

> <i_f3d_flags>
0

> <s_m_subgroup_title>
dock_pv

> <s_m_subgroupid>
dock_pv

> <b_m_subgroup_collapsed>
1

$$$$
CHEMBL1957_lig189
                    3D
 Schrodinger Suite 2021-1.
 34 36  0  0  1  0            999 V2000
    8.4380   -2.8540   24.6380 C   0  0  0  0  0  0
    7.3588   -2.0258   24.3338 C   0  0  0  0  0  0
    6.3685   -2.4793   23.4789 C   0  0  0  0  0  0
    8.5068   -4.1259   24.0808 C   0  0  0  0  0  0
    7.5206   -4.5856   23.2017 C   0  0  0  0  0  0
    6.4350   -3.7412   22.8726 C   0  0  0  0  0  0
    5.2787   -4.2262   21.9692 C   0  0  2  0  0  0
    5.3207   -5.7500   21.6245 C   0  0  0  0  0  0
    6.1680   -6.5935   22.5858 C   0  0  0  0  0  0
    7.5838   -6.0047   22.6557 C   0  0  0  0  0  0
    9.3977   -2.4540   25.5378 O   0  0  0  0  0  0
    7.2380   -0.7789   24.8903 O   0  0  0  0  0  0
    4.7995   -3.2866   20.8347 C   0  0  0  0  0  0
    3.6969   -3.6689   20.0563 C   0  0  0  0  0  0
    3.2380   -2.8537   19.0256 C   0  0  0  0  0  0
    3.8362   -1.6203   18.7986 C   0  0  0  0  0  0
    4.9113   -1.2064   19.5764 C   0  0  0  0  0  0
    5.4038   -2.0449   20.5736 C   0  0  0  0  0  0
    5.5188   -1.8394   23.2924 H   0  0  0  0  0  0
    9.3338   -4.7692   24.3455 H   0  0  0  0  0  0
    4.4380   -4.1415   22.6380 H   0  0  0  0  0  0
    5.7412   -5.9095   20.6381 H   0  0  0  0  0  0
    4.3095   -6.1571   21.5798 H   0  0  0  0  0  0
    6.2081   -7.6279   22.2417 H   0  0  0  0  0  0
    5.7138   -6.6148   23.5786 H   0  0  0  0  0  0
    8.0402   -5.9926   21.6645 H   0  0  0  0  0  0
    8.2194   -6.6333   23.2816 H   0  0  0  0  0  0
    9.6380   -1.5204   25.4350 H   0  0  0  0  0  0
    8.1149   -0.3868   25.0380 H   0  0  0  0  0  0
    3.2037   -4.6137   20.2291 H   0  0  0  0  0  0
    2.4200   -3.1748   18.3998 H   0  0  0  0  0  0
    3.4751   -0.9869   18.0015 H   0  0  0  0  0  0
    5.3897   -0.2570   19.3800 H   0  0  0  0  0  0
    6.2795   -1.7124   21.1059 H   0  0  0  0  0  0
  1 11  1  0  0  0
  1  2  2  0  0  0
  1  4  1  0  0  0
  2 12  1  0  0  0
  2  3  1  0  0  0
  3  6  2  0  0  0
  3 19  1  0  0  0
  4  5  2  0  0  0
  4 20  1  0  0  0
  5  6  1  0  0  0
  5 10  1  0  0  0
  6  7  1  0  0  0
  7  8  1  0  0  0
  7 13  1  0  0  0
  7 21  1  0  0  0
  8  9  1  0  0  0
  8 22  1  0  0  0
  8 23  1  0  0  0
  9 10  1  0  0  0
  9 24  1  0  0  0
  9 25  1  0  0  0
 10 26  1  0  0  0
 10 27  1  0  0  0
 11 28  1  0  0  0
 12 29  1  0  0  0
 13 14  2  0  0  0
 13 18  1  0  0  0
 14 15  1  0  0  0
 14 30  1  0  0  0
 15 16  2  0  0  0
 15 31  1  0  0  0
 16 17  1  0  0  0
 16 32  1  0  0  0
 17 18  2  0  0  0
 17 33  1  0  0  0
 18 34  1  0  0  0
M  END
> <s_m_entry_id>
5778

> <s_m_entry_name>
dock_pv.173

> <s_m_Source_Path>
/home/csk/Desktop/cluster/DUD-E-result/igf1r

> <s_m_Source_File>
dock_pv.maegz

> <i_m_Source_File_Index>
173

> <chembl_id>
CHEMBL246361

> <chembl_pref_name>
None

> <i_lp_mmshare_version>
53161

> <r_lp_tautomer_probability>
0.999999999999776

> <s_lp_Force_Field>
OPLS_2005

> <r_lp_Energy>
14.457821

> <b_lp_Chiralities_Consistent>
1

> <s_lp_Variant>
CHEMBL1957_lig189-1

> <s_i_glide_gridfile>
glide-grid_2oj9

> <i_i_glide_lignum>
359

> <i_i_glide_rotatable_bonds>
3

> <r_i_docking_score>
-7.22847906239489

> <r_i_glide_ligand_efficiency>
-0.40158217013305

> <r_i_glide_ligand_efficiency_sa>
-1.05244301542994

> <r_i_glide_ligand_efficiency_ln>
-1.85804326995832

> <r_i_glide_gscore>
-7.22847906239489

> <r_i_glide_lipo>
-2.76965774078591

> <r_i_glide_hbond>
0

> <r_i_glide_metal>
0

> <r_i_glide_rewards>
-2.01236866666667

> <r_i_glide_evdw>
-22.903148651123

> <r_i_glide_ecoul>
-10.6727161407471

> <r_i_glide_erotb>
0.299612198725892

> <r_i_glide_esite>
0

> <r_i_glide_emodel>
-42.9415732267811

> <r_i_glide_energy>
-33.5758647918701

> <r_i_glide_einternal>
8.34770202636719

> <i_i_glide_confnum>
1

> <i_i_glide_posenum>
48

> <r_i_glide_eff_state_penalty>
0

> <s_user_duplicate_titles>
CHEMBL1957_lig189

> <i_f3d_flags>
0

> <s_m_subgroup_title>
dock_pv

> <s_m_subgroupid>
dock_pv

> <b_m_subgroup_collapsed>
1

$$$$
CHEMBL1957_lig2645
                    3D
 Schrodinger Suite 2021-1.
 50 53  0  0  1  0            999 V2000
    9.5027   -7.5254   24.0388 C   0  0  0  0  0  0
    9.2728   -6.2362   24.3859 N   0  0  0  0  0  0
    8.0668   -5.6783   24.1076 C   0  0  0  0  0  0
    8.5406   -8.3196   23.4216 C   0  0  0  0  0  0
    7.2990   -7.7775   23.2032 N   0  0  0  0  0  0
    7.0030   -6.4488   23.5667 C   0  0  0  0  0  0
    5.7025   -6.1510   23.2934 N   0  0  0  0  0  0
    5.2310   -7.2294   22.7170 C   0  0  0  0  0  0
    6.1529   -8.2688   22.6100 C   0  0  0  0  0  0
   10.8901   -8.0586   24.3348 C   0  0  0  0  0  0
    7.9648   -4.3019   24.3720 N   0  0  0  0  0  0
    7.2638   -3.4125   23.5920 C   0  0  0  0  0  0
    6.8069   -1.8360   24.1443 S   0  0  0  0  0  0
    6.0381   -1.4246   22.6674 N   0  0  0  0  0  0
    6.1775   -2.4322   21.8252 C   0  0  0  0  0  0
    6.8736   -3.5459   22.2766 C   0  0  0  0  0  0
    5.9984   -9.5711   21.9950 C   0  0  0  0  0  0
    6.4379  -10.8267   22.4411 C   0  0  0  0  0  0
    6.1235  -11.8074   21.6255 N   0  0  0  0  0  0
    5.4565  -11.2067   20.6380 N   0  0  0  0  0  0
    5.3460   -9.8540   20.8068 C   0  0  0  0  0  0
    5.6810   -2.2839   20.4007 C   0  0  0  0  0  0
    4.3643   -1.6585   20.2145 N   0  0  1  0  0  0
    4.2961   -0.9108   18.9490 C   0  0  0  0  0  0
    3.2670   -2.6250   20.3561 C   0  0  0  0  0  0
    3.1010   -3.6030   19.1698 C   0  0  0  0  0  0
    5.2381    0.3089   18.8947 C   0  0  0  0  0  0
    4.8380    1.2753   19.8380 O   0  0  0  0  0  0
    8.7088   -9.3363   23.1034 H   0  0  0  0  0  0
    4.2118   -7.2540   22.3605 H   0  0  0  0  0  0
   11.1623   -8.8541   23.6401 H   0  0  0  0  0  0
   11.6420   -7.2738   24.2381 H   0  0  0  0  0  0
   10.9346   -8.4540   25.3491 H   0  0  0  0  0  0
    8.7052   -3.9682   24.9712 H   0  0  0  0  0  0
    7.0807   -4.4114   21.6659 H   0  0  0  0  0  0
    6.9699  -11.0178   23.3611 H   0  0  0  0  0  0
    5.0923  -11.7213   19.8455 H   0  0  0  0  0  0
    4.8368   -9.2345   20.0826 H   0  0  0  0  0  0
    5.6697   -3.2540   19.9230 H   0  0  0  0  0  0
    6.4561   -1.7536   19.8622 H   0  0  0  0  0  0
    3.2885   -0.6327   18.6380 H   0  0  0  0  0  0
    4.6161   -1.5896   18.1570 H   0  0  0  0  0  0
    3.4284   -3.1921   21.2744 H   0  0  0  0  0  0
    2.3356   -2.0795   20.5157 H   0  0  0  0  0  0
    2.4380   -4.4229   19.4380 H   0  0  0  0  0  0
    2.6705   -3.1045   18.3005 H   0  0  0  0  0  0
    4.0379   -4.0543   18.8516 H   0  0  0  0  0  0
    5.2380    0.7458   17.8969 H   0  0  0  0  0  0
    6.2835    0.0681   19.0616 H   0  0  0  0  0  0
    5.4966    1.9895   19.7530 H   0  0  0  0  0  0
  1  2  1  0  0  0
  1  4  2  0  0  0
  1 10  1  0  0  0
  2  3  2  0  0  0
  3  6  1  0  0  0
  3 11  1  0  0  0
  4  5  1  0  0  0
  4 29  1  0  0  0
  5  6  1  0  0  0
  5  9  1  0  0  0
  6  7  2  0  0  0
  7  8  1  0  0  0
  8  9  2  0  0  0
  8 30  1  0  0  0
  9 17  1  0  0  0
 10 31  1  0  0  0
 10 32  1  0  0  0
 10 33  1  0  0  0
 11 12  1  0  0  0
 11 34  1  0  0  0
 12 13  1  0  0  0
 12 16  2  0  0  0
 13 14  1  0  0  0
 14 15  2  0  0  0
 15 16  1  0  0  0
 15 22  1  0  0  0
 16 35  1  0  0  0
 17 18  1  0  0  0
 17 21  2  0  0  0
 18 19  2  0  0  0
 18 36  1  0  0  0
 19 20  1  0  0  0
 20 21  1  0  0  0
 20 37  1  0  0  0
 21 38  1  0  0  0
 22 23  1  0  0  0
 22 39  1  0  0  0
 22 40  1  0  0  0
 23 24  1  0  0  0
 23 25  1  0  0  0
 24 27  1  0  0  0
 24 41  1  0  0  0
 24 42  1  0  0  0
 25 26  1  0  0  0
 25 43  1  0  0  0
 25 44  1  0  0  0
 26 45  1  0  0  0
 26 46  1  0  0  0
 26 47  1  0  0  0
 27 28  1  0  0  0
 27 48  1  0  0  0
 27 49  1  0  0  0
 28 50  1  0  0  0
M  END
> <s_m_entry_id>
5779

> <s_m_entry_name>
dock_pv.174

> <s_m_Source_Path>
/home/csk/Desktop/cluster/DUD-E-result/igf1r

> <s_m_Source_File>
dock_pv.maegz

> <i_m_Source_File_Index>
174

> <chembl_id>
CHEMBL4228240

> <chembl_pref_name>
None

> <i_lp_mmshare_version>
53161

> <r_lp_tautomer_probability>
0.5

> <s_lp_Force_Field>
OPLS_2005

> <r_lp_Energy>
25.104241

> <b_lp_Chiralities_Consistent>
1

> <s_lp_Variant>
CHEMBL1957_lig2645-1

> <s_i_glide_gridfile>
glide-grid_2oj9

> <i_i_glide_lignum>
3666

> <i_i_glide_rotatable_bonds>
9

> <r_i_docking_score>
-7.22749660648

> <r_i_glide_ligand_efficiency>
-0.258124878802857

> <r_i_glide_ligand_efficiency_sa>
-0.783819159468882

> <r_i_glide_ligand_efficiency_ln>
-1.66831842529699

> <r_i_glide_gscore>
-7.22749660648

> <r_i_glide_lipo>
-2.68759234507346

> <r_i_glide_hbond>
-0.585560006240053

> <r_i_glide_metal>
0

> <r_i_glide_rewards>
-1.03801744668448

> <r_i_glide_evdw>
-42.9007225036621

> <r_i_glide_ecoul>
-9.1710033416748

> <r_i_glide_erotb>
0.604359817952317

> <r_i_glide_esite>
0

> <r_i_glide_emodel>
-68.6262508300691

> <r_i_glide_energy>
-52.0717258453369

> <r_i_glide_einternal>
12.1429243087769

> <i_i_glide_confnum>
2

> <i_i_glide_posenum>
95

> <r_i_glide_eff_state_penalty>
0

> <s_user_duplicate_titles>
CHEMBL1957_lig2645

> <i_f3d_flags>
0

> <s_m_subgroup_title>
dock_pv

> <s_m_subgroupid>
dock_pv

> <b_m_subgroup_collapsed>
1

$$$$
CHEMBL1957_lig438
                    3D
 Schrodinger Suite 2021-1.
 33 35  0  0  1  0            999 V2000
    6.3737   -6.0703   24.0557 C   0  0  0  0  0  0
    6.8775   -4.7815   23.9494 C   0  0  0  0  0  0
    6.4223   -3.9013   22.9598 C   0  0  0  0  0  0
    5.4200   -6.5116   23.1447 C   0  0  0  0  0  0
    4.9408   -5.6431   22.1554 C   0  0  0  0  0  0
    5.3741   -4.2957   22.0780 C   0  0  0  0  0  0
    3.6380   -5.5574   20.1517 C   0  0  0  0  0  0
    4.0380   -6.2070   21.2695 O   0  0  0  0  0  0
    3.8871   -4.0816   20.0435 C   0  0  0  0  0  0
    4.6958   -3.4455   21.0150 C   0  0  0  0  0  0
    4.8380   -2.0541   20.9181 C   0  0  0  0  0  0
    4.3209   -1.3260   19.8380 C   0  0  0  0  0  0
    3.6327   -1.9917   18.8408 C   0  0  0  0  0  0
    3.4337   -3.3582   18.9195 C   0  0  0  0  0  0
    3.1917   -6.2660   19.2533 O   0  0  0  0  0  0
    2.8380   -3.9551   17.8380 O   0  0  0  0  0  0
    7.1740   -2.5788   22.8747 C   0  0  0  0  0  0
    6.8380   -6.9116   25.0380 O   0  0  0  0  0  0
    4.4380    0.0331   19.6779 O   0  0  0  0  0  0
    4.9701   -7.8043   23.2419 O   0  0  0  0  0  0
    5.3794    0.7435   20.4601 C   0  0  0  0  0  0
    7.6568   -4.4719   24.6315 H   0  0  0  0  0  0
    5.3401   -1.5133   21.6914 H   0  0  0  0  0  0
    3.2708   -1.4356   17.9882 H   0  0  0  0  0  0
    2.5064   -3.3440   17.1683 H   0  0  0  0  0  0
    7.3537   -2.3000   21.8380 H   0  0  0  0  0  0
    8.1688   -2.6533   23.3178 H   0  0  0  0  0  0
    6.6381   -1.7833   23.3921 H   0  0  0  0  0  0
    7.2958   -6.4540   25.7558 H   0  0  0  0  0  0
    5.4139   -8.2547   23.9666 H   0  0  0  0  0  0
    5.2380    1.7996   20.2380 H   0  0  0  0  0  0
    5.2380    0.6212   21.5309 H   0  0  0  0  0  0
    6.3986    0.4430   20.2131 H   0  0  0  0  0  0
  1  2  2  0  0  0
  1 18  1  0  0  0
  1  4  1  0  0  0
  2  3  1  0  0  0
  2 22  1  0  0  0
  3  6  2  0  0  0
  3 17  1  0  0  0
  4  5  2  0  0  0
  4 20  1  0  0  0
  5  6  1  0  0  0
  5  8  1  0  0  0
  6 10  1  0  0  0
  7 15  2  0  0  0
  7  9  1  0  0  0
  7  8  1  0  0  0
  9 10  2  0  0  0
  9 14  1  0  0  0
 10 11  1  0  0  0
 11 12  2  0  0  0
 11 23  1  0  0  0
 12 13  1  0  0  0
 12 19  1  0  0  0
 13 14  2  0  0  0
 13 24  1  0  0  0
 14 16  1  0  0  0
 16 25  1  0  0  0
 17 26  1  0  0  0
 17 27  1  0  0  0
 17 28  1  0  0  0
 18 29  1  0  0  0
 19 21  1  0  0  0
 20 30  1  0  0  0
 21 31  1  0  0  0
 21 32  1  0  0  0
 21 33  1  0  0  0
M  END
> <s_m_entry_id>
5780

> <s_m_entry_name>
dock_pv.175

> <s_m_Source_Path>
/home/csk/Desktop/cluster/DUD-E-result/igf1r

> <s_m_Source_File>
dock_pv.maegz

> <i_m_Source_File_Index>
175

> <chembl_id>
CHEMBL520144

> <chembl_pref_name>
None

> <i_lp_mmshare_version>
53161

> <r_lp_tautomer_probability>
1

> <s_lp_Force_Field>
OPLS_2005

> <r_lp_Energy>
43.658856

> <b_lp_Chiralities_Consistent>
1

> <s_lp_Variant>
CHEMBL1957_lig438-1

> <s_i_glide_gridfile>
glide-grid_2oj9

> <i_i_glide_lignum>
622

> <i_i_glide_rotatable_bonds>
4

> <r_i_docking_score>
-7.22445547495517

> <r_i_glide_ligand_efficiency>
-0.34402168928358

> <r_i_glide_ligand_efficiency_sa>
-0.949129754800726

> <r_i_glide_ligand_efficiency_ln>
-1.78623201779582

> <r_i_glide_gscore>
-7.22445547495517

> <r_i_glide_lipo>
-3.03127155398075

> <r_i_glide_hbond>
0

> <r_i_glide_metal>
0

> <r_i_glide_rewards>
-1.61761390983551

> <r_i_glide_evdw>
-27.0888442993164

> <r_i_glide_ecoul>
-8.1408519744873

> <r_i_glide_erotb>
0

> <r_i_glide_esite>
0

> <r_i_glide_emodel>
-45.7371192284259

> <r_i_glide_energy>
-35.2296962738037

> <r_i_glide_einternal>
4.69578552246094

> <i_i_glide_confnum>
1

> <i_i_glide_posenum>
8

> <r_i_glide_eff_state_penalty>
0

> <s_user_duplicate_titles>
CHEMBL1957_lig438

> <i_f3d_flags>
0

> <s_m_subgroup_title>
dock_pv

> <s_m_subgroupid>
dock_pv

> <b_m_subgroup_collapsed>
1

$$$$
CHEMBL1957_lig1513
                    3D
 Schrodinger Suite 2021-1.
 44 47  0  0  1  0            999 V2000
    9.3772   -4.0526   24.6383 N   0  0  0  0  0  0
    8.1988   -3.5169   24.2380 C   0  0  0  0  0  0
    7.2330   -4.2049   23.5805 N   0  0  0  0  0  0
    7.4950   -5.4798   23.2106 C   0  0  0  0  0  0
    6.5075   -6.0383   22.3920 N   0  0  0  0  0  0
    8.0309   -2.1420   24.4879 N   0  0  0  0  0  0
    9.6408   -5.3216   24.2385 C   0  0  0  0  0  0
    8.7456   -6.0714   23.4767 C   0  0  0  0  0  0
    9.3298   -7.7492   22.7756 Br  0  0  0  0  0  0
    6.7584   -1.4266   24.3653 C   0  0  0  0  0  0
    6.1146   -1.4696   22.9980 C   0  0  0  0  0  0
    5.2404   -2.3356   22.4047 C   0  0  0  0  0  0
    5.0836   -1.8991   21.1020 C   0  0  0  0  0  0
    5.7615   -0.7872   20.8967 N   0  0  0  0  0  0
    6.4285   -0.5108   22.0938 O   0  0  0  0  0  0
    6.0988   -7.3610   22.2305 C   0  0  0  0  0  0
    5.5273   -7.6598   21.0383 N   0  0  0  0  0  0
    5.2379   -8.9580   20.7855 C   0  0  0  0  0  0
    5.4967   -9.9857   21.6906 C   0  0  0  0  0  0
    6.0379   -9.6541   22.9321 C   0  0  0  0  0  0
    6.3081   -8.3210   23.2253 C   0  0  0  0  0  0
    4.6758   -9.2541   19.5550 N   0  0  0  0  0  0
    4.2670   -2.5693   20.0580 C   0  0  0  0  0  0
    3.8926   -3.9078   20.2382 C   0  0  0  0  0  0
    3.2380   -4.5938   19.2235 C   0  0  0  0  0  0
    2.9359   -3.9273   18.0430 C   0  0  0  0  0  0
    3.2380   -2.5772   17.8835 C   0  0  0  0  0  0
    3.9074   -1.8954   18.8887 C   0  0  0  0  0  0
    6.1087   -5.3910   21.7326 H   0  0  0  0  0  0
    8.7979   -1.6397   24.9239 H   0  0  0  0  0  0
   10.6184   -5.7135   24.4791 H   0  0  0  0  0  0
    6.0669   -1.8419   25.0957 H   0  0  0  0  0  0
    6.9267   -0.3895   24.6567 H   0  0  0  0  0  0
    4.8382   -3.2276   22.8432 H   0  0  0  0  0  0
    5.2635  -11.0136   21.4554 H   0  0  0  0  0  0
    6.2266  -10.4241   23.6659 H   0  0  0  0  0  0
    6.7329   -8.0514   24.1808 H   0  0  0  0  0  0
    4.5180  -10.2226   19.3123 H   0  0  0  0  0  0
    4.5691   -8.5203   18.8601 H   0  0  0  0  0  0
    4.1543   -4.4512   21.1326 H   0  0  0  0  0  0
    2.9841   -5.6368   19.3457 H   0  0  0  0  0  0
    2.4384   -4.4539   17.2441 H   0  0  0  0  0  0
    2.9625   -2.0573   16.9792 H   0  0  0  0  0  0
    4.1717   -0.8583   18.7383 H   0  0  0  0  0  0
  1  7  1  0  0  0
  1  2  2  0  0  0
  2  3  1  0  0  0
  2  6  1  0  0  0
  3  4  2  0  0  0
  4  8  1  0  0  0
  4  5  1  0  0  0
  5 16  1  0  0  0
  5 29  1  0  0  0
  6 10  1  0  0  0
  6 30  1  0  0  0
  7  8  2  0  0  0
  7 31  1  0  0  0
  8  9  1  0  0  0
 10 11  1  0  0  0
 10 32  1  0  0  0
 10 33  1  0  0  0
 11 12  2  0  0  0
 11 15  1  0  0  0
 12 13  1  0  0  0
 12 34  1  0  0  0
 13 14  2  0  0  0
 13 23  1  0  0  0
 14 15  1  0  0  0
 16 17  2  0  0  0
 16 21  1  0  0  0
 17 18  1  0  0  0
 18 19  2  0  0  0
 18 22  1  0  0  0
 19 20  1  0  0  0
 19 35  1  0  0  0
 20 21  2  0  0  0
 20 36  1  0  0  0
 21 37  1  0  0  0
 22 38  1  0  0  0
 22 39  1  0  0  0
 23 24  2  0  0  0
 23 28  1  0  0  0
 24 25  1  0  0  0
 24 40  1  0  0  0
 25 26  2  0  0  0
 25 41  1  0  0  0
 26 27  1  0  0  0
 26 42  1  0  0  0
 27 28  2  0  0  0
 27 43  1  0  0  0
 28 44  1  0  0  0
M  END
> <s_m_entry_id>
5782

> <s_m_entry_name>
dock_pv.177

> <s_m_Source_Path>
/home/csk/Desktop/cluster/DUD-E-result/igf1r

> <s_m_Source_File>
dock_pv.maegz

> <i_m_Source_File_Index>
177

> <chembl_id>
CHEMBL3936222

> <chembl_pref_name>
None

> <i_lp_mmshare_version>
53161

> <r_lp_tautomer_probability>
0.999999624730965

> <s_lp_Force_Field>
OPLS_2005

> <r_lp_Energy>
3.901845

> <b_lp_Chiralities_Consistent>
1

> <s_lp_Variant>
CHEMBL1957_lig1513-1

> <s_i_glide_gridfile>
glide-grid_2oj9

> <i_i_glide_lignum>
2156

> <i_i_glide_rotatable_bonds>
6

> <r_i_docking_score>
-7.21938842246835

> <r_i_glide_ligand_efficiency>
-0.257835300802441

> <r_i_glide_ligand_efficiency_sa>
-0.782939830107298

> <r_i_glide_ligand_efficiency_ln>
-1.66644681836047

> <r_i_glide_gscore>
-7.21938842246835

> <r_i_glide_lipo>
-3.43470219802652

> <r_i_glide_hbond>
-0.662878925264996

> <r_i_glide_metal>
0

> <r_i_glide_rewards>
-0.872870568261665

> <r_i_glide_evdw>
-36.9379997253418

> <r_i_glide_ecoul>
-6.66024875640869

> <r_i_glide_erotb>
0.623097899881174

> <r_i_glide_esite>
-0.0260973310679492

> <r_i_glide_emodel>
-57.0323744779433

> <r_i_glide_energy>
-43.5982484817505

> <r_i_glide_einternal>
13.9762735366821

> <i_i_glide_confnum>
22

> <i_i_glide_posenum>
19

> <r_i_glide_eff_state_penalty>
0

> <s_user_duplicate_titles>
CHEMBL1957_lig1513

> <i_f3d_flags>
0

> <s_m_subgroup_title>
dock_pv

> <s_m_subgroupid>
dock_pv

> <b_m_subgroup_collapsed>
1

$$$$
CHEMBL1957_lig3498
                    3D
 Schrodinger Suite 2021-1.
 37 40  0  0  1  0            999 V2000
    7.1874   -4.2844   23.8990 C   0  0  0  0  0  0
    7.8162   -3.0838   24.2364 C   0  0  0  0  0  0
    7.5983   -1.9039   23.6106 N   0  0  0  0  0  0
    6.2759   -4.3236   22.8278 C   0  0  0  0  0  0
    6.0278   -3.1047   22.1598 C   0  0  0  0  0  0
    6.7302   -1.9620   22.6036 C   0  0  0  0  0  0
    6.4360   -0.8643   21.8372 O   0  0  0  0  0  0
    5.2330   -2.6602   21.0839 C   0  0  0  0  0  0
    5.5572   -1.2965   20.8800 C   0  0  0  0  0  0
    5.0201   -0.5302   19.8384 C   0  0  0  0  0  0
    4.1054   -1.1662   18.9970 C   0  0  0  0  0  0
    3.7433   -2.5010   19.1893 C   0  0  0  0  0  0
    4.2845   -3.2542   20.2373 C   0  0  0  0  0  0
    5.6490   -5.5049   22.3969 N   0  0  0  0  0  0
    5.8206   -6.7841   23.0872 C   0  0  0  0  0  0
    5.6466   -8.0058   22.1868 C   0  0  0  0  0  0
    6.1480   -9.2328   22.6375 C   0  0  0  0  0  0
    6.0151  -10.3856   21.8634 C   0  0  0  0  0  0
    5.3570  -10.3274   20.6383 C   0  0  0  0  0  0
    4.8376   -9.1164   20.1868 C   0  0  0  0  0  0
    4.9758   -7.9601   20.9555 C   0  0  0  0  0  0
    2.8637   -3.1071   18.2972 N   0  0  0  0  0  0
    6.6581  -11.8837   22.4257 Cl  0  0  0  0  0  0
    7.4316   -5.1590   24.4795 H   0  0  0  0  0  0
    8.5374   -3.0595   25.0404 H   0  0  0  0  0  0
    5.3056    0.5017   19.6886 H   0  0  0  0  0  0
    3.6775   -0.6126   18.1738 H   0  0  0  0  0  0
    4.0126   -4.2921   20.3543 H   0  0  0  0  0  0
    4.9097   -5.4223   21.7191 H   0  0  0  0  0  0
    5.1086   -6.8441   23.9140 H   0  0  0  0  0  0
    6.8171   -6.8611   23.5208 H   0  0  0  0  0  0
    6.6517   -9.2955   23.5905 H   0  0  0  0  0  0
    5.2475  -11.2179   20.0373 H   0  0  0  0  0  0
    4.3204   -9.0743   19.2404 H   0  0  0  0  0  0
    4.5566   -7.0367   20.5818 H   0  0  0  0  0  0
    2.6747   -4.0916   18.3987 H   0  0  0  0  0  0
    2.5736   -2.6281   17.4533 H   0  0  0  0  0  0
  1  2  2  0  0  0
  1  4  1  0  0  0
  1 24  1  0  0  0
  2  3  1  0  0  0
  2 25  1  0  0  0
  3  6  2  0  0  0
  4  5  2  0  0  0
  4 14  1  0  0  0
  5  6  1  0  0  0
  5  8  1  0  0  0
  6  7  1  0  0  0
  7  9  1  0  0  0
  8  9  2  0  0  0
  8 13  1  0  0  0
  9 10  1  0  0  0
 10 11  2  0  0  0
 10 26  1  0  0  0
 11 12  1  0  0  0
 11 27  1  0  0  0
 12 13  2  0  0  0
 12 22  1  0  0  0
 13 28  1  0  0  0
 14 15  1  0  0  0
 14 29  1  0  0  0
 15 16  1  0  0  0
 15 30  1  0  0  0
 15 31  1  0  0  0
 16 17  2  0  0  0
 16 21  1  0  0  0
 17 18  1  0  0  0
 17 32  1  0  0  0
 18 19  2  0  0  0
 18 23  1  0  0  0
 19 20  1  0  0  0
 19 33  1  0  0  0
 20 21  2  0  0  0
 20 34  1  0  0  0
 21 35  1  0  0  0
 22 36  1  0  0  0
 22 37  1  0  0  0
M  END
> <s_m_entry_id>
5783

> <s_m_entry_name>
dock_pv.178

> <s_m_Source_Path>
/home/csk/Desktop/cluster/DUD-E-result/igf1r

> <s_m_Source_File>
dock_pv.maegz

> <i_m_Source_File_Index>
178

> <chembl_id>
CHEMBL4203339

> <chembl_pref_name>
None

> <i_lp_mmshare_version>
53161

> <r_lp_tautomer_probability>
1

> <s_lp_Force_Field>
OPLS_2005

> <r_lp_Energy>
14.371013

> <b_lp_Chiralities_Consistent>
1

> <s_lp_Variant>
CHEMBL1957_lig3498-1

> <s_i_glide_gridfile>
glide-grid_2oj9

> <i_i_glide_lignum>
4908

> <i_i_glide_rotatable_bonds>
3

> <r_i_docking_score>
-7.21556870635497

> <r_i_glide_ligand_efficiency>
-0.313720378537173

> <r_i_glide_ligand_efficiency_sa>
-0.892179024495925

> <r_i_glide_ligand_efficiency_ln>
-1.74478994035633

> <r_i_glide_gscore>
-7.21556870635497

> <r_i_glide_lipo>
-3.73227166619295

> <r_i_glide_hbond>
-0.188330597632019

> <r_i_glide_metal>
0

> <r_i_glide_rewards>
-1.50986087878788

> <r_i_glide_evdw>
-38.1572341918945

> <r_i_glide_ecoul>
-2.7528338432312

> <r_i_glide_erotb>
0.535681222337278

> <r_i_glide_esite>
0

> <r_i_glide_emodel>
-56.5514050407906

> <r_i_glide_energy>
-40.9100680351257

> <r_i_glide_einternal>
2.75677466392517

> <i_i_glide_confnum>
18

> <i_i_glide_posenum>
100

> <r_i_glide_eff_state_penalty>
0

> <s_user_duplicate_titles>
CHEMBL1957_lig3498

> <i_f3d_flags>
0

> <s_m_subgroup_title>
dock_pv

> <s_m_subgroupid>
dock_pv

> <b_m_subgroup_collapsed>
1

$$$$
CHEMBL1957_lig2928
                    3D
 Schrodinger Suite 2021-1.
 37 39  0  0  1  0            999 V2000
    6.8288   -4.1302   22.6147 S   0  0  0  0  0  0
    9.2395   -3.2117   25.4401 O   0  0  0  0  0  0
    8.9984  -10.3249   22.6878 O   0  0  0  0  0  0
    6.2830  -10.7018   22.6378 O   0  0  0  0  0  0
    7.8875   -2.2544   23.9119 N   0  0  0  0  0  0
    6.4370   -1.4358   22.2534 N   0  0  0  0  0  0
    7.9304   -4.5262   23.9334 C   0  0  0  0  0  0
    8.4379   -3.3137   24.5145 C   0  0  0  0  0  0
    7.0130   -2.3716   22.9016 C   0  0  0  0  0  0
    7.7825   -7.0258   23.9193 C   0  0  0  0  0  0
    8.3082   -5.7387   24.3946 C   0  0  0  0  0  0
    8.1833   -9.2811   23.0830 C   0  0  0  0  0  0
    8.6640   -8.0362   23.5262 C   0  0  0  0  0  0
    6.7961   -9.4940   23.0422 C   0  0  0  0  0  0
    6.4053   -7.2596   23.8693 C   0  0  0  0  0  0
    5.5254   -1.6235   21.2019 C   0  0  0  0  0  0
    5.9156   -8.4875   23.4366 C   0  0  0  0  0  0
    5.6333   -0.7861   20.0860 C   0  0  0  0  0  0
    4.4120   -2.4750   21.2736 C   0  0  0  0  0  0
    4.7186   -0.8538   19.0385 C   0  0  0  0  0  0
    3.4949   -2.5597   20.2280 C   0  0  0  0  0  0
    3.6590   -1.7529   19.1068 C   0  0  0  0  0  0
   10.4054  -10.2236   22.8600 C   0  0  0  0  0  0
    5.3808  -10.8511   22.9397 H   0  0  0  0  0  0
    8.1682   -1.3387   24.2294 H   0  0  0  0  0  0
    9.0296   -5.8087   25.1998 H   0  0  0  0  0  0
    9.7254   -7.8420   23.5593 H   0  0  0  0  0  0
    5.7090   -6.4943   24.1806 H   0  0  0  0  0  0
    4.8501   -8.6559   23.4176 H   0  0  0  0  0  0
    6.4367   -0.0672   20.0262 H   0  0  0  0  0  0
    4.2499   -3.0818   22.1504 H   0  0  0  0  0  0
    4.8393   -0.2167   18.1761 H   0  0  0  0  0  0
    2.6614   -3.2425   20.2897 H   0  0  0  0  0  0
    2.9547   -1.8173   18.2917 H   0  0  0  0  0  0
   10.8392  -11.1907   22.6121 H   0  0  0  0  0  0
   10.8379   -9.4710   22.1992 H   0  0  0  0  0  0
   10.6767   -9.9997   23.8915 H   0  0  0  0  0  0
  1  7  1  0  0  0
  1  9  1  0  0  0
  2  8  2  0  0  0
  3 12  1  0  0  0
  3 23  1  0  0  0
  4 14  1  0  0  0
  4 24  1  0  0  0
  5  8  1  0  0  0
  5  9  1  0  0  0
  5 25  1  0  0  0
  6  9  2  3  0  0
  6 16  1  0  0  0
  7  8  1  0  0  0
  7 11  2  3  0  0
 10 11  1  0  0  0
 10 13  1  0  0  0
 10 15  2  0  0  0
 11 26  1  0  0  0
 12 13  2  0  0  0
 12 14  1  0  0  0
 13 27  1  0  0  0
 14 17  2  0  0  0
 15 17  1  0  0  0
 15 28  1  0  0  0
 16 18  2  0  0  0
 16 19  1  0  0  0
 17 29  1  0  0  0
 18 20  1  0  0  0
 18 30  1  0  0  0
 19 21  2  0  0  0
 19 31  1  0  0  0
 20 22  2  0  0  0
 20 32  1  0  0  0
 21 22  1  0  0  0
 21 33  1  0  0  0
 22 34  1  0  0  0
 23 35  1  0  0  0
 23 36  1  0  0  0
 23 37  1  0  0  0
M  END
> <s_m_entry_id>
5784

> <s_m_entry_name>
dock_pv.179

> <s_m_Source_Path>
/home/csk/Desktop/cluster/DUD-E-result/igf1r

> <s_m_Source_File>
dock_pv.maegz

> <i_m_Source_File_Index>
179

> <chembl_id>
CHEMBL1970522

> <chembl_pref_name>
None

> <i_lp_mmshare_version>
53161

> <r_lp_tautomer_probability>
1

> <s_lp_Force_Field>
OPLS_2005

> <r_lp_Energy>
21.527101

> <b_lp_Chiralities_Consistent>
1

> <s_lp_Variant>
CHEMBL1957_lig2928-3

> <s_i_glide_gridfile>
glide-grid_2oj9

> <i_i_glide_lignum>
4050

> <i_i_glide_rotatable_bonds>
4

> <r_i_docking_score>
-7.21253356208901

> <r_i_glide_ligand_efficiency>
-0.313588415743

> <r_i_glide_ligand_efficiency_sa>
-0.891803739863402

> <r_i_glide_ligand_efficiency_ln>
-1.74405601495165

> <r_i_glide_gscore>
-7.21253356208901

> <r_i_glide_lipo>
-2.42320426459731

> <r_i_glide_hbond>
-0.237611222214955

> <r_i_glide_metal>
0

> <r_i_glide_rewards>
-1.8581451262947

> <r_i_glide_evdw>
-38.2524833679199

> <r_i_glide_ecoul>
-6.38007736206055

> <r_i_glide_erotb>
0.176062823723035

> <r_i_glide_esite>
0

> <r_i_glide_emodel>
-61.9076928189384

> <r_i_glide_energy>
-44.6325607299805

> <r_i_glide_einternal>
3.5591185092926

> <i_i_glide_confnum>
1

> <i_i_glide_posenum>
12

> <r_i_glide_eff_state_penalty>
0

> <s_user_duplicate_titles>
CHEMBL1957_lig2928

> <i_f3d_flags>
0

> <s_m_subgroup_title>
dock_pv

> <s_m_subgroupid>
dock_pv

> <b_m_subgroup_collapsed>
1

$$$$
CHEMBL1957_lig3223
                    3D
 Schrodinger Suite 2021-1.
 40 43  0  0  1  0            999 V2000
   10.0378   -4.4540   24.2355 O   0  0  0  0  0  0
    6.9517   -3.3170   22.4524 N   0  0  0  0  0  0
    3.2360   -3.8354   19.5179 N   0  0  0  0  0  0
    6.0381   -1.5222   21.2708 N   0  0  0  0  0  0
    4.2034   -1.6681   19.7099 N   0  0  0  0  0  0
    4.9305   -3.6552   21.0194 C   0  0  0  0  0  0
    5.9655   -2.8517   21.5803 C   0  0  0  0  0  0
    4.4175   -5.0314   21.0380 C   0  0  0  0  0  0
    4.1108   -2.9488   20.0729 C   0  0  0  0  0  0
    4.8512   -6.2983   21.6830 C   0  0  0  0  0  0
    3.3869   -5.0561   20.1100 C   0  0  0  0  0  0
    5.2044   -1.0188   20.3397 C   0  0  0  0  0  0
    7.9488   -2.4197   23.0644 C   0  0  0  0  0  0
    7.5782   -4.6460   22.3658 C   0  0  0  0  0  0
    4.8382   -6.4555   23.0627 C   0  0  0  0  0  0
    5.2380   -7.3684   20.8668 C   0  0  0  0  0  0
    8.2409   -2.8553   24.5043 C   0  0  0  0  0  0
    7.7963   -5.2163   23.7861 C   0  0  0  0  0  0
    8.7004   -4.3177   24.6378 C   0  0  0  0  0  0
    5.2542   -7.6539   23.6305 C   0  0  0  0  0  0
    5.6383   -8.5752   21.4343 C   0  0  0  0  0  0
    5.6556   -8.7091   22.8179 C   0  0  0  0  0  0
   10.2158   -3.8423   23.5074 H   0  0  0  0  0  0
    2.5623   -3.6489   18.7892 H   0  0  0  0  0  0
    2.7700   -5.8817   19.7851 H   0  0  0  0  0  0
    5.3435    0.0223   20.0820 H   0  0  0  0  0  0
    7.5704   -1.4002   23.1368 H   0  0  0  0  0  0
    8.8372   -2.3834   22.4353 H   0  0  0  0  0  0
    7.0370   -5.3391   21.7381 H   0  0  0  0  0  0
    8.5413   -4.5407   21.8609 H   0  0  0  0  0  0
    4.5115   -5.6540   23.7007 H   0  0  0  0  0  0
    5.2322   -7.2660   19.7906 H   0  0  0  0  0  0
    7.3170   -2.6703   25.0380 H   0  0  0  0  0  0
    8.9836   -2.1960   24.9511 H   0  0  0  0  0  0
    8.2182   -6.2197   23.7159 H   0  0  0  0  0  0
    6.8472   -5.3330   24.3052 H   0  0  0  0  0  0
    8.6585   -4.6433   25.6769 H   0  0  0  0  0  0
    5.2616   -7.7622   24.6998 H   0  0  0  0  0  0
    5.9376   -9.4005   20.8051 H   0  0  0  0  0  0
    5.9675   -9.6425   23.2656 H   0  0  0  0  0  0
  1 19  1  0  0  0
  1 23  1  0  0  0
  2  7  1  0  0  0
  2 13  1  0  0  0
  2 14  1  0  0  0
  3  9  1  0  0  0
  3 11  1  0  0  0
  3 24  1  0  0  0
  4  7  2  0  0  0
  4 12  1  0  0  0
  5  9  1  0  0  0
  5 12  2  0  0  0
  6  7  1  0  0  0
  6  8  1  0  0  0
  6  9  2  0  0  0
  8 10  1  0  0  0
  8 11  2  0  0  0
 10 15  2  0  0  0
 10 16  1  0  0  0
 11 25  1  0  0  0
 12 26  1  0  0  0
 13 17  1  0  0  0
 13 27  1  0  0  0
 13 28  1  0  0  0
 14 18  1  0  0  0
 14 29  1  0  0  0
 14 30  1  0  0  0
 15 20  1  0  0  0
 15 31  1  0  0  0
 16 21  2  0  0  0
 16 32  1  0  0  0
 17 19  1  0  0  0
 17 33  1  0  0  0
 17 34  1  0  0  0
 18 19  1  0  0  0
 18 35  1  0  0  0
 18 36  1  0  0  0
 19 37  1  0  0  0
 20 22  2  0  0  0
 20 38  1  0  0  0
 21 22  1  0  0  0
 21 39  1  0  0  0
 22 40  1  0  0  0
M  END
> <s_m_entry_id>
5785

> <s_m_entry_name>
dock_pv.180

> <s_m_Source_Path>
/home/csk/Desktop/cluster/DUD-E-result/igf1r

> <s_m_Source_File>
dock_pv.maegz

> <i_m_Source_File_Index>
180

> <chembl_id>
CHEMBL1973395

> <chembl_pref_name>
None

> <i_lp_mmshare_version>
53161

> <r_lp_tautomer_probability>
0.999998369746258

> <s_lp_Force_Field>
OPLS_2005

> <r_lp_Energy>
19.842011

> <b_lp_Chiralities_Consistent>
1

> <s_lp_Variant>
CHEMBL1957_lig3223-1

> <s_i_glide_gridfile>
glide-grid_2oj9

> <i_i_glide_lignum>
4492

> <i_i_glide_rotatable_bonds>
3

> <r_i_docking_score>
-7.21096176783838

> <r_i_glide_ligand_efficiency>
-0.327770989447199

> <r_i_glide_ligand_efficiency_sa>
-0.918427202932585

> <r_i_glide_ligand_efficiency_ln>
-1.76262208228099

> <r_i_glide_gscore>
-7.21096176783838

> <r_i_glide_lipo>
-2.89673029630793

> <r_i_glide_hbond>
-0.318894968339939

> <r_i_glide_metal>
0

> <r_i_glide_rewards>
-2.27096040788272

> <r_i_glide_evdw>
-29.9063911437988

> <r_i_glide_ecoul>
-4.34125232696533

> <r_i_glide_erotb>
0.422131310926944

> <r_i_glide_esite>
0

> <r_i_glide_emodel>
-39.4911008981128

> <r_i_glide_energy>
-34.2476434707642

> <r_i_glide_einternal>
5.44588375091553

> <i_i_glide_confnum>
29

> <i_i_glide_posenum>
288

> <r_i_glide_eff_state_penalty>
0

> <s_user_duplicate_titles>
CHEMBL1957_lig3223

> <i_f3d_flags>
0

> <s_m_subgroup_title>
dock_pv

> <s_m_subgroupid>
dock_pv

> <b_m_subgroup_collapsed>
1

$$$$
CHEMBL1957_lig2719
                    3D
 Schrodinger Suite 2021-1.
 29 31  0  0  1  0            999 V2000
    6.9682   -2.4878   23.7996 S   0  0  0  0  0  0
    4.1548   -6.0004   20.8830 F   0  0  0  0  0  0
    6.0380   -0.1235   22.1706 O   0  0  0  0  0  0
    6.7570   -6.4402   24.0896 N   0  0  0  0  0  0
    7.1173   -5.2643   24.6380 N   0  0  0  0  0  0
    5.6381   -1.2604   20.2504 N   0  0  0  0  0  0
    6.2764   -4.7689   22.6533 C   0  0  0  0  0  0
    6.2634   -6.1902   22.8957 C   0  0  0  0  0  0
    6.8380   -4.2271   23.8038 C   0  0  0  0  0  0
    6.2442   -2.4620   22.1858 C   0  0  0  0  0  0
    5.8089   -7.3219   22.0164 C   0  0  0  0  0  0
    5.9446   -3.7427   21.7171 C   0  0  0  0  0  0
    5.9848   -1.1872   21.5484 C   0  0  0  0  0  0
    4.8060   -7.1741   21.0442 C   0  0  0  0  0  0
    6.4004   -8.5870   22.1763 C   0  0  0  0  0  0
    4.4380   -8.2528   20.2380 C   0  0  0  0  0  0
    6.0117   -9.6687   21.3883 C   0  0  0  0  0  0
    5.0358   -9.4996   20.4103 C   0  0  0  0  0  0
    5.2948   -0.1196   19.4057 C   0  0  0  0  0  0
    7.5068   -5.2540   25.5755 H   0  0  0  0  0  0
    5.7172   -2.1508   19.7821 H   0  0  0  0  0  0
    5.4886   -3.9384   20.7591 H   0  0  0  0  0  0
    7.1711   -8.7429   22.9178 H   0  0  0  0  0  0
    3.6751   -8.1250   19.4837 H   0  0  0  0  0  0
    6.4742  -10.6349   21.5293 H   0  0  0  0  0  0
    4.7401  -10.3349   19.7915 H   0  0  0  0  0  0
    4.3283   -0.2917   18.9328 H   0  0  0  0  0  0
    6.0380   -0.0006   18.6173 H   0  0  0  0  0  0
    5.2380    0.8220   19.9532 H   0  0  0  0  0  0
  1  9  1  0  0  0
  1 10  1  0  0  0
  2 14  1  0  0  0
  3 13  2  0  0  0
  4  5  1  0  0  0
  4  8  2  0  0  0
  5  9  1  0  0  0
  5 20  1  0  0  0
  6 13  1  0  0  0
  6 19  1  0  0  0
  6 21  1  0  0  0
  7  8  1  0  0  0
  7  9  2  0  0  0
  7 12  1  0  0  0
  8 11  1  0  0  0
 10 12  2  0  0  0
 10 13  1  0  0  0
 11 14  1  0  0  0
 11 15  2  0  0  0
 12 22  1  0  0  0
 14 16  2  0  0  0
 15 17  1  0  0  0
 15 23  1  0  0  0
 16 18  1  0  0  0
 16 24  1  0  0  0
 17 18  2  0  0  0
 17 25  1  0  0  0
 18 26  1  0  0  0
 19 27  1  0  0  0
 19 28  1  0  0  0
 19 29  1  0  0  0
M  END
> <s_m_entry_id>
5786

> <s_m_entry_name>
dock_pv.181

> <s_m_Source_Path>
/home/csk/Desktop/cluster/DUD-E-result/igf1r

> <s_m_Source_File>
dock_pv.maegz

> <i_m_Source_File_Index>
181

> <chembl_id>
CHEMBL1977681

> <chembl_pref_name>
None

> <i_lp_mmshare_version>
53161

> <r_lp_tautomer_probability>
1

> <s_lp_Force_Field>
OPLS_2005

> <r_lp_Energy>
44.198819

> <b_lp_Chiralities_Consistent>
1

> <s_lp_Variant>
CHEMBL1957_lig2719-1

> <s_i_glide_gridfile>
glide-grid_2oj9

> <i_i_glide_lignum>
3764

> <i_i_glide_rotatable_bonds>
3

> <r_i_docking_score>
-7.20361622304348

> <r_i_glide_ligand_efficiency>
-0.379137695949657

> <r_i_glide_ligand_efficiency_sa>
-1.01169165197175

> <r_i_glide_ligand_efficiency_ln>
-1.82627143203158

> <r_i_glide_gscore>
-7.20361622304348

> <r_i_glide_lipo>
-2.64762582811243

> <r_i_glide_hbond>
-0.32

> <r_i_glide_metal>
0

> <r_i_glide_rewards>
-2.03225831459939

> <r_i_glide_evdw>
-33.6891479492188

> <r_i_glide_ecoul>
-6.54933834075928

> <r_i_glide_erotb>
0.474247153318883

> <r_i_glide_esite>
-0.0111210850757049

> <r_i_glide_emodel>
-55.9783376676117

> <r_i_glide_energy>
-40.238486289978

> <r_i_glide_einternal>
2.7669563293457

> <i_i_glide_confnum>
3

> <i_i_glide_posenum>
347

> <r_i_glide_eff_state_penalty>
0

> <s_user_duplicate_titles>
CHEMBL1957_lig2719

> <i_f3d_flags>
0

> <s_m_subgroup_title>
dock_pv

> <s_m_subgroupid>
dock_pv

> <b_m_subgroup_collapsed>
1

$$$$
CHEMBL1957_lig432
                    3D
 Schrodinger Suite 2021-1.
 42 46  0  0  1  0            999 V2000
    4.5409   -3.7736   21.3261 C   0  0  0  0  0  0
    4.4752   -5.1461   21.1275 C   0  0  0  0  0  0
    5.4676   -5.9931   21.6416 C   0  0  0  0  0  0
    5.5717   -3.2215   22.0711 C   0  0  0  0  0  0
    5.4438   -7.4716   21.3611 C   0  0  0  0  0  0
    4.7684   -7.9707   20.2444 C   0  0  0  0  0  0
    4.8380   -9.3124   19.9116 C   0  0  0  0  0  0
    5.5966  -10.1900   20.6711 C   0  0  0  0  0  0
    6.5868   -4.0349   22.6150 C   0  0  0  0  0  0
    6.5257   -5.4439   22.4050 C   0  0  0  0  0  0
    7.6118   -6.4045   22.9670 C   0  0  1  0  0  0
    8.3420   -5.7324   24.1665 C   0  0  0  0  0  0
    8.8379   -4.3279   23.8125 C   0  0  0  0  0  0
    7.6456   -3.4306   23.5029 C   0  0  0  0  0  0
    6.9299   -7.7556   23.3896 C   0  0  1  0  0  0
    6.1824   -8.3594   22.1748 C   0  0  0  0  0  0
    6.2499   -9.7398   21.8384 C   0  0  0  0  0  0
    7.1470  -10.6545   22.6205 C   0  0  0  0  0  0
    7.3916  -10.2157   24.0537 C   0  0  0  0  0  0
    7.8872   -8.7713   24.1012 C   0  0  2  0  0  0
    8.5939   -6.6606   21.9676 O   0  0  0  0  0  0
    6.1397   -7.5193   24.1062 H   0  0  0  0  0  0
    8.0395   -8.4713   25.4778 O   0  0  0  0  0  0
    5.5491   -1.8589   22.2373 O   0  0  0  0  0  0
    7.5619   -2.2831   23.9464 O   0  0  0  0  0  0
    5.6484  -11.4929   20.2383 O   0  0  0  0  0  0
    7.6341  -11.6870   22.1606 O   0  0  0  0  0  0
    3.7732   -3.1353   20.9125 H   0  0  0  0  0  0
    3.6428   -5.5315   20.5606 H   0  0  0  0  0  0
    4.2158   -7.3254   19.5788 H   0  0  0  0  0  0
    4.3146   -9.6569   19.0357 H   0  0  0  0  0  0
    9.2057   -6.3210   24.4768 H   0  0  0  0  0  0
    7.6828   -5.6818   25.0375 H   0  0  0  0  0  0
    9.4540   -4.4030   22.9159 H   0  0  0  0  0  0
    9.4060   -3.9131   24.6454 H   0  0  0  0  0  0
    8.0986  -10.8925   24.5339 H   0  0  0  0  0  0
    6.4380  -10.2547   24.5700 H   0  0  0  0  0  0
    8.8827   -8.7278   23.6547 H   0  0  0  0  0  0
    9.4009   -6.9831   22.3824 H   0  0  0  0  0  0
    8.3557   -7.5696   25.5833 H   0  0  0  0  0  0
    6.2864   -1.5829   22.7943 H   0  0  0  0  0  0
    5.2380  -11.6492   19.3712 H   0  0  0  0  0  0
  1  2  2  0  0  0
  1  4  1  0  0  0
  1 28  1  0  0  0
  2  3  1  0  0  0
  2 29  1  0  0  0
  3  5  1  0  0  0
  3 10  2  0  0  0
  4  9  2  0  0  0
  4 24  1  0  0  0
  5 16  1  0  0  0
  5  6  2  0  0  0
  6  7  1  0  0  0
  6 30  1  0  0  0
  7  8  2  0  0  0
  7 31  1  0  0  0
  8 17  1  0  0  0
  8 26  1  0  0  0
  9 14  1  0  0  0
  9 10  1  0  0  0
 10 11  1  0  0  0
 11 12  1  0  0  0
 11 15  1  0  0  0
 11 21  1  0  0  0
 12 13  1  0  0  0
 12 32  1  0  0  0
 12 33  1  0  0  0
 13 14  1  0  0  0
 13 34  1  0  0  0
 13 35  1  0  0  0
 14 25  2  0  0  0
 15 16  1  0  0  0
 15 20  1  0  0  0
 15 22  1  0  0  0
 16 17  2  0  0  0
 17 18  1  0  0  0
 18 19  1  0  0  0
 18 27  2  0  0  0
 19 20  1  0  0  0
 19 36  1  0  0  0
 19 37  1  0  0  0
 20 23  1  0  0  0
 20 38  1  0  0  0
 21 39  1  0  0  0
 23 40  1  0  0  0
 24 41  1  0  0  0
 26 42  1  0  0  0
M  END
> <s_m_entry_id>
5787

> <s_m_entry_name>
dock_pv.182

> <s_m_Source_Path>
/home/csk/Desktop/cluster/DUD-E-result/igf1r

> <s_m_Source_File>
dock_pv.maegz

> <i_m_Source_File_Index>
182

> <chembl_id>
CHEMBL521470

> <chembl_pref_name>
ALTERTOXIN I

> <i_lp_mmshare_version>
53161

> <r_lp_tautomer_probability>
0.9999000025

> <s_lp_Force_Field>
OPLS_2005

> <r_lp_Energy>
44.225297

> <b_lp_Chiralities_Consistent>
1

> <s_lp_Variant>
CHEMBL1957_lig432-1

> <s_i_glide_gridfile>
glide-grid_2oj9

> <i_i_glide_lignum>
613

> <i_i_glide_rotatable_bonds>
4

> <r_i_docking_score>
-7.20102029816094

> <r_i_glide_ligand_efficiency>
-0.276962319160036

> <r_i_glide_ligand_efficiency_sa>
-0.820499780717506

> <r_i_glide_ligand_efficiency_ln>
-1.69113598854827

> <r_i_glide_gscore>
-7.20102029816094

> <r_i_glide_lipo>
-2.77092878082516

> <r_i_glide_hbond>
0

> <r_i_glide_metal>
0

> <r_i_glide_rewards>
-1.24604739463986

> <r_i_glide_evdw>
-35.0495986938477

> <r_i_glide_ecoul>
-9.54376125335693

> <r_i_glide_erotb>
0

> <r_i_glide_esite>
0

> <r_i_glide_emodel>
-61.5445828500759

> <r_i_glide_energy>
-44.5933599472046

> <r_i_glide_einternal>
5.79412794113159

> <i_i_glide_confnum>
1

> <i_i_glide_posenum>
335

> <r_i_glide_eff_state_penalty>
0

> <s_user_duplicate_titles>
CHEMBL1957_lig432

> <i_f3d_flags>
0

> <s_m_subgroup_title>
dock_pv

> <s_m_subgroupid>
dock_pv

> <b_m_subgroup_collapsed>
1

$$$$
CHEMBL1957_lig3328
                    3D
 Schrodinger Suite 2021-1.
 43 46  0  0  1  0            999 V2000
    9.0794   -7.2827   24.6328 O   0  0  0  0  0  0
    3.9501   -1.1940   18.7197 O   0  0  0  0  0  0
    4.8379    1.1459   19.8380 O   0  0  0  0  0  0
    6.4600  -13.3271   20.0770 O   0  5  0  0  0  0
    7.9890  -13.2392   21.5952 O   0  0  0  0  0  0
    5.5643   -7.3482   22.1093 N   0  0  0  0  0  0
    7.6862   -8.6739   23.6338 N   0  0  0  0  0  0
    7.0578  -12.7372   20.9719 N   0  3  0  0  0  0
    6.2779   -6.2032   22.4676 C   0  0  0  0  0  0
    7.5075   -6.2276   23.1637 C   0  0  0  0  0  0
    5.9233   -8.6799   21.9001 C   0  0  0  0  0  0
    6.9562   -9.3075   22.6258 C   0  0  0  0  0  0
    8.1444   -7.4314   23.8458 C   0  0  0  0  0  0
    6.4898   -3.7693   22.1696 C   0  0  0  0  0  0
    5.7775   -4.9669   22.0409 C   0  0  0  0  0  0
    5.9871   -2.4836   21.5869 C   0  0  0  0  0  0
    8.2170   -5.0240   23.3206 C   0  0  0  0  0  0
    7.3051  -10.6258   22.3069 C   0  0  0  0  0  0
    7.7286   -3.8281   22.8125 C   0  0  0  0  0  0
    6.6445  -11.3535   21.3100 C   0  0  0  0  0  0
    5.2380   -9.4247   20.9366 C   0  0  0  0  0  0
    5.5884  -10.7358   20.6381 C   0  0  0  0  0  0
    5.1428   -2.4618   20.4645 C   0  0  0  0  0  0
    4.7622   -1.2620   19.8379 C   0  0  0  0  0  0
    6.3930   -1.2540   22.1164 C   0  0  0  0  0  0
    5.2380   -0.0565   20.3633 C   0  0  0  0  0  0
    6.0379   -0.0567   21.5037 C   0  0  0  0  0  0
    3.3842   -2.3795   18.1765 C   0  0  0  0  0  0
    5.5846    1.7290   19.6105 H   0  0  0  0  0  0
    4.7088   -7.1163   21.6286 H   0  0  0  0  0  0
    8.2236   -9.3094   24.2027 H   0  0  0  0  0  0
    4.8237   -4.9559   21.5360 H   0  0  0  0  0  0
    9.1735   -4.9894   23.8264 H   0  0  0  0  0  0
    8.1177  -11.0936   22.8461 H   0  0  0  0  0  0
    8.3442   -2.9477   22.9224 H   0  0  0  0  0  0
    4.4331   -8.9691   20.3783 H   0  0  0  0  0  0
    5.0445  -11.2585   19.8636 H   0  0  0  0  0  0
    4.8184   -3.3962   20.0394 H   0  0  0  0  0  0
    7.0096   -1.2160   23.0020 H   0  0  0  0  0  0
    6.3688    0.8741   21.9380 H   0  0  0  0  0  0
    2.8380   -2.1094   17.2752 H   0  0  0  0  0  0
    4.1394   -3.1080   17.8844 H   0  0  0  0  0  0
    2.6841   -2.8441   18.8719 H   0  0  0  0  0  0
  1 13  2  0  0  0
  2 24  1  0  0  0
  2 28  1  0  0  0
  3 26  1  0  0  0
  3 29  1  0  0  0
  4  8  1  0  0  0
  5  8  2  0  0  0
  6  9  1  0  0  0
  6 11  1  0  0  0
  6 30  1  0  0  0
  7 12  1  0  0  0
  7 13  1  0  0  0
  7 31  1  0  0  0
  8 20  1  0  0  0
  9 10  1  0  0  0
  9 15  2  0  0  0
 10 13  1  0  0  0
 10 17  2  0  0  0
 11 12  1  0  0  0
 11 21  2  0  0  0
 12 18  2  0  0  0
 14 15  1  0  0  0
 14 16  1  0  0  0
 14 19  2  0  0  0
 15 32  1  0  0  0
 16 23  1  0  0  0
 16 25  2  0  0  0
 17 19  1  0  0  0
 17 33  1  0  0  0
 18 20  1  0  0  0
 18 34  1  0  0  0
 19 35  1  0  0  0
 20 22  2  0  0  0
 21 22  1  0  0  0
 21 36  1  0  0  0
 22 37  1  0  0  0
 23 24  2  0  0  0
 23 38  1  0  0  0
 24 26  1  0  0  0
 25 27  1  0  0  0
 25 39  1  0  0  0
 26 27  2  0  0  0
 27 40  1  0  0  0
 28 41  1  0  0  0
 28 42  1  0  0  0
 28 43  1  0  0  0
M  CHG  2   4  -1   8   1
M  END
> <s_m_entry_id>
5789

> <s_m_entry_name>
dock_pv.184

> <s_m_Source_Path>
/home/csk/Desktop/cluster/DUD-E-result/igf1r

> <s_m_Source_File>
dock_pv.maegz

> <i_m_Source_File_Index>
184

> <chembl_id>
CHEMBL1995740

> <chembl_pref_name>
None

> <i_lp_mmshare_version>
53161

> <r_lp_tautomer_probability>
1

> <s_lp_Force_Field>
OPLS_2005

> <r_lp_Energy>
44.982732

> <b_lp_Chiralities_Consistent>
1

> <s_lp_Variant>
CHEMBL1957_lig3328-1

> <s_i_glide_gridfile>
glide-grid_2oj9

> <i_i_glide_lignum>
4674

> <i_i_glide_rotatable_bonds>
4

> <r_i_docking_score>
-7.19298832595105

> <r_i_glide_ligand_efficiency>
-0.256892440212538

> <r_i_glide_ligand_efficiency_sa>
-0.780076750041161

> <r_i_glide_ligand_efficiency_ln>
-1.66035290094376

> <r_i_glide_gscore>
-7.19298832595105

> <r_i_glide_lipo>
-3.01576905124266

> <r_i_glide_hbond>
0

> <r_i_glide_metal>
0

> <r_i_glide_rewards>
-1.12710058051953

> <r_i_glide_evdw>
-35.597728729248

> <r_i_glide_ecoul>
-9.10294818878174

> <r_i_glide_erotb>
0.0952099705907991

> <r_i_glide_esite>
0

> <r_i_glide_emodel>
-60.8408358786889

> <r_i_glide_energy>
-44.7006769180298

> <r_i_glide_einternal>
4.46756362915039

> <i_i_glide_confnum>
6

> <i_i_glide_posenum>
144

> <r_i_glide_eff_state_penalty>
0

> <s_user_duplicate_titles>
CHEMBL1957_lig3328

> <i_f3d_flags>
0

> <s_m_subgroup_title>
dock_pv

> <s_m_subgroupid>
dock_pv

> <b_m_subgroup_collapsed>
1

$$$$
CHEMBL1957_lig3301
                    3D
 Schrodinger Suite 2021-1.
 46 49  0  0  1  0            999 V2000
    6.0380   -1.4792   22.1594 S   0  0  0  0  0  0
    4.8380    0.7131   20.0400 O   0  0  0  0  0  0
    9.1460   -4.2300   25.3998 N   0  0  0  0  0  0
    9.6380   -5.4752   25.3289 N   0  0  0  0  0  0
    5.6380   -0.4540   18.2380 N   0  0  0  0  0  0
    6.9190   -8.2370   21.8380 N   0  0  0  0  0  0
    8.7706   -4.9289   23.3371 C   0  0  0  0  0  0
    8.4984   -3.8726   24.2380 C   0  0  0  0  0  0
    9.4486   -5.9235   24.1164 C   0  0  0  0  0  0
    7.1866   -2.7560   22.5964 C   0  0  0  0  0  0
    7.7107   -2.7693   23.8905 C   0  0  0  0  0  0
    8.3211   -4.8271   22.0132 C   0  0  0  0  0  0
    4.8862   -2.2725   21.0351 C   0  0  0  0  0  0
    7.5408   -3.7290   21.6599 C   0  0  0  0  0  0
    4.4567   -1.6540   19.8421 C   0  0  0  0  0  0
    9.7768   -7.2807   23.7199 C   0  0  0  0  0  0
    4.9866   -0.3245   19.3945 C   0  0  0  0  0  0
    4.4425   -3.5689   21.3196 C   0  0  0  0  0  0
    3.6206   -2.3597   18.9605 C   0  0  0  0  0  0
    8.9123   -8.1796   23.2026 C   0  0  0  0  0  0
    3.6380   -4.2666   20.4179 C   0  0  0  0  0  0
    3.2380   -3.6650   19.2336 C   0  0  0  0  0  0
    7.4631   -7.9538   23.0506 C   0  0  0  0  0  0
    6.7179   -7.3637   24.0802 C   0  0  0  0  0  0
    5.6238   -7.8890   21.6208 C   0  0  0  0  0  0
    5.3981   -6.9987   23.8363 C   0  0  0  0  0  0
    6.3198    0.5228   17.4380 C   0  0  0  0  0  0
    4.8380   -7.2540   22.5849 C   0  0  0  0  0  0
    9.1903   -3.7221   26.2700 H   0  0  0  0  0  0
    5.7461   -1.4048   17.9131 H   0  0  0  0  0  0
    7.4801   -1.9866   24.5977 H   0  0  0  0  0  0
    8.5398   -5.6066   21.2984 H   0  0  0  0  0  0
    7.1702   -3.6540   20.6481 H   0  0  0  0  0  0
   10.8194   -7.5428   23.8380 H   0  0  0  0  0  0
    4.7571   -4.0601   22.2293 H   0  0  0  0  0  0
    3.2969   -1.9161   18.0279 H   0  0  0  0  0  0
    9.2867   -9.1428   22.8877 H   0  0  0  0  0  0
    3.3307   -5.2782   20.6379 H   0  0  0  0  0  0
    2.6213   -4.2027   18.5283 H   0  0  0  0  0  0
    7.1662   -7.1431   25.0389 H   0  0  0  0  0  0
    5.2218   -8.1192   20.6448 H   0  0  0  0  0  0
    4.8380   -6.5094   24.6171 H   0  0  0  0  0  0
    6.5454    0.0033   16.5179 H   0  0  0  0  0  0
    5.7399    1.4290   17.2562 H   0  0  0  0  0  0
    7.2935    0.7460   17.8380 H   0  0  0  0  0  0
    3.8151   -6.9784   22.3753 H   0  0  0  0  0  0
  1 10  1  0  0  0
  1 13  1  0  0  0
  2 17  2  0  0  0
  3  4  1  0  0  0
  3  8  1  0  0  0
  3 29  1  0  0  0
  4  9  2  0  0  0
  5 17  1  0  0  0
  5 27  1  0  0  0
  5 30  1  0  0  0
  6 23  1  0  0  0
  6 25  2  0  0  0
  7  8  1  0  0  0
  7  9  1  0  0  0
  7 12  2  0  0  0
  8 11  2  0  0  0
  9 16  1  0  0  0
 10 11  1  0  0  0
 10 14  2  0  0  0
 11 31  1  0  0  0
 12 14  1  0  0  0
 12 32  1  0  0  0
 13 15  1  0  0  0
 13 18  2  0  0  0
 14 33  1  0  0  0
 15 17  1  0  0  0
 15 19  2  0  0  0
 16 20  2  3  0  0
 16 34  1  0  0  0
 18 21  1  0  0  0
 18 35  1  0  0  0
 19 22  1  0  0  0
 19 36  1  0  0  0
 20 23  1  0  0  0
 20 37  1  0  0  0
 21 22  2  0  0  0
 21 38  1  0  0  0
 22 39  1  0  0  0
 23 24  2  0  0  0
 24 26  1  0  0  0
 24 40  1  0  0  0
 25 28  1  0  0  0
 25 41  1  0  0  0
 26 28  2  0  0  0
 26 42  1  0  0  0
 27 43  1  0  0  0
 27 44  1  0  0  0
 27 45  1  0  0  0
 28 46  1  0  0  0
M  END
> <s_m_entry_id>
5790

> <s_m_entry_name>
dock_pv.185

> <s_m_Source_Path>
/home/csk/Desktop/cluster/DUD-E-result/igf1r

> <s_m_Source_File>
dock_pv.maegz

> <i_m_Source_File_Index>
185

> <chembl_id>
CHEMBL1988437

> <chembl_pref_name>
None

> <i_lp_mmshare_version>
53161

> <r_lp_tautomer_probability>
1

> <s_lp_Force_Field>
OPLS_2005

> <r_lp_Energy>
24.03855

> <b_lp_Chiralities_Consistent>
1

> <s_lp_Variant>
CHEMBL1957_lig3301-2

> <s_i_glide_gridfile>
glide-grid_2oj9

> <i_i_glide_lignum>
4633

> <i_i_glide_rotatable_bonds>
6

> <r_i_docking_score>
-7.18733755673425

> <r_i_glide_ligand_efficiency>
-0.256690627026223

> <r_i_glide_ligand_efficiency_sa>
-0.7794639263459

> <r_i_glide_ligand_efficiency_ln>
-1.65904853749473

> <r_i_glide_gscore>
-7.18733755673425

> <r_i_glide_lipo>
-3.61996069736831

> <r_i_glide_hbond>
-0.12751480611536

> <r_i_glide_metal>
0

> <r_i_glide_rewards>
-1.32876660912186

> <r_i_glide_evdw>
-44.9835014343262

> <r_i_glide_ecoul>
-3.42329025268555

> <r_i_glide_erotb>
0.651573165490425

> <r_i_glide_esite>
0

> <r_i_glide_emodel>
-62.5777552973343

> <r_i_glide_energy>
-48.4067916870117

> <r_i_glide_einternal>
8.28203105926514

> <i_i_glide_confnum>
17

> <i_i_glide_posenum>
190

> <r_i_glide_eff_state_penalty>
0

> <s_user_duplicate_titles>
CHEMBL1957_lig3301,CHEMBL1957_lig3301

> <i_f3d_flags>
0

> <s_m_subgroup_title>
dock_pv

> <s_m_subgroupid>
dock_pv

> <b_m_subgroup_collapsed>
1

$$$$
CHEMBL1957_lig3052
                    3D
 Schrodinger Suite 2021-1.
 30 32  0  0  1  0            999 V2000
    4.1052   -0.5992   19.6378 O   0  0  0  0  0  0
    5.9442   -8.0877   23.4469 N   0  0  0  0  0  0
    5.6380  -10.1739   22.2379 N   0  0  0  0  0  0
    5.5381   -6.0783   22.0896 C   0  0  0  0  0  0
    5.2374   -8.2735   21.1069 C   0  0  0  0  0  0
    5.6385   -8.8014   22.3596 C   0  0  0  0  0  0
    5.6045   -4.5891   21.9635 C   0  0  0  0  0  0
    5.1703   -6.8804   20.9949 C   0  0  0  0  0  0
    5.8868   -6.7386   23.2808 C   0  0  0  0  0  0
    4.7643   -3.8982   21.0759 C   0  0  0  0  0  0
    4.9770   -9.3838   20.2392 C   0  0  0  0  0  0
    4.8984   -2.5206   20.8475 C   0  0  0  0  0  0
    6.5546   -3.8462   22.6778 C   0  0  0  0  0  0
    5.2410  -10.5281   20.9689 C   0  0  0  0  0  0
    5.8501   -1.8088   21.5913 C   0  0  0  0  0  0
    6.6666   -2.4676   22.5089 C   0  0  0  0  0  0
    4.0818   -1.8154   19.8095 C   0  0  0  0  0  0
    3.2382   -2.6606   18.8567 C   0  0  0  0  0  0
    5.8450  -10.8500   22.9593 H   0  0  0  0  0  0
    4.8610   -6.4550   20.0554 H   0  0  0  0  0  0
    6.1539   -6.1748   24.1633 H   0  0  0  0  0  0
    4.0220   -4.4635   20.5329 H   0  0  0  0  0  0
    4.6413   -9.3571   19.2120 H   0  0  0  0  0  0
    7.2362   -4.3379   23.3556 H   0  0  0  0  0  0
    5.1671  -11.5727   20.6951 H   0  0  0  0  0  0
    5.9865   -0.7457   21.4471 H   0  0  0  0  0  0
    7.4120   -1.9162   23.0628 H   0  0  0  0  0  0
    2.4378   -3.1606   19.3989 H   0  0  0  0  0  0
    3.8604   -3.4253   18.3900 H   0  0  0  0  0  0
    2.8070   -2.0506   18.0623 H   0  0  0  0  0  0
  1 17  2  0  0  0
  2  6  2  0  0  0
  2  9  1  0  0  0
  3  6  1  0  0  0
  3 14  1  0  0  0
  3 19  1  0  0  0
  4  7  1  0  0  0
  4  8  1  0  0  0
  4  9  2  0  0  0
  5  6  1  0  0  0
  5  8  2  0  0  0
  5 11  1  0  0  0
  7 10  2  0  0  0
  7 13  1  0  0  0
  8 20  1  0  0  0
  9 21  1  0  0  0
 10 12  1  0  0  0
 10 22  1  0  0  0
 11 14  2  0  0  0
 11 23  1  0  0  0
 12 15  2  0  0  0
 12 17  1  0  0  0
 13 16  2  0  0  0
 13 24  1  0  0  0
 14 25  1  0  0  0
 15 16  1  0  0  0
 15 26  1  0  0  0
 16 27  1  0  0  0
 17 18  1  0  0  0
 18 28  1  0  0  0
 18 29  1  0  0  0
 18 30  1  0  0  0
M  END
> <s_m_entry_id>
5791

> <s_m_entry_name>
dock_pv.186

> <s_m_Source_Path>
/home/csk/Desktop/cluster/DUD-E-result/igf1r

> <s_m_Source_File>
dock_pv.maegz

> <i_m_Source_File_Index>
186

> <chembl_id>
CHEMBL2000568

> <chembl_pref_name>
None

> <i_lp_mmshare_version>
53161

> <r_lp_tautomer_probability>
0.999948432606831

> <s_lp_Force_Field>
OPLS_2005

> <r_lp_Energy>
16.517045

> <b_lp_Chiralities_Consistent>
1

> <s_lp_Variant>
CHEMBL1957_lig3052-1

> <s_i_glide_gridfile>
glide-grid_2oj9

> <i_i_glide_lignum>
4232

> <i_i_glide_rotatable_bonds>
2

> <r_i_docking_score>
-7.18175772508482

> <r_i_glide_ligand_efficiency>
-0.39898654028249

> <r_i_glide_ligand_efficiency_sa>
-1.04564054084309

> <r_i_glide_ligand_efficiency_ln>
-1.84603379111732

> <r_i_glide_gscore>
-7.18175772508482

> <r_i_glide_lipo>
-2.92147403771485

> <r_i_glide_hbond>
-0.0269938642428786

> <r_i_glide_metal>
0

> <r_i_glide_rewards>
-2.52685572697981

> <r_i_glide_evdw>
-30.9861507415771

> <r_i_glide_ecoul>
-3.10331845283508

> <r_i_glide_erotb>
0.308371208856827

> <r_i_glide_esite>
0

> <r_i_glide_emodel>
-48.4256165453551

> <r_i_glide_energy>
-34.0894691944122

> <r_i_glide_einternal>
0.686802327632904

> <i_i_glide_confnum>
2

> <i_i_glide_posenum>
190

> <r_i_glide_eff_state_penalty>
0

> <s_user_duplicate_titles>
CHEMBL1957_lig3052

> <i_f3d_flags>
0

> <s_m_subgroup_title>
dock_pv

> <s_m_subgroupid>
dock_pv

> <b_m_subgroup_collapsed>
1

$$$$
CHEMBL1957_lig2802
                    3D
 Schrodinger Suite 2021-1.
 51 53  0  0  1  0            999 V2000
    6.9954   -8.8525   24.4748 F   0  0  0  0  0  0
    2.8383   -6.4005   18.6447 O   0  0  0  0  0  0
    6.7913   -1.6140   22.3916 O   0  0  0  0  0  0
    3.6380   -4.7748   20.0165 N   0  0  0  0  0  0
    8.8253  -11.7995   23.4185 N   0  0  0  0  0  0
    6.0649   -8.9425   21.6821 C   0  0  0  0  0  0
    7.0098   -9.9257   22.3085 C   0  0  0  0  0  0
    4.3897   -7.0630   20.3661 C   0  0  0  0  0  0
    3.5382   -6.0538   19.6012 C   0  0  0  0  0  0
    7.4286   -9.8348   23.6531 C   0  0  0  0  0  0
    5.2211   -9.3334   20.6360 C   0  0  0  0  0  0
    6.0269   -7.6020   22.0817 C   0  0  0  0  0  0
    4.0955   -2.3214   19.9024 C   0  0  0  0  0  0
    3.2452   -3.4994   19.3846 C   0  0  1  0  0  0
    4.4134   -8.4080   19.9773 C   0  0  0  0  0  0
    5.1835   -6.6862   21.4593 C   0  0  0  0  0  0
    7.5361  -10.9850   21.5456 C   0  0  0  0  0  0
    4.9174   -2.4599   21.0334 C   0  0  0  0  0  0
    5.8374   -1.4710   21.3996 C   0  0  0  0  0  0
    8.3229  -10.7808   24.1578 C   0  0  0  0  0  0
    4.1186   -1.0979   19.2172 C   0  0  0  0  0  0
    8.4268  -11.8873   22.1273 C   0  0  0  0  0  0
    5.8035   -0.2603   20.7090 C   0  0  0  0  0  0
    4.9583   -0.0690   19.6251 C   0  0  0  0  0  0
    3.2381   -3.5581   17.8389 C   0  0  0  0  0  0
    6.9388   -2.8430   23.1130 C   0  0  0  0  0  0
    7.3838   -4.0848   22.2978 C   0  0  0  0  0  0
    8.8383   -4.0944   21.8368 C   0  0  0  0  0  0
    4.0225   -4.6674   20.9389 H   0  0  0  0  0  0
    5.1928  -10.3597   20.2999 H   0  0  0  0  0  0
    6.6639   -7.2422   22.8735 H   0  0  0  0  0  0
    2.2414   -3.2532   19.7130 H   0  0  0  0  0  0
    3.8053   -8.7505   19.1518 H   0  0  0  0  0  0
    5.1815   -5.6776   21.8334 H   0  0  0  0  0  0
    7.2772  -11.1115   20.5057 H   0  0  0  0  0  0
    4.8751   -3.3614   21.6158 H   0  0  0  0  0  0
    8.6526  -10.7238   25.1839 H   0  0  0  0  0  0
    3.4948   -0.9151   18.3574 H   0  0  0  0  0  0
    8.8436  -12.7008   21.5509 H   0  0  0  0  0  0
    6.4380    0.5538   21.0022 H   0  0  0  0  0  0
    4.9823    0.8687   19.0865 H   0  0  0  0  0  0
    2.8484   -2.6399   17.4074 H   0  0  0  0  0  0
    4.2335   -3.7283   17.4346 H   0  0  0  0  0  0
    2.5827   -4.3314   17.4454 H   0  0  0  0  0  0
    6.0048   -3.0552   23.6312 H   0  0  0  0  0  0
    7.6661   -2.6640   23.9080 H   0  0  0  0  0  0
    6.7774   -4.2341   21.4084 H   0  0  0  0  0  0
    7.2308   -4.9652   22.9226 H   0  0  0  0  0  0
    9.0650   -5.0076   21.2840 H   0  0  0  0  0  0
    9.5201   -4.0591   22.6873 H   0  0  0  0  0  0
    9.0681   -3.2541   21.1836 H   0  0  0  0  0  0
  1 10  1  0  0  0
  2  9  2  0  0  0
  3 19  1  0  0  0
  3 26  1  0  0  0
  4  9  1  0  0  0
  4 14  1  0  0  0
  4 29  1  0  0  0
  5 20  1  0  0  0
  5 22  2  0  0  0
  6  7  1  0  0  0
  6 11  2  0  0  0
  6 12  1  0  0  0
  7 10  1  0  0  0
  7 17  2  0  0  0
  8  9  1  0  0  0
  8 15  2  0  0  0
  8 16  1  0  0  0
 10 20  2  0  0  0
 11 15  1  0  0  0
 11 30  1  0  0  0
 12 16  2  0  0  0
 12 31  1  0  0  0
 13 14  1  0  0  0
 13 18  2  0  0  0
 13 21  1  0  0  0
 14 25  1  0  0  0
 14 32  1  0  0  0
 15 33  1  0  0  0
 16 34  1  0  0  0
 17 22  1  0  0  0
 17 35  1  0  0  0
 18 19  1  0  0  0
 18 36  1  0  0  0
 19 23  2  0  0  0
 20 37  1  0  0  0
 21 24  2  0  0  0
 21 38  1  0  0  0
 22 39  1  0  0  0
 23 24  1  0  0  0
 23 40  1  0  0  0
 24 41  1  0  0  0
 25 42  1  0  0  0
 25 43  1  0  0  0
 25 44  1  0  0  0
 26 27  1  0  0  0
 26 45  1  0  0  0
 26 46  1  0  0  0
 27 28  1  0  0  0
 27 47  1  0  0  0
 27 48  1  0  0  0
 28 49  1  0  0  0
 28 50  1  0  0  0
 28 51  1  0  0  0
M  END
> <s_m_entry_id>
5792

> <s_m_entry_name>
dock_pv.187

> <s_m_Source_Path>
/home/csk/Desktop/cluster/DUD-E-result/igf1r

> <s_m_Source_File>
dock_pv.maegz

> <i_m_Source_File_Index>
187

> <chembl_id>
CHEMBL1971606

> <chembl_pref_name>
None

> <i_lp_mmshare_version>
53161

> <r_lp_tautomer_probability>
1

> <s_lp_Force_Field>
OPLS_2005

> <r_lp_Energy>
19.226383

> <b_lp_Chiralities_Consistent>
1

> <s_lp_Variant>
CHEMBL1957_lig2802-2

> <s_i_glide_gridfile>
glide-grid_2oj9

> <i_i_glide_lignum>
3881

> <i_i_glide_rotatable_bonds>
8

> <r_i_docking_score>
-7.18054361791463

> <r_i_glide_ligand_efficiency>
-0.256447986354094

> <r_i_glide_ligand_efficiency_sa>
-0.778727126357603

> <r_i_glide_ligand_efficiency_ln>
-1.65748029693645

> <r_i_glide_gscore>
-7.18054361791463

> <r_i_glide_lipo>
-3.84727375077212

> <r_i_glide_hbond>
-0.243617959511669

> <r_i_glide_metal>
0

> <r_i_glide_rewards>
-1.61991064551599

> <r_i_glide_evdw>
-38.2238960266113

> <r_i_glide_ecoul>
-3.37163305282593

> <r_i_glide_erotb>
0.947198497139605

> <r_i_glide_esite>
0

> <r_i_glide_emodel>
-54.5911153224595

> <r_i_glide_energy>
-41.5955290794373

> <r_i_glide_einternal>
11.6871032714844

> <i_i_glide_confnum>
11

> <i_i_glide_posenum>
44

> <r_i_glide_eff_state_penalty>
0

> <s_user_duplicate_titles>
CHEMBL1957_lig2802

> <i_f3d_flags>
0

> <s_m_subgroup_title>
dock_pv

> <s_m_subgroupid>
dock_pv

> <b_m_subgroup_collapsed>
1

$$$$
CHEMBL1957_lig3222
                    3D
 Schrodinger Suite 2021-1.
 49 52  0  0  1  0            999 V2000
    8.5131   -9.0051   26.0439 O   0  0  0  0  0  0
    3.1472   -5.9742   18.4267 O   0  0  0  0  0  0
    5.0205   -7.4409   21.0048 N   0  0  0  0  0  0
    4.3626   -7.2541   19.8378 N   0  0  0  0  0  0
    6.3606   -8.7815   22.4541 C   0  0  0  0  0  0
    6.6820  -10.0570   22.9883 C   0  0  0  0  0  0
    5.4749   -8.6146   21.2541 C   0  0  0  0  0  0
    7.4176  -10.1378   24.1949 C   0  0  0  0  0  0
    7.8481   -8.9703   24.8444 C   0  0  0  0  0  0
    6.8824   -7.6435   23.0961 C   0  0  0  0  0  0
    4.5714   -2.8811   20.3782 C   0  0  0  0  0  0
    6.2565  -11.3282   22.2380 C   0  0  0  0  0  0
    4.4380   -4.1464   21.0380 C   0  0  0  0  0  0
    5.2048   -9.8879   20.4262 C   0  0  0  0  0  0
    7.5984   -7.7309   24.2794 C   0  0  0  0  0  0
    5.5490   -1.9559   20.8708 C   0  0  0  0  0  0
    5.0279  -11.1028   21.3470 C   0  0  0  0  0  0
    3.3330   -5.1365   20.6380 C   0  0  0  0  0  0
    3.6380   -6.1482   19.5398 C   0  0  0  0  0  0
    5.2380   -4.4324   22.1449 C   0  0  0  0  0  0
    3.7827   -2.4906   19.2559 C   0  0  0  0  0  0
    6.3575   -2.3091   21.9776 C   0  0  0  0  0  0
    7.7560  -11.5036   24.7954 C   0  0  0  0  0  0
    5.6990   -0.7001   20.2383 C   0  0  0  0  0  0
    6.1962   -3.5384   22.6005 C   0  0  0  0  0  0
    3.9828   -1.2574   18.6422 C   0  0  0  0  0  0
    4.9381   -0.3743   19.1263 C   0  0  0  0  0  0
    8.7099   -8.1275   26.3810 H   0  0  0  0  0  0
    4.4665   -7.9861   19.1481 H   0  0  0  0  0  0
    6.7324   -6.6582   22.6894 H   0  0  0  0  0  0
    7.0927  -11.6553   21.6186 H   0  0  0  0  0  0
    6.0380  -12.1455   22.9253 H   0  0  0  0  0  0
    4.3366   -9.7775   19.7782 H   0  0  0  0  0  0
    6.0380  -10.0592   19.7519 H   0  0  0  0  0  0
    7.9483   -6.8278   24.7588 H   0  0  0  0  0  0
    4.1377  -10.9737   21.9639 H   0  0  0  0  0  0
    4.8435  -11.9942   20.7455 H   0  0  0  0  0  0
    2.4380   -4.5835   20.4045 H   0  0  0  0  0  0
    3.0684   -5.8088   21.4380 H   0  0  0  0  0  0
    5.0796   -5.3507   22.6876 H   0  0  0  0  0  0
    3.0445   -3.1617   18.8432 H   0  0  0  0  0  0
    7.1009   -1.6144   22.3414 H   0  0  0  0  0  0
    6.8557  -11.9759   25.1897 H   0  0  0  0  0  0
    8.4992  -11.4530   25.5911 H   0  0  0  0  0  0
    8.1726  -12.1616   24.0324 H   0  0  0  0  0  0
    6.4380   -0.0008   20.6012 H   0  0  0  0  0  0
    6.8028   -3.7921   23.4579 H   0  0  0  0  0  0
    3.3927   -0.9886   17.7791 H   0  0  0  0  0  0
    5.1115    0.5735   18.6380 H   0  0  0  0  0  0
  1  9  1  0  0  0
  1 28  1  0  0  0
  2 19  2  0  0  0
  3  4  1  0  0  0
  3  7  2  3  0  0
  4 19  1  0  0  0
  4 29  1  0  0  0
  5  6  2  0  0  0
  5  7  1  0  0  0
  5 10  1  0  0  0
  6  8  1  0  0  0
  6 12  1  0  0  0
  7 14  1  0  0  0
  8  9  2  0  0  0
  8 23  1  0  0  0
  9 15  1  0  0  0
 10 15  2  0  0  0
 10 30  1  0  0  0
 11 13  1  0  0  0
 11 16  1  0  0  0
 11 21  2  0  0  0
 12 17  1  0  0  0
 12 31  1  0  0  0
 12 32  1  0  0  0
 13 18  1  0  0  0
 13 20  2  0  0  0
 14 17  1  0  0  0
 14 33  1  0  0  0
 14 34  1  0  0  0
 15 35  1  0  0  0
 16 22  1  0  0  0
 16 24  2  0  0  0
 17 36  1  0  0  0
 17 37  1  0  0  0
 18 19  1  0  0  0
 18 38  1  0  0  0
 18 39  1  0  0  0
 20 25  1  0  0  0
 20 40  1  0  0  0
 21 26  1  0  0  0
 21 41  1  0  0  0
 22 25  2  0  0  0
 22 42  1  0  0  0
 23 43  1  0  0  0
 23 44  1  0  0  0
 23 45  1  0  0  0
 24 27  1  0  0  0
 24 46  1  0  0  0
 25 47  1  0  0  0
 26 27  2  0  0  0
 26 48  1  0  0  0
 27 49  1  0  0  0
M  END
> <s_m_entry_id>
5793

> <s_m_entry_name>
dock_pv.188

> <s_m_Source_Path>
/home/csk/Desktop/cluster/DUD-E-result/igf1r

> <s_m_Source_File>
dock_pv.maegz

> <i_m_Source_File_Index>
188

> <chembl_id>
CHEMBL1972659

> <chembl_pref_name>
None

> <i_lp_mmshare_version>
53161

> <r_lp_tautomer_probability>
1

> <s_lp_Force_Field>
OPLS_2005

> <r_lp_Energy>
26.762364

> <b_lp_Chiralities_Consistent>
1

> <s_lp_Variant>
CHEMBL1957_lig3222-1

> <s_i_glide_gridfile>
glide-grid_2oj9

> <i_i_glide_lignum>
4490

> <i_i_glide_rotatable_bonds>
5

> <r_i_docking_score>
-7.17527968654775

> <r_i_glide_ligand_efficiency>
-0.265751099501769

> <r_i_glide_ligand_efficiency_sa>
-0.797253297629434

> <r_i_glide_ligand_efficiency_ln>
-1.67028681729753

> <r_i_glide_gscore>
-7.17527968654775

> <r_i_glide_lipo>
-2.98331225958293

> <r_i_glide_hbond>
-0.513052420513416

> <r_i_glide_metal>
0

> <r_i_glide_rewards>
-1.43287664332956

> <r_i_glide_evdw>
-34.5552635192871

> <r_i_glide_ecoul>
-5.54259014129639

> <r_i_glide_erotb>
0.313113334036972

> <r_i_glide_esite>
0

> <r_i_glide_emodel>
-50.0586870998578

> <r_i_glide_energy>
-40.0978536605835

> <r_i_glide_einternal>
12.7036037445068

> <i_i_glide_confnum>
6

> <i_i_glide_posenum>
287

> <r_i_glide_eff_state_penalty>
0

> <s_user_duplicate_titles>
CHEMBL1957_lig3222

> <i_f3d_flags>
0

> <s_m_subgroup_title>
dock_pv

> <s_m_subgroupid>
dock_pv

> <b_m_subgroup_collapsed>
1

$$$$
CHEMBL1957_lig1131
                    3D
 Schrodinger Suite 2021-1.
 44 47  0  0  1  0            999 V2000
    7.6447   -8.1274   22.9045 C   0  0  0  0  0  0
    9.4643   -8.0216   24.0534 N   0  0  0  0  0  0
    8.6506   -8.8361   23.3696 N   0  0  0  0  0  0
    9.0008   -6.7280   24.0623 C   0  0  0  0  0  0
    7.7949   -6.7517   23.3169 C   0  0  0  0  0  0
    7.0927   -5.5449   23.1556 C   0  0  0  0  0  0
    7.6133   -4.3550   23.6907 C   0  0  0  0  0  0
    8.8023   -4.3860   24.4282 C   0  0  0  0  0  0
    9.5175   -5.5664   24.6358 C   0  0  0  0  0  0
    6.6033   -8.7785   22.0306 C   0  0  0  0  0  0
    5.6813   -8.0393   21.2705 C   0  0  0  0  0  0
    4.8380   -8.7079   20.3820 C   0  0  0  0  0  0
    4.8380  -10.0540   20.2382 N   0  0  0  0  0  0
    5.6780  -10.7731   21.0176 C   0  0  0  0  0  0
    6.5652  -10.1798   21.9143 C   0  0  0  0  0  0
    6.8888   -3.0481   23.4822 C   0  0  0  0  0  0
    6.8387   -2.1907   24.3647 O   0  0  0  0  0  0
    6.2982   -2.9112   22.2811 N   0  0  0  0  0  0
    5.3606   -1.8625   21.8778 C   0  0  2  0  0  0
    4.5487   -2.2778   20.6385 C   0  0  0  0  0  0
    4.3222   -1.4027   19.5621 C   0  0  0  0  0  0
    3.6388   -1.8341   18.4277 C   0  0  0  0  0  0
    3.2081   -3.1529   18.3348 C   0  0  0  0  0  0
    3.3871   -4.0228   19.4041 C   0  0  0  0  0  0
    4.0382   -3.5828   20.5544 C   0  0  0  0  0  0
    2.8409   -5.6540   19.2878 Cl  0  0  0  0  0  0
    6.0380   -0.4759   21.7844 C   0  0  0  0  0  0
   10.3182   -8.3747   24.4601 H   0  0  0  0  0  0
    6.1530   -5.5240   22.6319 H   0  0  0  0  0  0
    9.1982   -3.4678   24.8413 H   0  0  0  0  0  0
   10.4376   -5.5829   25.1972 H   0  0  0  0  0  0
    5.6547   -6.9657   21.2835 H   0  0  0  0  0  0
    4.1560   -8.1636   19.7447 H   0  0  0  0  0  0
    5.6435  -11.8458   20.8958 H   0  0  0  0  0  0
    7.2314  -10.8080   22.4875 H   0  0  0  0  0  0
    6.5188   -3.5964   21.5753 H   0  0  0  0  0  0
    4.6124   -1.7940   22.6708 H   0  0  0  0  0  0
    4.6851   -0.3871   19.5663 H   0  0  0  0  0  0
    3.4711   -1.1535   17.6072 H   0  0  0  0  0  0
    2.7219   -3.5000   17.4383 H   0  0  0  0  0  0
    4.1865   -4.2763   21.3686 H   0  0  0  0  0  0
    5.3411    0.3151   21.5146 H   0  0  0  0  0  0
    6.4570   -0.1822   22.7455 H   0  0  0  0  0  0
    6.8381   -0.4701   21.0449 H   0  0  0  0  0  0
  1  5  1  0  0  0
  1  3  2  0  0  0
  1 10  1  0  0  0
  2  4  1  0  0  0
  2  3  1  0  0  0
  2 28  1  0  0  0
  4  5  2  0  0  0
  4  9  1  0  0  0
  5  6  1  0  0  0
  6  7  2  0  0  0
  6 29  1  0  0  0
  7  8  1  0  0  0
  7 16  1  0  0  0
  8  9  2  0  0  0
  8 30  1  0  0  0
  9 31  1  0  0  0
 10 11  2  0  0  0
 10 15  1  0  0  0
 11 12  1  0  0  0
 11 32  1  0  0  0
 12 13  2  0  0  0
 12 33  1  0  0  0
 13 14  1  0  0  0
 14 15  2  0  0  0
 14 34  1  0  0  0
 15 35  1  0  0  0
 16 17  2  0  0  0
 16 18  1  0  0  0
 18 19  1  0  0  0
 18 36  1  0  0  0
 19 20  1  0  0  0
 19 27  1  0  0  0
 19 37  1  0  0  0
 20 21  2  0  0  0
 20 25  1  0  0  0
 21 22  1  0  0  0
 21 38  1  0  0  0
 22 23  2  0  0  0
 22 39  1  0  0  0
 23 24  1  0  0  0
 23 40  1  0  0  0
 24 25  2  0  0  0
 24 26  1  0  0  0
 25 41  1  0  0  0
 27 42  1  0  0  0
 27 43  1  0  0  0
 27 44  1  0  0  0
M  END
> <s_m_entry_id>
5794

> <s_m_entry_name>
dock_pv.189

> <s_m_Source_Path>
/home/csk/Desktop/cluster/DUD-E-result/igf1r

> <s_m_Source_File>
dock_pv.maegz

> <i_m_Source_File_Index>
189

> <chembl_id>
CHEMBL3798631

> <chembl_pref_name>
None

> <i_lp_mmshare_version>
53161

> <r_lp_tautomer_probability>
0.980392156862745

> <s_lp_Force_Field>
OPLS_2005

> <r_lp_Energy>
17.062161

> <b_lp_Chiralities_Consistent>
1

> <s_lp_Variant>
CHEMBL1957_lig1131-1

> <s_i_glide_gridfile>
glide-grid_2oj9

> <i_i_glide_lignum>
1468

> <i_i_glide_rotatable_bonds>
5

> <r_i_docking_score>
-7.16880116072053

> <r_i_glide_ligand_efficiency>
-0.265511154100761

> <r_i_glide_ligand_efficiency_sa>
-0.7965334614272

> <r_i_glide_ligand_efficiency_ln>
-1.6687787232918

> <r_i_glide_gscore>
-7.16880116072053

> <r_i_glide_lipo>
-3.73634040422697

> <r_i_glide_hbond>
0

> <r_i_glide_metal>
0

> <r_i_glide_rewards>
-1.50692582478421

> <r_i_glide_evdw>
-43.9061813354492

> <r_i_glide_ecoul>
-1.74350273609161

> <r_i_glide_erotb>
0.54538015506588

> <r_i_glide_esite>
-0.0140806095890253

> <r_i_glide_emodel>
-62.720448259842

> <r_i_glide_energy>
-45.6496840715408

> <r_i_glide_einternal>
4.9775242805481

> <i_i_glide_confnum>
5

> <i_i_glide_posenum>
157

> <r_i_glide_eff_state_penalty>
0

> <s_user_duplicate_titles>
CHEMBL1957_lig1131,CHEMBL1957_lig1131

> <i_f3d_flags>
0

> <s_m_subgroup_title>
dock_pv

> <s_m_subgroupid>
dock_pv

> <b_m_subgroup_collapsed>
1

$$$$
CHEMBL1957_lig2195
                    3D
 Schrodinger Suite 2021-1.
 49 53  0  0  1  0            999 V2000
    7.2497  -12.2804   20.3755 C   0  0  0  0  0  0
    5.8699  -12.0766   21.0209 C   0  0  0  0  0  0
    5.6045  -10.6563   21.1865 N   0  0  0  0  0  0
    6.0782   -9.8290   22.1674 C   0  0  0  0  0  0
    5.6390   -8.5741   21.8031 C   0  0  0  0  0  0
    4.9111   -8.7356   20.6175 C   0  0  0  0  0  0
    4.2408   -7.8241   19.8439 N   0  0  0  0  0  0
    4.0380   -6.4507   20.0333 C   0  0  0  0  0  0
    3.3089   -5.8571   19.0527 N   0  0  0  0  0  0
    3.2294   -4.5042   19.0904 C   0  0  0  0  0  0
    3.7968   -3.7225   20.0968 C   0  0  0  0  0  0
    3.6414   -2.2029   20.1693 C   0  0  0  0  0  0
    4.9859   -1.5033   20.4788 C   0  0  0  0  0  0
    5.6436   -2.2047   21.6617 C   0  0  0  0  0  0
    6.4394   -1.6377   22.5359 N   0  0  0  0  0  0
    6.9293   -2.6558   23.2525 N   0  0  0  0  0  0
    7.9225   -2.3605   24.2775 C   0  0  0  0  0  0
    6.4410   -3.8833   22.8545 C   0  0  0  0  0  0
    6.9541   -5.1370   23.3696 C   0  0  0  0  0  0
    6.0369   -6.0558   24.5188 S   0  0  0  0  0  0
    7.3059   -7.2238   24.6298 C   0  0  0  0  0  0
    8.3741   -6.9036   23.8072 C   0  0  0  0  0  0
    8.1834   -5.7334   23.0576 C   0  0  0  0  0  0
    9.2238   -5.1582   22.1184 C   0  0  0  0  0  0
    5.4900   -3.5868   21.8795 C   0  0  0  0  0  0
    4.5773   -4.4200   21.0380 C   0  0  0  0  0  0
    4.6599   -5.7829   21.0489 N   0  0  0  0  0  0
    4.9296   -9.9927   20.2379 N   0  0  0  0  0  0
    7.4282  -13.3317   20.1493 H   0  0  0  0  0  0
    7.3306  -11.7194   19.4444 H   0  0  0  0  0  0
    8.0516  -11.9404   21.0329 H   0  0  0  0  0  0
    5.8140  -12.5566   21.9993 H   0  0  0  0  0  0
    5.0835  -12.5145   20.4025 H   0  0  0  0  0  0
    6.6695  -10.2006   22.9917 H   0  0  0  0  0  0
    5.8190   -7.6519   22.3239 H   0  0  0  0  0  0
    3.8531   -8.1343   18.9629 H   0  0  0  0  0  0
    2.6526   -4.0447   18.3004 H   0  0  0  0  0  0
    2.9175   -1.9682   20.9508 H   0  0  0  0  0  0
    3.2222   -1.8102   19.2417 H   0  0  0  0  0  0
    4.8482   -0.4349   20.6399 H   0  0  0  0  0  0
    5.6399   -1.5666   19.6085 H   0  0  0  0  0  0
    8.2280   -3.2725   24.7892 H   0  0  0  0  0  0
    8.8048   -1.9141   23.8227 H   0  0  0  0  0  0
    7.5034   -1.6629   25.0040 H   0  0  0  0  0  0
    7.2169   -8.0632   25.3034 H   0  0  0  0  0  0
    9.2734   -7.5000   23.7444 H   0  0  0  0  0  0
   10.2271   -5.2650   22.5317 H   0  0  0  0  0  0
    9.2264   -5.6726   21.1580 H   0  0  0  0  0  0
    9.0981   -4.0904   21.9351 H   0  0  0  0  0  0
  1  2  1  0  0  0
  1 29  1  0  0  0
  1 30  1  0  0  0
  1 31  1  0  0  0
  2  3  1  0  0  0
  2 32  1  0  0  0
  2 33  1  0  0  0
  3  4  1  0  0  0
  3 28  1  0  0  0
  4  5  2  0  0  0
  4 34  1  0  0  0
  5  6  1  0  0  0
  5 35  1  0  0  0
  6  7  1  0  0  0
  6 28  2  0  0  0
  7  8  1  0  0  0
  7 36  1  0  0  0
  8  9  2  0  0  0
  8 27  1  0  0  0
  9 10  1  0  0  0
 10 11  2  0  0  0
 10 37  1  0  0  0
 11 12  1  0  0  0
 11 26  1  0  0  0
 12 13  1  0  0  0
 12 38  1  0  0  0
 12 39  1  0  0  0
 13 14  1  0  0  0
 13 40  1  0  0  0
 13 41  1  0  0  0
 14 15  2  0  0  0
 14 25  1  0  0  0
 15 16  1  0  0  0
 16 17  1  0  0  0
 16 18  1  0  0  0
 17 42  1  0  0  0
 17 43  1  0  0  0
 17 44  1  0  0  0
 18 19  1  0  0  0
 18 25  2  0  0  0
 19 20  1  0  0  0
 19 23  2  0  0  0
 20 21  1  0  0  0
 21 22  2  0  0  0
 21 45  1  0  0  0
 22 23  1  0  0  0
 22 46  1  0  0  0
 23 24  1  0  0  0
 24 47  1  0  0  0
 24 48  1  0  0  0
 24 49  1  0  0  0
 25 26  1  0  0  0
 26 27  2  0  0  0
M  END
> <s_m_entry_id>
5795

> <s_m_entry_name>
dock_pv.190

> <s_m_Source_Path>
/home/csk/Desktop/cluster/DUD-E-result/igf1r

> <s_m_Source_File>
dock_pv.maegz

> <i_m_Source_File_Index>
190

> <chembl_id>
CHEMBL3656638

> <chembl_pref_name>
None

> <i_lp_mmshare_version>
53161

> <r_lp_tautomer_probability>
0.999999987636

> <s_lp_Force_Field>
OPLS_2005

> <r_lp_Energy>
6.956885

> <b_lp_Chiralities_Consistent>
1

> <s_lp_Variant>
CHEMBL1957_lig2195-1

> <s_i_glide_gridfile>
glide-grid_2oj9

> <i_i_glide_lignum>
3170

> <i_i_glide_rotatable_bonds>
4

> <r_i_docking_score>
-7.16232518978006

> <r_i_glide_ligand_efficiency>
-0.255797328206431

> <r_i_glide_ligand_efficiency_sa>
-0.776751345004142

> <r_i_glide_ligand_efficiency_ln>
-1.6532749488067

> <r_i_glide_gscore>
-7.16232518978006

> <r_i_glide_lipo>
-2.98532919637112

> <r_i_glide_hbond>
-0.210187145219516

> <r_i_glide_metal>
0

> <r_i_glide_rewards>
-1.80857194441997

> <r_i_glide_evdw>
-41.5821723937988

> <r_i_glide_ecoul>
-3.07407927513123

> <r_i_glide_erotb>
0.381983607190171

> <r_i_glide_esite>
0

> <r_i_glide_emodel>
-60.6397713179371

> <r_i_glide_energy>
-44.6562516689301

> <r_i_glide_einternal>
5.85783433914185

> <i_i_glide_confnum>
10

> <i_i_glide_posenum>
32

> <r_i_glide_eff_state_penalty>
0

> <s_user_duplicate_titles>
CHEMBL1957_lig2195

> <i_f3d_flags>
0

> <s_m_subgroup_title>
dock_pv

> <s_m_subgroupid>
dock_pv

> <b_m_subgroup_collapsed>
1

$$$$
CHEMBL1957_lig917
                    3D
 Schrodinger Suite 2021-1.
 28 31  0  0  1  0            999 V2000
    6.4380   -3.9915   23.1476 C   0  0  0  0  0  0
    5.5183   -4.4319   22.1899 C   0  0  0  0  0  0
    4.9681   -3.4729   21.2099 C   0  0  0  0  0  0
    5.4397   -2.1534   21.2247 C   0  0  0  0  0  0
    6.3458   -1.7051   22.1837 O   0  0  0  0  0  0
    6.8605   -2.5528   23.1485 C   0  0  0  0  0  0
    4.0380   -3.9065   20.2607 C   0  0  0  0  0  0
    3.5964   -2.9997   19.2912 C   0  0  0  0  0  0
    4.0835   -1.6914   19.2696 C   0  0  0  0  0  0
    5.0014   -1.2574   20.2387 C   0  0  0  0  0  0
    5.0989   -5.7687   22.1310 C   0  0  0  0  0  0
    4.1897   -6.2155   21.1721 O   0  0  0  0  0  0
    3.6380   -5.3515   20.2380 C   0  0  0  0  0  0
    6.9128   -4.9130   24.0898 C   0  0  0  0  0  0
    6.4877   -6.2441   24.0643 C   0  0  0  0  0  0
    5.6003   -6.6829   23.0700 C   0  0  0  0  0  0
    5.4683    0.0354   20.2234 O   0  0  0  0  0  0
    3.6714   -0.8557   18.2675 O   0  0  0  0  0  0
    2.8909   -5.8403   19.3914 O   0  0  0  0  0  0
    5.2375   -8.0066   23.0369 O   0  0  0  0  0  0
    6.9405   -7.1153   25.0279 O   0  0  0  0  0  0
    7.6329   -2.0546   23.9664 O   0  0  0  0  0  0
    2.9051   -3.3223   18.5245 H   0  0  0  0  0  0
    7.6195   -4.5966   24.8442 H   0  0  0  0  0  0
    5.2805    0.4961   19.3991 H   0  0  0  0  0  0
    3.1414   -1.2991   17.5992 H   0  0  0  0  0  0
    5.6697   -8.4912   23.7460 H   0  0  0  0  0  0
    7.3637   -6.6666   25.7716 H   0  0  0  0  0  0
  1  2  2  0  0  0
  1  6  1  0  0  0
  1 14  1  0  0  0
  2  3  1  0  0  0
  2 11  1  0  0  0
  3  4  2  0  0  0
  3  7  1  0  0  0
  4  5  1  0  0  0
  4 10  1  0  0  0
  5  6  1  0  0  0
  6 22  2  0  0  0
  7  8  2  0  0  0
  7 13  1  0  0  0
  8  9  1  0  0  0
  8 23  1  0  0  0
  9 10  2  0  0  0
  9 18  1  0  0  0
 10 17  1  0  0  0
 11 12  1  0  0  0
 11 16  2  0  0  0
 12 13  1  0  0  0
 13 19  2  0  0  0
 14 15  2  0  0  0
 14 24  1  0  0  0
 15 16  1  0  0  0
 15 21  1  0  0  0
 16 20  1  0  0  0
 17 25  1  0  0  0
 18 26  1  0  0  0
 20 27  1  0  0  0
 21 28  1  0  0  0
M  END
> <s_m_entry_id>
5796

> <s_m_entry_name>
dock_pv.191

> <s_m_Source_Path>
/home/csk/Desktop/cluster/DUD-E-result/igf1r

> <s_m_Source_File>
dock_pv.maegz

> <i_m_Source_File_Index>
191

> <chembl_id>
CHEMBL6246

> <chembl_pref_name>
ELLAGIC ACID

> <i_lp_mmshare_version>
53161

> <r_lp_tautomer_probability>
1

> <s_lp_Force_Field>
OPLS_2005

> <r_lp_Energy>
22.030821

> <b_lp_Chiralities_Consistent>
1

> <s_lp_Variant>
CHEMBL1957_lig917-1

> <s_i_glide_gridfile>
glide-grid_2oj9

> <i_i_glide_lignum>
1149

> <i_i_glide_rotatable_bonds>
4

> <r_i_docking_score>
-7.16176104657146

> <r_i_glide_ligand_efficiency>
-0.325534593025976

> <r_i_glide_ligand_efficiency_sa>
-0.912160732207836

> <r_i_glide_ligand_efficiency_ln>
-1.75059563136345

> <r_i_glide_gscore>
-7.16176104657146

> <r_i_glide_lipo>
-2.81776452040657

> <r_i_glide_hbond>
0

> <r_i_glide_metal>
0

> <r_i_glide_rewards>
-1.60701987878788

> <r_i_glide_evdw>
-33.8645896911621

> <r_i_glide_ecoul>
-6.95831441879272

> <r_i_glide_erotb>
0

> <r_i_glide_esite>
0

> <r_i_glide_emodel>
-57.1384691452555

> <r_i_glide_energy>
-40.8229041099548

> <r_i_glide_einternal>
0.921547770500183

> <i_i_glide_confnum>
1

> <i_i_glide_posenum>
307

> <r_i_glide_eff_state_penalty>
0

> <s_user_duplicate_titles>
CHEMBL1957_lig917

> <i_f3d_flags>
0

> <s_m_subgroup_title>
dock_pv

> <s_m_subgroupid>
dock_pv

> <b_m_subgroup_collapsed>
1

$$$$
CHEMBL1957_lig462
                    3D
 Schrodinger Suite 2021-1.
 49 53  0  0  1  0            999 V2000
    3.6514   -1.2497   18.4361 C   0  0  0  0  0  0
    4.6096   -0.6230   19.2297 C   0  0  0  0  0  0
    5.1867   -1.3001   20.2996 C   0  0  0  0  0  0
    4.7916   -2.6196   20.5848 C   0  0  0  0  0  0
    3.7885   -3.2228   19.8111 C   0  0  0  0  0  0
    3.2298   -2.5402   18.7342 C   0  0  0  0  0  0
    6.1189   -0.6536   21.0277 F   0  0  0  0  0  0
    3.3827   -4.4915   20.0665 F   0  0  0  0  0  0
    5.4763   -3.4613   21.4686 N   0  0  0  0  0  0
    6.0891   -3.2046   22.6386 C   0  0  0  0  0  0
    6.9423   -4.3594   23.0938 C   0  0  0  0  0  0
    8.2048   -4.1320   23.6521 C   0  0  0  0  0  0
    9.0701   -5.2014   23.8843 C   0  0  0  0  0  0
    8.6779   -6.5029   23.5687 C   0  0  0  0  0  0
    7.3961   -6.7645   23.0668 C   0  0  0  0  0  0
    6.5336   -5.6822   22.8621 C   0  0  0  0  0  0
    6.9484   -8.1471   22.6758 C   0  0  0  0  0  0
    7.3834   -9.3915   23.1763 C   0  0  0  0  0  0
    6.0519   -8.2839   21.7119 N   0  0  0  0  0  0
    5.8920   -9.6137   21.5412 C   0  0  0  0  0  0
    6.6979  -10.3360   22.4365 N   0  0  0  0  0  0
    6.6853  -11.7096   22.4632 C   0  0  0  0  0  0
    5.8645  -12.4040   21.5795 C   0  0  0  0  0  0
    5.0660  -11.7091   20.6749 C   0  0  0  0  0  0
    5.0721  -10.3132   20.6373 C   0  0  0  0  0  0
    8.3567   -9.7213   24.2541 C   0  0  0  0  0  0
    9.3738  -10.6687   24.0908 C   0  0  0  0  0  0
   10.2630  -10.8317   25.1553 C   0  0  0  0  0  0
   10.1651  -10.1098   26.3028 N   0  0  0  0  0  0
    9.1500   -9.2130   26.3596 C   0  0  0  0  0  0
    8.2282   -8.9921   25.3941 N   0  0  0  0  0  0
    9.0578   -8.4345   27.5010 N   0  0  0  0  0  0
    6.0359   -2.1463   23.2663 O   0  0  0  0  0  0
    3.2392   -0.7314   17.5843 H   0  0  0  0  0  0
    4.9363    0.3818   19.0035 H   0  0  0  0  0  0
    2.4815   -3.0173   18.1172 H   0  0  0  0  0  0
    5.5191   -4.4243   21.1703 H   0  0  0  0  0  0
    8.5520   -3.1260   23.8466 H   0  0  0  0  0  0
   10.0629   -5.0170   24.2671 H   0  0  0  0  0  0
    9.3917   -7.3015   23.7017 H   0  0  0  0  0  0
    5.5477   -5.8791   22.4639 H   0  0  0  0  0  0
    7.3108  -12.1975   23.1954 H   0  0  0  0  0  0
    5.8371  -13.4830   21.5994 H   0  0  0  0  0  0
    4.4267  -12.2619   20.0013 H   0  0  0  0  0  0
    4.4417   -9.7817   19.9383 H   0  0  0  0  0  0
    9.4922  -11.2253   23.1742 H   0  0  0  0  0  0
   11.0831  -11.5333   25.0919 H   0  0  0  0  0  0
    8.4876   -7.5947   27.4400 H   0  0  0  0  0  0
    9.8372   -8.4697   28.1359 H   0  0  0  0  0  0
  1  6  1  0  0  0
  1  2  2  0  0  0
  1 34  1  0  0  0
  2  3  1  0  0  0
  2 35  1  0  0  0
  3  7  1  0  0  0
  3  4  2  0  0  0
  4  9  1  0  0  0
  4  5  1  0  0  0
  5  8  1  0  0  0
  5  6  2  0  0  0
  6 36  1  0  0  0
  9 10  1  0  0  0
  9 37  1  0  0  0
 10 11  1  0  0  0
 10 33  2  0  0  0
 11 16  1  0  0  0
 11 12  2  0  0  0
 12 13  1  0  0  0
 12 38  1  0  0  0
 13 14  2  0  0  0
 13 39  1  0  0  0
 14 15  1  0  0  0
 14 40  1  0  0  0
 15 17  1  0  0  0
 15 16  2  0  0  0
 16 41  1  0  0  0
 17 18  2  0  0  0
 17 19  1  0  0  0
 18 21  1  0  0  0
 18 26  1  0  0  0
 19 20  2  0  0  0
 20 21  1  0  0  0
 20 25  1  0  0  0
 21 22  1  0  0  0
 22 23  2  0  0  0
 22 42  1  0  0  0
 23 24  1  0  0  0
 23 43  1  0  0  0
 24 25  2  0  0  0
 24 44  1  0  0  0
 25 45  1  0  0  0
 26 27  2  0  0  0
 26 31  1  0  0  0
 27 28  1  0  0  0
 27 46  1  0  0  0
 28 29  2  0  0  0
 28 47  1  0  0  0
 29 30  1  0  0  0
 30 31  2  0  0  0
 30 32  1  0  0  0
 32 48  1  0  0  0
 32 49  1  0  0  0
M  END
> <s_m_entry_id>
5797

> <s_m_entry_name>
dock_pv.192

> <s_m_Source_Path>
/home/csk/Desktop/cluster/DUD-E-result/igf1r

> <s_m_Source_File>
dock_pv.maegz

> <i_m_Source_File_Index>
192

> <chembl_id>
CHEMBL513227

> <chembl_pref_name>
None

> <i_lp_mmshare_version>
53161

> <r_lp_tautomer_probability>
0.999999987636

> <s_lp_Force_Field>
OPLS_2005

> <r_lp_Energy>
25.462874

> <b_lp_Chiralities_Consistent>
1

> <s_lp_Variant>
CHEMBL1957_lig462-1

> <s_i_glide_gridfile>
glide-grid_2oj9

> <i_i_glide_lignum>
650

> <i_i_glide_rotatable_bonds>
5

> <r_i_docking_score>
-7.16019895608302

> <r_i_glide_ligand_efficiency>
-0.21697572594191

> <r_i_glide_ligand_efficiency_sa>
-0.695957088923302

> <r_i_glide_ligand_efficiency_ln>
-1.5923911743068

> <r_i_glide_gscore>
-7.16019895608302

> <r_i_glide_lipo>
-2.73166459657288

> <r_i_glide_hbond>
-0.32

> <r_i_glide_metal>
0

> <r_i_glide_rewards>
-1.72136936817568

> <r_i_glide_evdw>
-45.426887512207

> <r_i_glide_ecoul>
-4.12490034103394

> <r_i_glide_erotb>
0.510464100116634

> <r_i_glide_esite>
-0.00754966468564485

> <r_i_glide_emodel>
-66.8751218235156

> <r_i_glide_energy>
-49.551787853241

> <r_i_glide_einternal>
7.4820408821106

> <i_i_glide_confnum>
77

> <i_i_glide_posenum>
287

> <r_i_glide_eff_state_penalty>
0

> <s_user_duplicate_titles>
CHEMBL1957_lig462

> <i_f3d_flags>
0

> <s_m_subgroup_title>
dock_pv

> <s_m_subgroupid>
dock_pv

> <b_m_subgroup_collapsed>
1

$$$$
CHEMBL1957_lig573
                    3D
 Schrodinger Suite 2021-1.
 56 61  0  0  1  0            999 V2000
    7.2935   -8.5389   22.4490 N   0  0  0  0  0  0
    6.8918   -7.2548   22.3143 C   0  0  0  0  0  0
    5.8125   -6.8283   21.6162 N   0  0  0  0  0  0
    5.0770   -7.7505   20.9489 C   0  0  0  0  0  0
    6.5048   -9.4202   21.8332 N   0  0  0  0  0  0
    5.3793   -9.1264   21.0371 C   0  0  0  0  0  0
    4.9040  -10.3621   20.5156 C   0  0  0  0  0  0
    5.7162  -11.3580   21.0371 C   0  0  0  0  0  0
    6.6953  -10.7773   21.8342 C   0  0  0  0  0  0
    4.0393   -7.3304   20.1002 N   0  0  0  0  0  0
    3.6381   -6.0523   19.7914 C   0  0  0  0  0  0
    3.8013   -4.8452   20.4933 C   0  0  0  0  0  0
    3.3957   -3.8256   19.6532 C   0  0  0  0  0  0
    2.9724   -4.4944   18.5363 N   0  0  0  0  0  0
    3.0589   -5.8262   18.6376 N   0  0  0  0  0  0
    3.4235   -2.3193   19.7585 C   0  0  0  0  0  0
    4.7384   -1.6103   19.9765 C   0  0  0  0  0  0
    4.0280   -1.5106   18.6404 C   0  0  0  0  0  0
    7.6676   -6.2806   22.9547 N   0  0  0  0  0  0
    7.2975   -4.8749   23.1453 C   0  0  0  0  0  0
    8.3752   -4.2460   24.0205 C   0  0  0  0  0  0
    9.6228   -4.9431   23.5182 C   0  0  0  0  0  0
    9.1217   -6.3667   23.2111 C   0  0  1  0  0  0
    9.4804   -7.3637   24.3464 C   0  0  0  0  0  0
   10.6931   -7.9411   24.2386 N   0  0  0  0  0  0
    8.6988   -7.5769   25.2754 O   0  0  0  0  0  0
    9.6080   -6.7450   22.3097 H   0  0  0  0  0  0
   11.2787   -8.8790   25.1031 C   0  0  0  0  0  0
   10.5470   -9.8310   25.8261 C   0  0  0  0  0  0
   11.2118  -10.7380   26.6484 C   0  0  0  0  0  0
   12.6018  -10.6981   26.7421 C   0  0  0  0  0  0
   13.3337   -9.7599   26.0196 C   0  0  0  0  0  0
   12.6698   -8.8541   25.1966 C   0  0  0  0  0  0
    4.0835  -10.5420   19.8346 H   0  0  0  0  0  0
    5.6178  -12.4163   20.8345 H   0  0  0  0  0  0
    7.5071  -11.2259   22.3848 H   0  0  0  0  0  0
    3.6423   -8.0967   19.5786 H   0  0  0  0  0  0
    4.2606   -4.7233   21.4618 H   0  0  0  0  0  0
    2.6028   -4.0434   17.7079 H   0  0  0  0  0  0
    2.5496   -1.8964   20.2547 H   0  0  0  0  0  0
    4.7858   -0.7215   20.5998 H   0  0  0  0  0  0
    5.6478   -2.2104   20.0502 H   0  0  0  0  0  0
    4.4372   -2.0521   17.7909 H   0  0  0  0  0  0
    3.5558   -0.5707   18.3528 H   0  0  0  0  0  0
    6.3194   -4.8355   23.6321 H   0  0  0  0  0  0
    7.1892   -4.3695   22.1827 H   0  0  0  0  0  0
    8.1809   -4.4544   25.0733 H   0  0  0  0  0  0
    8.4278   -3.1611   23.9056 H   0  0  0  0  0  0
   10.4372   -4.9036   24.2407 H   0  0  0  0  0  0
   10.0036   -4.4579   22.6162 H   0  0  0  0  0  0
   11.2814   -7.6214   23.4756 H   0  0  0  0  0  0
    9.4716   -9.8839   25.7484 H   0  0  0  0  0  0
   10.6485  -11.4710   27.2091 H   0  0  0  0  0  0
   13.1145  -11.4005   27.3817 H   0  0  0  0  0  0
   14.4113   -9.7305   26.0938 H   0  0  0  0  0  0
   13.2380   -8.1253   24.6379 H   0  0  0  0  0  0
  1  5  1  0  0  0
  1  2  2  0  0  0
  2  3  1  0  0  0
  2 19  1  0  0  0
  3  4  2  0  0  0
  4 10  1  0  0  0
  4  6  1  0  0  0
  5  9  1  0  0  0
  5  6  1  0  0  0
  6  7  2  0  0  0
  7  8  1  0  0  0
  7 34  1  0  0  0
  8  9  2  0  0  0
  8 35  1  0  0  0
  9 36  1  0  0  0
 10 11  1  0  0  0
 10 37  1  0  0  0
 11 12  1  0  0  0
 11 15  2  0  0  0
 12 13  2  0  0  0
 12 38  1  0  0  0
 13 16  1  0  0  0
 13 14  1  0  0  0
 14 15  1  0  0  0
 14 39  1  0  0  0
 16 17  1  0  0  0
 16 18  1  0  0  0
 16 40  1  0  0  0
 17 18  1  0  0  0
 17 41  1  0  0  0
 17 42  1  0  0  0
 18 43  1  0  0  0
 18 44  1  0  0  0
 19 20  1  0  0  0
 19 23  1  0  0  0
 20 21  1  0  0  0
 20 45  1  0  0  0
 20 46  1  0  0  0
 21 22  1  0  0  0
 21 47  1  0  0  0
 21 48  1  0  0  0
 22 23  1  0  0  0
 22 49  1  0  0  0
 22 50  1  0  0  0
 23 24  1  0  0  0
 23 27  1  0  0  0
 24 25  1  0  0  0
 24 26  2  0  0  0
 25 28  1  0  0  0
 25 51  1  0  0  0
 28 29  2  0  0  0
 28 33  1  0  0  0
 29 30  1  0  0  0
 29 52  1  0  0  0
 30 31  2  0  0  0
 30 53  1  0  0  0
 31 32  1  0  0  0
 31 54  1  0  0  0
 32 33  2  0  0  0
 32 55  1  0  0  0
 33 56  1  0  0  0
M  END
> <s_m_entry_id>
5798

> <s_m_entry_name>
dock_pv.193

> <s_m_Source_Path>
/home/csk/Desktop/cluster/DUD-E-result/igf1r

> <s_m_Source_File>
dock_pv.maegz

> <i_m_Source_File_Index>
193

> <chembl_id>
CHEMBL575681

> <chembl_pref_name>
None

> <i_lp_mmshare_version>
53161

> <r_lp_tautomer_probability>
0.842599999161192

> <s_lp_Force_Field>
OPLS_2005

> <r_lp_Energy>
54.398624

> <b_lp_Chiralities_Consistent>
1

> <s_lp_Variant>
CHEMBL1957_lig573-1

> <s_i_glide_gridfile>
glide-grid_2oj9

> <i_i_glide_lignum>
773

> <i_i_glide_rotatable_bonds>
7

> <r_i_docking_score>
-7.15894065139646

> <r_i_glide_ligand_efficiency>
-0.223716895356139

> <r_i_glide_ligand_efficiency_sa>
-0.71025686924227

> <r_i_glide_ligand_efficiency_ln>
-1.60308195719954

> <r_i_glide_gscore>
-7.15894065139646

> <r_i_glide_lipo>
-2.93936171663538

> <r_i_glide_hbond>
-0.313105526605679

> <r_i_glide_metal>
0

> <r_i_glide_rewards>
-1.89333893865875

> <r_i_glide_evdw>
-42.8353233337402

> <r_i_glide_ecoul>
-3.78834533691406

> <r_i_glide_erotb>
0.757333701417306

> <r_i_glide_esite>
-0.0604502036898329

> <r_i_glide_emodel>
-62.9463874036596

> <r_i_glide_energy>
-46.6236686706543

> <r_i_glide_einternal>
7.40242147445679

> <i_i_glide_confnum>
20

> <i_i_glide_posenum>
102

> <r_i_glide_eff_state_penalty>
0

> <s_user_duplicate_titles>
CHEMBL1957_lig573,570770

> <i_f3d_flags>
0

> <s_m_subgroup_title>
dock_pv

> <s_m_subgroupid>
dock_pv

> <b_m_subgroup_collapsed>
1

$$$$
CHEMBL1957_lig2939
                    3D
 Schrodinger Suite 2021-1.
 39 42  0  0  1  0            999 V2000
    7.1828   -6.4666   23.5447 O   0  0  0  0  0  0
    7.9938   -2.4563   22.8385 O   0  0  0  0  0  0
    5.2241    0.7460   20.1033 O   0  0  0  0  0  0
    5.8872   -2.3387   21.9758 N   0  0  0  0  0  0
    7.4555   -5.1048   23.7201 N   0  0  0  0  0  0
    5.3322  -11.8183   20.6380 N   0  0  0  0  0  0
    6.0355  -12.5673   21.5055 N   0  0  0  0  0  0
    6.4152   -6.6166   22.4369 C   0  0  0  0  0  0
    6.8128   -4.4506   22.7700 C   0  0  0  0  0  0
    6.0542   -7.9844   21.9719 C   0  0  0  0  0  0
    6.9349   -3.0167   22.5395 C   0  0  0  0  0  0
    6.1745   -5.3664   21.9273 C   0  0  0  0  0  0
    6.2674  -10.3842   22.0574 C   0  0  0  0  0  0
    5.4241  -10.4715   20.9233 C   0  0  0  0  0  0
    6.5787   -9.1250   22.5921 C   0  0  0  0  0  0
    5.2093   -8.1084   20.8638 C   0  0  0  0  0  0
    4.8746   -9.3435   20.3106 C   0  0  0  0  0  0
    6.5938  -11.7418   22.3529 C   0  0  0  0  0  0
    6.0383   -0.9115   21.6294 C   0  0  0  0  0  0
    4.5126   -2.8545   21.8472 C   0  0  0  0  0  0
    5.4781   -0.6356   20.2063 C   0  0  1  0  0  0
    4.1465   -2.8180   20.3603 C   0  0  0  0  0  0
    4.1743   -1.3820   19.8370 C   0  0  0  0  0  0
    6.0228    1.2358   19.8363 H   0  0  0  0  0  0
    4.8384  -12.2487   19.8672 H   0  0  0  0  0  0
    5.6141   -5.1493   21.0382 H   0  0  0  0  0  0
    7.2315   -9.0391   23.4486 H   0  0  0  0  0  0
    4.8092   -7.2249   20.3887 H   0  0  0  0  0  0
    4.2435   -9.4122   19.4390 H   0  0  0  0  0  0
    7.2137  -12.1105   23.1559 H   0  0  0  0  0  0
    7.0790   -0.5991   21.6006 H   0  0  0  0  0  0
    5.5249   -0.3044   22.3737 H   0  0  0  0  0  0
    3.8598   -2.1771   22.3973 H   0  0  0  0  0  0
    4.3559   -3.8175   22.3205 H   0  0  0  0  0  0
    6.2320   -0.8730   19.4546 H   0  0  0  0  0  0
    3.1540   -3.2448   20.2099 H   0  0  0  0  0  0
    4.8343   -3.4348   19.7870 H   0  0  0  0  0  0
    3.3085   -0.8553   20.2376 H   0  0  0  0  0  0
    4.0412   -1.3851   18.7534 H   0  0  0  0  0  0
  1  5  1  0  0  0
  1  8  1  0  0  0
  2 11  2  0  0  0
  3 21  1  0  0  0
  3 24  1  0  0  0
  4 11  1  0  0  0
  4 19  1  0  0  0
  4 20  1  0  0  0
  5  9  2  0  0  0
  6  7  1  0  0  0
  6 14  1  0  0  0
  6 25  1  0  0  0
  7 18  2  0  0  0
  8 10  1  0  0  0
  8 12  2  0  0  0
  9 11  1  0  0  0
  9 12  1  0  0  0
 10 15  1  0  0  0
 10 16  2  0  0  0
 12 26  1  0  0  0
 13 14  1  0  0  0
 13 15  2  0  0  0
 13 18  1  0  0  0
 14 17  2  0  0  0
 15 27  1  0  0  0
 16 17  1  0  0  0
 16 28  1  0  0  0
 17 29  1  0  0  0
 18 30  1  0  0  0
 19 21  1  0  0  0
 19 31  1  0  0  0
 19 32  1  0  0  0
 20 22  1  0  0  0
 20 33  1  0  0  0
 20 34  1  0  0  0
 21 23  1  0  0  0
 21 35  1  0  0  0
 22 23  1  0  0  0
 22 36  1  0  0  0
 22 37  1  0  0  0
 23 38  1  0  0  0
 23 39  1  0  0  0
M  END
> <s_m_entry_id>
5799

> <s_m_entry_name>
dock_pv.194

> <s_m_Source_Path>
/home/csk/Desktop/cluster/DUD-E-result/igf1r

> <s_m_Source_File>
dock_pv.maegz

> <i_m_Source_File_Index>
194

> <chembl_id>
CHEMBL1997340

> <chembl_pref_name>
None

> <i_lp_mmshare_version>
53161

> <r_lp_tautomer_probability>
0.980392156862745

> <s_lp_Force_Field>
OPLS_2005

> <r_lp_Energy>
32.990028

> <b_lp_Chiralities_Consistent>
1

> <s_lp_Variant>
CHEMBL1957_lig2939-2

> <s_i_glide_gridfile>
glide-grid_2oj9

> <i_i_glide_lignum>
4066

> <i_i_glide_rotatable_bonds>
4

> <r_i_docking_score>
-7.15728976321333

> <r_i_glide_ligand_efficiency>
-0.311186511444058

> <r_i_glide_ligand_efficiency_sa>
-0.884973043546015

> <r_i_glide_ligand_efficiency_ln>
-1.73069756346044

> <r_i_glide_gscore>
-7.15728976321333

> <r_i_glide_lipo>
-2.65916767506683

> <r_i_glide_hbond>
-0.467419131453022

> <r_i_glide_metal>
0

> <r_i_glide_rewards>
-1.97426616027581

> <r_i_glide_evdw>
-34.3726654052734

> <r_i_glide_ecoul>
-4.91551923751831

> <r_i_glide_erotb>
0.399524359473748

> <r_i_glide_esite>
0

> <r_i_glide_emodel>
-52.917823639678

> <r_i_glide_energy>
-39.2881846427917

> <r_i_glide_einternal>
6.12106513977051

> <i_i_glide_confnum>
7

> <i_i_glide_posenum>
387

> <r_i_glide_eff_state_penalty>
0

> <s_user_duplicate_titles>
CHEMBL1957_lig2939

> <i_f3d_flags>
0

> <s_m_subgroup_title>
dock_pv

> <s_m_subgroupid>
dock_pv

> <b_m_subgroup_collapsed>
1

$$$$
CHEMBL1957_lig1418
                    3D
 Schrodinger Suite 2021-1.
 39 42  0  0  1  0            999 V2000
    8.0572   -4.0949   24.1807 C   0  0  0  0  0  0
    8.0385   -2.7009   24.2419 C   0  0  0  0  0  0
    7.2176   -1.9406   23.4811 N   0  0  0  0  0  0
    6.4131   -2.6050   22.6217 C   0  0  0  0  0  0
    6.3603   -3.9552   22.4959 N   0  0  0  0  0  0
    7.1709   -4.7074   23.2850 C   0  0  0  0  0  0
    7.1360   -6.1118   23.1999 N   0  0  0  0  0  0
    5.6394   -1.7819   21.7967 N   0  0  0  0  0  0
    6.3943   -6.9513   22.3957 C   0  0  0  0  0  0
    6.5343   -8.3432   22.3220 C   0  0  0  0  0  0
    5.6383   -8.8038   21.3728 C   0  0  0  0  0  0
    5.0054   -7.6613   20.9652 N   0  0  0  0  0  0
    5.4456   -6.5540   21.5713 N   0  0  0  0  0  0
    5.3321  -10.1713   20.7996 C   0  0  0  0  0  0
    6.4377  -11.1883   20.6376 C   0  0  0  0  0  0
    5.3654  -11.3945   21.6822 C   0  0  0  0  0  0
    4.8332   -2.0607   20.6836 C   0  0  0  0  0  0
    4.2957   -3.3271   20.4254 C   0  0  0  0  0  0
    3.6164   -3.5873   19.2356 C   0  0  0  0  0  0
    3.3641   -2.5376   18.3518 C   0  0  0  0  0  0
    3.8364   -1.2568   18.6329 C   0  0  0  0  0  0
    4.5838   -1.0223   19.7840 C   0  0  0  0  0  0
    9.2702   -5.0795   25.2723 Br  0  0  0  0  0  0
    3.2379   -4.9557   18.9027 C   0  0  0  0  0  0
    2.9342   -6.0439   18.6385 N   0  0  0  0  0  0
    8.7091   -2.1710   24.9030 H   0  0  0  0  0  0
    7.8017   -6.5258   23.8360 H   0  0  0  0  0  0
    5.8444   -0.8046   21.9331 H   0  0  0  0  0  0
    7.2311   -8.9468   22.8841 H   0  0  0  0  0  0
    4.2834   -7.6282   20.2576 H   0  0  0  0  0  0
    4.5738  -10.1637   20.0144 H   0  0  0  0  0  0
    6.4378  -11.8101   19.7413 H   0  0  0  0  0  0
    7.4467  -10.9235   20.9568 H   0  0  0  0  0  0
    5.6386  -11.2844   22.7315 H   0  0  0  0  0  0
    4.6057  -12.1629   21.5312 H   0  0  0  0  0  0
    4.4371   -4.1397   21.1164 H   0  0  0  0  0  0
    2.8263   -2.7129   17.4358 H   0  0  0  0  0  0
    3.6553   -0.4542   17.9339 H   0  0  0  0  0  0
    4.9876   -0.0349   19.9534 H   0  0  0  0  0  0
  1  2  2  0  0  0
  1  6  1  0  0  0
  1 23  1  0  0  0
  2  3  1  0  0  0
  2 26  1  0  0  0
  3  4  2  0  0  0
  4  5  1  0  0  0
  4  8  1  0  0  0
  5  6  2  0  0  0
  6  7  1  0  0  0
  7  9  1  0  0  0
  7 27  1  0  0  0
  8 17  1  0  0  0
  8 28  1  0  0  0
  9 13  2  0  0  0
  9 10  1  0  0  0
 10 11  2  0  0  0
 10 29  1  0  0  0
 11 14  1  0  0  0
 11 12  1  0  0  0
 12 30  1  0  0  0
 12 13  1  0  0  0
 14 15  1  0  0  0
 14 16  1  0  0  0
 14 31  1  0  0  0
 15 16  1  0  0  0
 15 32  1  0  0  0
 15 33  1  0  0  0
 16 34  1  0  0  0
 16 35  1  0  0  0
 17 18  2  0  0  0
 17 22  1  0  0  0
 18 19  1  0  0  0
 18 36  1  0  0  0
 19 20  2  0  0  0
 19 24  1  0  0  0
 20 21  1  0  0  0
 20 37  1  0  0  0
 21 22  2  0  0  0
 21 38  1  0  0  0
 22 39  1  0  0  0
 24 25  3  0  0  0
M  END
> <s_m_entry_id>
5800

> <s_m_entry_name>
dock_pv.195

> <s_m_Source_Path>
/home/csk/Desktop/cluster/DUD-E-result/igf1r

> <s_m_Source_File>
dock_pv.maegz

> <i_m_Source_File_Index>
195

> <chembl_id>
CHEMBL3911710

> <chembl_pref_name>
None

> <i_lp_mmshare_version>
53161

> <r_lp_tautomer_probability>
0.842599949391031

> <s_lp_Force_Field>
OPLS_2005

> <r_lp_Energy>
11.027269

> <b_lp_Chiralities_Consistent>
1

> <s_lp_Variant>
CHEMBL1957_lig1418-1

> <s_i_glide_gridfile>
glide-grid_2oj9

> <i_i_glide_lignum>
1970

> <i_i_glide_rotatable_bonds>
5

> <r_i_docking_score>
-7.15689749086496

> <r_i_glide_ligand_efficiency>
-0.286275899634598

> <r_i_glide_ligand_efficiency_sa>
-0.837075807656264

> <r_i_glide_ligand_efficiency_ln>
-1.69639918024573

> <r_i_glide_gscore>
-7.15689749086496

> <r_i_glide_lipo>
-2.99692036909081

> <r_i_glide_hbond>
-0.21361512667265

> <r_i_glide_metal>
0

> <r_i_glide_rewards>
-1.87790183943514

> <r_i_glide_evdw>
-44.3205718994141

> <r_i_glide_ecoul>
-3.1694495677948

> <r_i_glide_erotb>
0.622985874473572

> <r_i_glide_esite>
0

> <r_i_glide_emodel>
-66.2937200820009

> <r_i_glide_energy>
-47.4900214672089

> <r_i_glide_einternal>
1.44166135787964

> <i_i_glide_confnum>
6

> <i_i_glide_posenum>
340

> <r_i_glide_eff_state_penalty>
0

> <s_user_duplicate_titles>
CHEMBL1957_lig1418

> <i_f3d_flags>
0

> <s_m_subgroup_title>
dock_pv

> <s_m_subgroupid>
dock_pv

> <b_m_subgroup_collapsed>
1

$$$$
CHEMBL1957_lig2682
                    3D
 Schrodinger Suite 2021-1.
 35 38  0  0  1  0            999 V2000
    7.0746   -4.3885   23.7645 C   0  0  0  0  0  0
    7.8031   -3.2250   24.0158 C   0  0  0  0  0  0
    7.6358   -2.0546   23.3508 N   0  0  0  0  0  0
    6.0969   -4.4039   22.7522 C   0  0  0  0  0  0
    5.3358   -5.5355   22.4133 N   0  0  0  0  0  0
    5.8988   -3.1972   22.0462 C   0  0  0  0  0  0
    6.7049   -2.0915   22.4020 C   0  0  0  0  0  0
    6.4379   -1.0058   21.6093 O   0  0  0  0  0  0
    5.0721   -2.7442   21.0026 C   0  0  0  0  0  0
    5.4720   -1.4130   20.7267 C   0  0  0  0  0  0
    4.9302   -0.6467   19.6900 C   0  0  0  0  0  0
    3.9388   -1.2542   18.9193 C   0  0  0  0  0  0
    3.4895   -2.5462   19.1936 C   0  0  0  0  0  0
    4.0377   -3.3051   20.2330 C   0  0  0  0  0  0
    5.3978   -6.8135   23.1241 C   0  0  0  0  0  0
    5.4511   -8.0189   22.1865 C   0  0  0  0  0  0
    6.0390   -9.1941   22.6648 C   0  0  0  0  0  0
    6.0365  -10.3499   21.8910 C   0  0  0  0  0  0
    5.4346  -10.3354   20.6378 C   0  0  0  0  0  0
    4.8380   -9.1753   20.1519 C   0  0  0  0  0  0
    4.8403   -8.0173   20.9248 C   0  0  0  0  0  0
    7.3011   -5.2562   24.3624 H   0  0  0  0  0  0
    8.5692   -3.2196   24.7781 H   0  0  0  0  0  0
    4.6265   -5.4285   21.7063 H   0  0  0  0  0  0
    5.2747    0.3574   19.4843 H   0  0  0  0  0  0
    3.4996   -0.7090   18.0953 H   0  0  0  0  0  0
    2.7132   -2.9732   18.5742 H   0  0  0  0  0  0
    3.6893   -4.3107   20.4098 H   0  0  0  0  0  0
    4.5037   -6.9080   23.7400 H   0  0  0  0  0  0
    6.2482   -6.8784   23.7984 H   0  0  0  0  0  0
    6.4827   -9.2225   23.6505 H   0  0  0  0  0  0
    6.4822  -11.2586   22.2704 H   0  0  0  0  0  0
    5.4220  -11.2337   20.0362 H   0  0  0  0  0  0
    4.3678   -9.1780   19.1788 H   0  0  0  0  0  0
    4.3548   -7.1325   20.5416 H   0  0  0  0  0  0
  1  2  2  0  0  0
  1  4  1  0  0  0
  1 22  1  0  0  0
  2  3  1  0  0  0
  2 23  1  0  0  0
  3  7  2  0  0  0
  4  5  1  0  0  0
  4  6  2  0  0  0
  5 15  1  0  0  0
  5 24  1  0  0  0
  6  7  1  0  0  0
  6  9  1  0  0  0
  7  8  1  0  0  0
  8 10  1  0  0  0
  9 10  2  0  0  0
  9 14  1  0  0  0
 10 11  1  0  0  0
 11 12  2  0  0  0
 11 25  1  0  0  0
 12 13  1  0  0  0
 12 26  1  0  0  0
 13 14  2  0  0  0
 13 27  1  0  0  0
 14 28  1  0  0  0
 15 16  1  0  0  0
 15 29  1  0  0  0
 15 30  1  0  0  0
 16 17  2  0  0  0
 16 21  1  0  0  0
 17 18  1  0  0  0
 17 31  1  0  0  0
 18 19  2  0  0  0
 18 32  1  0  0  0
 19 20  1  0  0  0
 19 33  1  0  0  0
 20 21  2  0  0  0
 20 34  1  0  0  0
 21 35  1  0  0  0
M  END
> <s_m_entry_id>
5801

> <s_m_entry_name>
dock_pv.196

> <s_m_Source_Path>
/home/csk/Desktop/cluster/DUD-E-result/igf1r

> <s_m_Source_File>
dock_pv.maegz

> <i_m_Source_File_Index>
196

> <chembl_id>
CHEMBL1289976

> <chembl_pref_name>
None

> <i_lp_mmshare_version>
53161

> <r_lp_tautomer_probability>
1

> <s_lp_Force_Field>
OPLS_2005

> <r_lp_Energy>
13.990646

> <b_lp_Chiralities_Consistent>
1

> <s_lp_Variant>
CHEMBL1957_lig2682-1

> <s_i_glide_gridfile>
glide-grid_2oj9

> <i_i_glide_lignum>
3708

> <i_i_glide_rotatable_bonds>
3

> <r_i_docking_score>
-7.15439611101881

> <r_i_glide_ligand_efficiency>
-0.340685529096134

> <r_i_glide_ligand_efficiency_sa>
-0.939925541812643

> <r_i_glide_ligand_efficiency_ln>
-1.76890998163083

> <r_i_glide_gscore>
-7.15439611101881

> <r_i_glide_lipo>
-3.9638596567617

> <r_i_glide_hbond>
0

> <r_i_glide_metal>
0

> <r_i_glide_rewards>
-1.72208406060606

> <r_i_glide_evdw>
-36.701358795166

> <r_i_glide_ecoul>
-2.32794666290283

> <r_i_glide_erotb>
0.715807545542671

> <r_i_glide_esite>
0

> <r_i_glide_emodel>
-54.4032519867739

> <r_i_glide_energy>
-39.0293054580688

> <r_i_glide_einternal>
2.50767254829407

> <i_i_glide_confnum>
18

> <i_i_glide_posenum>
308

> <r_i_glide_eff_state_penalty>
0

> <s_user_duplicate_titles>
CHEMBL1957_lig2682

> <i_f3d_flags>
0

> <s_m_subgroup_title>
dock_pv

> <s_m_subgroupid>
dock_pv

> <b_m_subgroup_collapsed>
1

$$$$
CHEMBL1957_lig3185
                    3D
 Schrodinger Suite 2021-1.
 45 49  0  0  1  0            999 V2000
    4.3730   -6.1217   20.6380 C   0  0  0  0  0  0
    3.0489   -5.4680   18.6875 C   0  0  0  0  0  0
    4.4380   -4.7837   21.0480 C   0  0  0  0  0  0
    3.9033   -3.7742   20.2376 C   0  0  0  0  0  0
    3.2379   -4.1365   19.0504 C   0  0  0  0  0  0
    3.2403   -1.8862   19.1880 N   0  0  0  0  0  0
    3.8479   -2.3507   20.2497 C   0  0  0  0  0  0
    5.1675   -7.1882   21.3422 C   0  0  0  0  0  0
    4.9577   -8.4595   21.0383 N   0  0  0  0  0  0
    6.2142   -7.0390   22.2812 C   0  0  0  0  0  0
    6.6069   -8.3206   22.5957 N   0  0  0  0  0  0
    5.8181   -9.1689   21.8026 C   0  0  0  0  0  0
    5.9544  -10.5016   21.8368 N   0  0  0  0  0  0
    6.8844  -11.0071   22.6910 C   0  0  0  0  0  0
    7.6966  -10.2234   23.5107 C   0  0  0  0  0  0
    7.5477   -8.8397   23.4510 C   0  0  0  0  0  0
    8.0025   -5.2464   22.3527 C   0  0  0  0  0  0
    7.6198   -3.8357   21.8438 C   0  0  0  0  0  0
    7.0491   -2.9305   22.9631 C   0  0  0  0  0  0
    8.0082   -2.8370   24.1640 C   0  0  0  0  0  0
    8.5346   -4.2137   24.6380 C   0  0  0  0  0  0
    9.0474   -5.0995   23.4807 C   0  0  0  0  0  0
    2.8609   -2.9492   18.4573 N   0  0  0  0  0  0
    6.8271   -5.9540   22.8647 N   0  0  0  0  0  0
    3.6381   -6.4396   19.4871 C   0  0  0  0  0  0
    2.4667   -5.7453   17.8379 H   0  0  0  0  0  0
    4.9419   -4.5222   21.9585 H   0  0  0  0  0  0
    4.2643   -1.6835   20.9883 H   0  0  0  0  0  0
    6.9684  -12.0845   22.7098 H   0  0  0  0  0  0
    8.4222  -10.6777   24.1705 H   0  0  0  0  0  0
    8.1272   -8.1411   24.0372 H   0  0  0  0  0  0
    8.4293   -5.8330   21.5369 H   0  0  0  0  0  0
    8.5117   -3.3623   21.4302 H   0  0  0  0  0  0
    6.9270   -3.8993   21.0089 H   0  0  0  0  0  0
    6.8517   -1.9335   22.5671 H   0  0  0  0  0  0
    6.0900   -3.3071   23.3148 H   0  0  0  0  0  0
    8.8380   -2.1975   23.8812 H   0  0  0  0  0  0
    7.5202   -2.3183   24.9894 H   0  0  0  0  0  0
    9.3263   -4.0729   25.3752 H   0  0  0  0  0  0
    7.7372   -4.7458   25.1568 H   0  0  0  0  0  0
    9.3374   -6.0793   23.8620 H   0  0  0  0  0  0
    9.9619   -4.6668   23.0704 H   0  0  0  0  0  0
    2.3701   -2.8277   17.5786 H   0  0  0  0  0  0
    6.4144   -5.4935   23.6636 H   0  0  0  0  0  0
    3.5540   -7.4705   19.1734 H   0  0  0  0  0  0
  1 25  2  0  0  0
  1  3  1  0  0  0
  1  8  1  0  0  0
  2 25  1  0  0  0
  2  5  2  0  0  0
  2 26  1  0  0  0
  3  4  2  0  0  0
  3 27  1  0  0  0
  4  5  1  0  0  0
  4  7  1  0  0  0
  5 23  1  0  0  0
  6  7  2  0  0  0
  6 23  1  0  0  0
  7 28  1  0  0  0
  8  9  1  0  0  0
  8 10  2  0  0  0
  9 12  2  0  0  0
 10 11  1  0  0  0
 10 24  1  0  0  0
 11 12  1  0  0  0
 11 16  1  0  0  0
 12 13  1  0  0  0
 13 14  2  0  0  0
 14 15  1  0  0  0
 14 29  1  0  0  0
 15 16  2  0  0  0
 15 30  1  0  0  0
 16 31  1  0  0  0
 17 18  1  0  0  0
 17 22  1  0  0  0
 17 24  1  0  0  0
 17 32  1  0  0  0
 18 19  1  0  0  0
 18 33  1  0  0  0
 18 34  1  0  0  0
 19 20  1  0  0  0
 19 35  1  0  0  0
 19 36  1  0  0  0
 20 21  1  0  0  0
 20 37  1  0  0  0
 20 38  1  0  0  0
 21 22  1  0  0  0
 21 39  1  0  0  0
 21 40  1  0  0  0
 22 41  1  0  0  0
 22 42  1  0  0  0
 23 43  1  0  0  0
 24 44  1  0  0  0
 25 45  1  0  0  0
M  END
> <s_m_entry_id>
5802

> <s_m_entry_name>
dock_pv.197

> <s_m_Source_Path>
/home/csk/Desktop/cluster/DUD-E-result/igf1r

> <s_m_Source_File>
dock_pv.maegz

> <i_m_Source_File_Index>
197

> <chembl_id>
CHEMBL1682552

> <chembl_pref_name>
None

> <i_lp_mmshare_version>
53161

> <r_lp_tautomer_probability>
0.980392156862745

> <s_lp_Force_Field>
OPLS_2005

> <r_lp_Energy>
25.975939

> <b_lp_Chiralities_Consistent>
1

> <s_lp_Variant>
CHEMBL1957_lig3185-1

> <s_i_glide_gridfile>
glide-grid_2oj9

> <i_i_glide_lignum>
4426

> <i_i_glide_rotatable_bonds>
3

> <r_i_docking_score>
-7.15303838143626

> <r_i_glide_ligand_efficiency>
-0.286121535257451

> <r_i_glide_ligand_efficiency_sa>
-0.83662444347982

> <r_i_glide_ligand_efficiency_ln>
-1.69548445566296

> <r_i_glide_gscore>
-7.15303838143626

> <r_i_glide_lipo>
-3.01177445157079

> <r_i_glide_hbond>
-0.297165044781205

> <r_i_glide_metal>
0

> <r_i_glide_rewards>
-2.42488618469999

> <r_i_glide_evdw>
-36.591236114502

> <r_i_glide_ecoul>
-0.673473238945007

> <r_i_glide_erotb>
0.511370091182575

> <r_i_glide_esite>
0

> <r_i_glide_emodel>
-53.5719444268061

> <r_i_glide_energy>
-37.264709353447

> <r_i_glide_einternal>
1.98263919353485

> <i_i_glide_confnum>
37

> <i_i_glide_posenum>
264

> <r_i_glide_eff_state_penalty>
0

> <s_user_duplicate_titles>
CHEMBL1957_lig3185

> <i_f3d_flags>
0

> <s_m_subgroup_title>
dock_pv

> <s_m_subgroupid>
dock_pv

> <b_m_subgroup_collapsed>
1

$$$$
CHEMBL1957_lig1449
                    3D
 Schrodinger Suite 2021-1.
 45 48  0  0  1  0            999 V2000
    7.2055   -5.2067   23.5806 N   0  0  0  0  0  0
    7.9381   -4.1128   23.9186 C   0  0  0  0  0  0
    9.1201   -4.2418   24.6477 C   0  0  0  0  0  0
    9.5222   -5.5361   24.9836 C   0  0  0  0  0  0
    8.8056   -6.6399   24.6476 N   0  0  0  0  0  0
    7.6596   -6.4296   23.9570 C   0  0  0  0  0  0
    6.9498   -7.5868   23.5996 N   0  0  0  0  0  0
    6.0347   -7.8209   22.5547 C   0  0  0  0  0  0
    5.1878   -6.8117   22.0821 C   0  0  0  0  0  0
    4.4410   -6.9751   20.9191 C   0  0  0  0  0  0
    4.4542   -8.2166   20.2660 C   0  0  0  0  0  0
    5.2377   -9.2567   20.7661 C   0  0  0  0  0  0
    6.0382   -9.0609   21.8932 C   0  0  0  0  0  0
    7.0465  -10.3680   22.4188 Cl  0  0  0  0  0  0
    3.8451   -5.8013   20.4331 N   0  0  0  0  0  0
    3.2380   -5.5937   19.2514 C   0  0  0  0  0  0
    3.2374   -4.1620   18.7547 C   0  0  0  0  0  0
    2.7347   -6.4542   18.5446 O   0  0  0  0  0  0
    7.5264   -2.8285   23.5127 N   0  0  0  0  0  0
    6.7106   -2.4961   22.4505 C   0  0  0  0  0  0
    6.2651   -1.2130   22.0905 C   0  0  0  0  0  0
    5.6377   -1.3253   20.8594 C   0  0  0  0  0  0
    5.6575   -2.6704   20.6380 N   0  0  0  0  0  0
    6.2920   -3.3758   21.5667 N   0  0  0  0  0  0
    5.0194   -0.3428   19.8812 C   0  0  0  0  0  0
    5.6377   -0.0559   18.5332 C   0  0  0  0  0  0
    4.3558   -0.8543   18.6263 C   0  0  0  0  0  0
    9.7217   -3.3849   24.9129 H   0  0  0  0  0  0
   10.4379   -5.7022   25.5244 H   0  0  0  0  0  0
    7.4081   -8.4240   23.9267 H   0  0  0  0  0  0
    5.1441   -5.8588   22.5824 H   0  0  0  0  0  0
    3.8873   -8.3922   19.3661 H   0  0  0  0  0  0
    5.2479  -10.2084   20.2541 H   0  0  0  0  0  0
    4.0655   -4.9797   20.9741 H   0  0  0  0  0  0
    4.1266   -4.0059   18.1488 H   0  0  0  0  0  0
    3.1993   -3.4487   19.5777 H   0  0  0  0  0  0
    2.3826   -3.9801   18.1054 H   0  0  0  0  0  0
    8.0755   -2.1015   23.9444 H   0  0  0  0  0  0
    6.4416   -0.2961   22.6294 H   0  0  0  0  0  0
    5.3073   -3.1009   19.7957 H   0  0  0  0  0  0
    4.5718    0.5274   20.3565 H   0  0  0  0  0  0
    5.6231    0.9667   18.1562 H   0  0  0  0  0  0
    6.5435   -0.5809   18.2369 H   0  0  0  0  0  0
    4.4389   -1.8887   18.3214 H   0  0  0  0  0  0
    3.3987   -0.4468   18.3153 H   0  0  0  0  0  0
  1  2  2  0  0  0
  1  6  1  0  0  0
  2  3  1  0  0  0
  2 19  1  0  0  0
  3  4  2  0  0  0
  3 28  1  0  0  0
  4  5  1  0  0  0
  4 29  1  0  0  0
  5  6  2  0  0  0
  6  7  1  0  0  0
  7  8  1  0  0  0
  7 30  1  0  0  0
  8  9  2  0  0  0
  8 13  1  0  0  0
  9 10  1  0  0  0
  9 31  1  0  0  0
 10 11  2  0  0  0
 10 15  1  0  0  0
 11 12  1  0  0  0
 11 32  1  0  0  0
 12 13  2  0  0  0
 12 33  1  0  0  0
 13 14  1  0  0  0
 15 16  1  0  0  0
 15 34  1  0  0  0
 16 17  1  0  0  0
 16 18  2  0  0  0
 17 35  1  0  0  0
 17 36  1  0  0  0
 17 37  1  0  0  0
 19 20  1  0  0  0
 19 38  1  0  0  0
 20 21  1  0  0  0
 20 24  2  0  0  0
 21 22  2  0  0  0
 21 39  1  0  0  0
 22 23  1  0  0  0
 22 25  1  0  0  0
 23 24  1  0  0  0
 23 40  1  0  0  0
 25 26  1  0  0  0
 25 27  1  0  0  0
 25 41  1  0  0  0
 26 27  1  0  0  0
 26 42  1  0  0  0
 26 43  1  0  0  0
 27 44  1  0  0  0
 27 45  1  0  0  0
M  END
> <s_m_entry_id>
5803

> <s_m_entry_name>
dock_pv.198

> <s_m_Source_Path>
/home/csk/Desktop/cluster/DUD-E-result/igf1r

> <s_m_Source_File>
dock_pv.maegz

> <i_m_Source_File_Index>
198

> <chembl_id>
CHEMBL3950214

> <chembl_pref_name>
None

> <i_lp_mmshare_version>
53161

> <r_lp_tautomer_probability>
0.842599732729633

> <s_lp_Force_Field>
OPLS_2005

> <r_lp_Energy>
18.218243

> <b_lp_Chiralities_Consistent>
1

> <s_lp_Variant>
CHEMBL1957_lig1449-1

> <s_i_glide_gridfile>
glide-grid_2oj9

> <i_i_glide_lignum>
2033

> <i_i_glide_rotatable_bonds>
7

> <r_i_docking_score>
-7.15007074005435

> <r_i_glide_ligand_efficiency>
-0.264817434816828

> <r_i_glide_ligand_efficiency_sa>
-0.794452303577689

> <r_i_glide_ligand_efficiency_ln>
-1.66441859015583

> <r_i_glide_gscore>
-7.15007074005435

> <r_i_glide_lipo>
-3.66589479495595

> <r_i_glide_hbond>
-0.32

> <r_i_glide_metal>
0

> <r_i_glide_rewards>
-1.33959008091085

> <r_i_glide_evdw>
-44.4689140319824

> <r_i_glide_ecoul>
-2.61791133880615

> <r_i_glide_erotb>
0.791546538232488

> <r_i_glide_esite>
0

> <r_i_glide_emodel>
-59.9570495196727

> <r_i_glide_energy>
-47.0868253707886

> <r_i_glide_einternal>
10.696177482605

> <i_i_glide_confnum>
16

> <i_i_glide_posenum>
150

> <r_i_glide_eff_state_penalty>
0

> <s_user_duplicate_titles>
CHEMBL1957_lig1449

> <i_f3d_flags>
0

> <s_m_subgroup_title>
dock_pv

> <s_m_subgroupid>
dock_pv

> <b_m_subgroup_collapsed>
1

$$$$
CHEMBL1957_lig49
                    3D
 Schrodinger Suite 2021-1.
 46 49  0  0  1  0            999 V2000
    6.0029   -0.0655   25.5325 C   0  0  0  0  0  0
    6.9760   -1.0910   25.3697 O   0  0  0  0  0  0
    7.0100   -1.8249   24.1951 C   0  0  0  0  0  0
    6.0593   -1.6868   23.1744 C   0  0  0  0  0  0
    6.1315   -2.4579   22.0140 C   0  0  0  0  0  0
    7.1980   -3.3341   21.8436 C   0  0  0  0  0  0
    8.1346   -3.5337   22.8627 C   0  0  0  0  0  0
    9.1544   -4.4603   22.7666 O   0  0  0  0  0  0
    9.1616   -5.4066   21.7081 C   0  0  0  0  0  0
    8.0377   -2.7686   24.0419 C   0  0  0  0  0  0
    8.9545   -2.8912   25.0667 O   0  0  0  0  0  0
    9.1947   -4.2044   25.5641 C   0  0  0  0  0  0
    5.0926   -2.3587   20.9806 C   0  0  0  0  0  0
    4.3270   -3.3278   20.4393 C   0  0  0  0  0  0
    3.6293   -2.7023   19.3329 C   0  0  0  0  0  0
    2.8380   -3.1843   18.5294 O   0  0  0  0  0  0
    4.0377   -1.4336   19.2984 N   0  0  0  0  0  0
    4.9294   -1.1430   20.2380 C   0  0  0  0  0  0
    5.4507   -0.0446   20.4195 O   0  0  0  0  0  0
    4.2500   -4.8018   20.7143 C   0  0  0  0  0  0
    3.6380   -5.6990   19.8377 C   0  0  0  0  0  0
    4.0380   -6.9780   20.1018 N   0  0  0  0  0  0
    4.7235   -7.0188   21.2849 C   0  0  0  0  0  0
    5.2462   -8.1195   21.9709 C   0  0  0  0  0  0
    5.8615   -7.8728   23.1941 C   0  0  0  0  0  0
    5.9700   -6.5872   23.7042 C   0  0  0  0  0  0
    5.4782   -5.4930   22.9967 C   0  0  0  0  0  0
    4.8380   -5.6663   21.7502 C   0  0  0  0  0  0
    6.1605    0.4315   26.4895 H   0  0  0  0  0  0
    6.0862    0.6921   24.7516 H   0  0  0  0  0  0
    4.9906   -0.4727   25.5366 H   0  0  0  0  0  0
    5.2381   -0.9963   23.2773 H   0  0  0  0  0  0
    7.2466   -3.9053   20.9314 H   0  0  0  0  0  0
   10.0292   -6.0523   21.8365 H   0  0  0  0  0  0
    9.2379   -4.9251   20.7330 H   0  0  0  0  0  0
    8.2703   -6.0355   21.7263 H   0  0  0  0  0  0
    9.4341   -4.1571   26.6265 H   0  0  0  0  0  0
    8.3309   -4.8597   25.4382 H   0  0  0  0  0  0
   10.0380   -4.6651   25.0533 H   0  0  0  0  0  0
    3.7220   -0.7697   18.6102 H   0  0  0  0  0  0
    3.0858   -5.5297   18.9252 H   0  0  0  0  0  0
    3.8061   -7.7571   19.5009 H   0  0  0  0  0  0
    5.1593   -9.1267   21.5896 H   0  0  0  0  0  0
    6.2596   -8.7006   23.7639 H   0  0  0  0  0  0
    6.4524   -6.4338   24.6605 H   0  0  0  0  0  0
    5.6108   -4.5218   23.4375 H   0  0  0  0  0  0
  1  2  1  0  0  0
  1 29  1  0  0  0
  1 30  1  0  0  0
  1 31  1  0  0  0
  2  3  1  0  0  0
  3  4  2  0  0  0
  3 10  1  0  0  0
  4  5  1  0  0  0
  4 32  1  0  0  0
  5  6  2  0  0  0
  5 13  1  0  0  0
  6  7  1  0  0  0
  6 33  1  0  0  0
  7  8  1  0  0  0
  7 10  2  0  0  0
  8  9  1  0  0  0
  9 34  1  0  0  0
  9 35  1  0  0  0
  9 36  1  0  0  0
 10 11  1  0  0  0
 11 12  1  0  0  0
 12 37  1  0  0  0
 12 38  1  0  0  0
 12 39  1  0  0  0
 13 14  2  0  0  0
 13 18  1  0  0  0
 14 15  1  0  0  0
 14 20  1  0  0  0
 15 16  2  0  0  0
 15 17  1  0  0  0
 17 18  1  0  0  0
 17 40  1  0  0  0
 18 19  2  0  0  0
 20 21  2  0  0  0
 20 28  1  0  0  0
 21 22  1  0  0  0
 21 41  1  0  0  0
 22 23  1  0  0  0
 22 42  1  0  0  0
 23 24  2  0  0  0
 23 28  1  0  0  0
 24 25  1  0  0  0
 24 43  1  0  0  0
 25 26  2  0  0  0
 25 44  1  0  0  0
 26 27  1  0  0  0
 26 45  1  0  0  0
 27 28  2  0  0  0
 27 46  1  0  0  0
M  END
> <s_m_entry_id>
5804

> <s_m_entry_name>
dock_pv.199

> <s_m_Source_Path>
/home/csk/Desktop/cluster/DUD-E-result/igf1r

> <s_m_Source_File>
dock_pv.maegz

> <i_m_Source_File_Index>
199

> <chembl_id>
CHEMBL201511

> <chembl_pref_name>
MALEIMIDE

> <i_lp_mmshare_version>
53161

> <r_lp_tautomer_probability>
1

> <s_lp_Force_Field>
OPLS_2005

> <r_lp_Energy>
36.784505

> <b_lp_Chiralities_Consistent>
1

> <s_lp_Variant>
CHEMBL1957_lig49-1

> <s_i_glide_gridfile>
glide-grid_2oj9

> <i_i_glide_lignum>
171

> <i_i_glide_rotatable_bonds>
5

> <r_i_docking_score>
-7.14083995777081

> <r_i_glide_ligand_efficiency>
-0.255029998491815

> <r_i_glide_ligand_efficiency_sa>
-0.774421280057535

> <r_i_glide_ligand_efficiency_ln>
-1.64831552642514

> <r_i_glide_gscore>
-7.14083995777081

> <r_i_glide_lipo>
-3.44743847107503

> <r_i_glide_hbond>
-0.32

> <r_i_glide_metal>
0

> <r_i_glide_rewards>
-1.68120409175571

> <r_i_glide_evdw>
-40.6345558166504

> <r_i_glide_ecoul>
0.458824813365936

> <r_i_glide_erotb>
0.270706673887559

> <r_i_glide_esite>
0

> <r_i_glide_emodel>
-45.8435982495979

> <r_i_glide_energy>
-40.1757310032845

> <r_i_glide_einternal>
9.86130237579346

> <i_i_glide_confnum>
5

> <i_i_glide_posenum>
33

> <r_i_glide_eff_state_penalty>
0

> <s_user_duplicate_titles>
CHEMBL1957_lig49

> <i_f3d_flags>
0

> <s_m_subgroup_title>
dock_pv

> <s_m_subgroupid>
dock_pv

> <b_m_subgroup_collapsed>
1

$$$$
CHEMBL1957_lig3105
                    3D
 Schrodinger Suite 2021-1.
 31 34  0  0  1  0            999 V2000
    3.4023   -5.9033   19.4379 C   0  0  0  0  0  0
    3.0988   -5.0058   18.4718 N   0  0  0  0  0  0
    3.3784   -3.6985   18.6818 C   0  0  0  0  0  0
    4.0380   -5.5786   20.6380 C   0  0  0  0  0  0
    4.3958   -4.2168   20.8535 C   0  0  0  0  0  0
    4.0380   -3.2712   19.8430 C   0  0  0  0  0  0
    4.5926   -1.6547   20.2365 S   0  0  0  0  0  0
    5.2476   -2.2226   21.7660 C   0  0  0  0  0  0
    5.0813   -3.5824   21.9265 C   0  0  0  0  0  0
    4.2718   -6.5683   21.5785 O   0  0  0  0  0  0
    5.4698   -6.6591   22.2551 C   0  0  0  0  0  0
    5.4371   -6.8537   23.6356 C   0  0  0  0  0  0
    6.6236   -6.8817   24.3641 C   0  0  0  0  0  0
    7.8442   -6.7402   23.7071 C   0  0  0  0  0  0
    7.8902   -6.5940   22.3227 C   0  0  0  0  0  0
    6.7008   -6.5624   21.5977 C   0  0  0  0  0  0
    9.6234   -6.7424   24.8069 I   0  0  0  0  0  0
    5.8331   -1.2955   22.7364 C   0  0  0  0  0  0
    6.1429   -1.5884   24.0076 N   0  0  0  0  0  0
    6.4379   -0.4098   24.6559 C   0  0  0  0  0  0
    6.4272    0.4982   23.6940 O   0  0  0  0  0  0
    6.0380   -0.0761   22.4853 N   0  0  0  0  0  0
    6.6464   -0.1680   25.8379 O   0  0  0  0  0  0
    3.1682   -6.9327   19.2119 H   0  0  0  0  0  0
    3.1154   -3.0115   17.8883 H   0  0  0  0  0  0
    5.4295   -4.1192   22.7939 H   0  0  0  0  0  0
    4.4902   -6.9566   24.1446 H   0  0  0  0  0  0
    6.5990   -7.0007   25.4378 H   0  0  0  0  0  0
    8.8448   -6.4975   21.8228 H   0  0  0  0  0  0
    6.7277   -6.4540   20.5274 H   0  0  0  0  0  0
    6.0903   -2.4838   24.4665 H   0  0  0  0  0  0
  1  2  2  0  0  0
  1  4  1  0  0  0
  1 24  1  0  0  0
  2  3  1  0  0  0
  3  6  2  0  0  0
  3 25  1  0  0  0
  4  5  2  0  0  0
  4 10  1  0  0  0
  5  9  1  0  0  0
  5  6  1  0  0  0
  6  7  1  0  0  0
  7  8  1  0  0  0
  8  9  2  0  0  0
  8 18  1  0  0  0
  9 26  1  0  0  0
 10 11  1  0  0  0
 11 12  2  0  0  0
 11 16  1  0  0  0
 12 13  1  0  0  0
 12 27  1  0  0  0
 13 14  2  0  0  0
 13 28  1  0  0  0
 14 15  1  0  0  0
 14 17  1  0  0  0
 15 16  2  0  0  0
 15 29  1  0  0  0
 16 30  1  0  0  0
 18 19  1  0  0  0
 18 22  2  0  0  0
 19 31  1  0  0  0
 19 20  1  0  0  0
 20 23  2  0  0  0
 20 21  1  0  0  0
 21 22  1  0  0  0
M  END
> <s_m_entry_id>
5805

> <s_m_entry_name>
dock_pv.200

> <s_m_Source_Path>
/home/csk/Desktop/cluster/DUD-E-result/igf1r

> <s_m_Source_File>
dock_pv.maegz

> <i_m_Source_File_Index>
200

> <chembl_id>
CHEMBL497151

> <chembl_pref_name>
None

> <i_lp_mmshare_version>
53161

> <r_lp_tautomer_probability>
0.999999645980111

> <s_lp_Force_Field>
OPLS_2005

> <r_lp_Energy>
12.266286

> <b_lp_Chiralities_Consistent>
1

> <s_lp_Variant>
CHEMBL1957_lig3105-1

> <s_i_glide_gridfile>
glide-grid_2oj9

> <i_i_glide_lignum>
4319

> <i_i_glide_rotatable_bonds>
3

> <r_i_docking_score>
-7.13227469302965

> <r_i_glide_ligand_efficiency>
-0.310098899696941

> <r_i_glide_ligand_efficiency_sa>
-0.881880020414725

> <r_i_glide_ligand_efficiency_ln>
-1.72464869266591

> <r_i_glide_gscore>
-7.13227469302965

> <r_i_glide_lipo>
-3.20096671096499

> <r_i_glide_hbond>
-0.296148742319836

> <r_i_glide_metal>
0

> <r_i_glide_rewards>
-1.68958326905382

> <r_i_glide_evdw>
-34.318675994873

> <r_i_glide_ecoul>
-3.33276677131653

> <r_i_glide_erotb>
0.312930675179659

> <r_i_glide_esite>
-0.0426578304295385

> <r_i_glide_emodel>
-53.6409716896468

> <r_i_glide_energy>
-37.6514427661896

> <r_i_glide_einternal>
3.16632270812988

> <i_i_glide_confnum>
2

> <i_i_glide_posenum>
278

> <r_i_glide_eff_state_penalty>
0

> <s_user_duplicate_titles>
CHEMBL1957_lig3105

> <i_f3d_flags>
0

> <s_m_subgroup_title>
dock_pv

> <s_m_subgroupid>
dock_pv

> <b_m_subgroup_collapsed>
1

$$$$
CHEMBL1957_lig2860
                    3D
 Schrodinger Suite 2021-1.
 26 28  0  0  1  0            999 V2000
    3.2379   -4.3590   19.1340 Cl  0  0  0  0  0  0
    4.9058   -0.4494   19.6922 S   0  0  0  0  0  0
    7.2248   -7.7680   25.0418 O   0  0  0  0  0  0
    6.3751   -1.2077   21.8546 N   0  0  0  0  0  0
    5.0086   -5.1798   21.5629 N   0  0  0  0  0  0
    6.3358   -3.5049   22.6341 N   0  0  0  0  0  0
    4.9508   -2.8746   20.7589 C   0  0  0  0  0  0
    5.4994   -1.5645   20.9120 C   0  0  0  0  0  0
    5.4301   -3.8423   21.6755 C   0  0  0  0  0  0
    4.0375   -2.9259   19.6539 C   0  0  0  0  0  0
    3.9045   -1.7088   19.0213 C   0  0  0  0  0  0
    5.4462   -6.3825   22.1389 C   0  0  0  0  0  0
    6.7517   -2.2179   22.6761 C   0  0  0  0  0  0
    6.1024   -6.4594   23.3730 C   0  0  0  0  0  0
    5.2071   -7.5548   21.4166 C   0  0  0  0  0  0
    6.5511   -7.6901   23.8522 C   0  0  0  0  0  0
    5.6390   -8.7866   21.9041 C   0  0  0  0  0  0
    6.3161   -8.8546   23.1210 C   0  0  0  0  0  0
    7.2795   -6.9379   25.5283 H   0  0  0  0  0  0
    4.3949   -5.3237   20.7740 H   0  0  0  0  0  0
    3.2960   -1.4980   18.1542 H   0  0  0  0  0  0
    7.4789   -1.9745   23.4356 H   0  0  0  0  0  0
    6.2720   -5.5781   23.9687 H   0  0  0  0  0  0
    4.6961   -7.5197   20.4625 H   0  0  0  0  0  0
    5.4559   -9.6901   21.3386 H   0  0  0  0  0  0
    6.6537   -9.8088   23.4993 H   0  0  0  0  0  0
  1 10  1  0  0  0
  2  8  1  0  0  0
  2 11  1  0  0  0
  3 16  1  0  0  0
  3 19  1  0  0  0
  4  8  1  0  0  0
  4 13  2  0  0  0
  5  9  1  0  0  0
  5 12  1  0  0  0
  5 20  1  0  0  0
  6  9  2  0  0  0
  6 13  1  0  0  0
  7  8  2  0  0  0
  7  9  1  0  0  0
  7 10  1  0  0  0
 10 11  2  0  0  0
 11 21  1  0  0  0
 12 14  2  0  0  0
 12 15  1  0  0  0
 13 22  1  0  0  0
 14 16  1  0  0  0
 14 23  1  0  0  0
 15 17  2  0  0  0
 15 24  1  0  0  0
 16 18  2  0  0  0
 17 18  1  0  0  0
 17 25  1  0  0  0
 18 26  1  0  0  0
M  END
> <s_m_entry_id>
5806

> <s_m_entry_name>
dock_pv.201

> <s_m_Source_Path>
/home/csk/Desktop/cluster/DUD-E-result/igf1r

> <s_m_Source_File>
dock_pv.maegz

> <i_m_Source_File_Index>
201

> <chembl_id>
CHEMBL1982992

> <chembl_pref_name>
None

> <i_lp_mmshare_version>
53161

> <r_lp_tautomer_probability>
1

> <s_lp_Force_Field>
OPLS_2005

> <r_lp_Energy>
14.032649

> <b_lp_Chiralities_Consistent>
1

> <s_lp_Variant>
CHEMBL1957_lig2860-1

> <s_i_glide_gridfile>
glide-grid_2oj9

> <i_i_glide_lignum>
3958

> <i_i_glide_rotatable_bonds>
3

> <r_i_docking_score>
-7.13033724903772

> <r_i_glide_ligand_efficiency>
-0.396129847168762

> <r_i_glide_ligand_efficiency_sa>
-1.0381538869566

> <r_i_glide_ligand_efficiency_ln>
-1.83281642289468

> <r_i_glide_gscore>
-7.13033724903772

> <r_i_glide_lipo>
-3.06723481102676

> <r_i_glide_hbond>
-0.246850873636067

> <r_i_glide_metal>
0

> <r_i_glide_rewards>
-2.14768899950618

> <r_i_glide_evdw>
-32.6217346191406

> <r_i_glide_ecoul>
-3.36370706558228

> <r_i_glide_erotb>
0.467080225925661

> <r_i_glide_esite>
0

> <r_i_glide_emodel>
-51.1463467288757

> <r_i_glide_energy>
-35.9854416847229

> <r_i_glide_einternal>
0.65974897146225

> <i_i_glide_confnum>
4

> <i_i_glide_posenum>
338

> <r_i_glide_eff_state_penalty>
0

> <s_user_duplicate_titles>
CHEMBL1957_lig2860

> <i_f3d_flags>
0

> <s_m_subgroup_title>
dock_pv

> <s_m_subgroupid>
dock_pv

> <b_m_subgroup_collapsed>
1

$$$$
CHEMBL1957_lig571
                    3D
 Schrodinger Suite 2021-1.
 46 50  0  0  1  0            999 V2000
    6.6898   -7.6293   22.6644 N   0  0  0  0  0  0
    6.3697   -6.3198   22.7585 C   0  0  0  0  0  0
    5.3626   -5.7021   22.0838 N   0  0  0  0  0  0
    4.6370   -6.4333   21.1951 C   0  0  0  0  0  0
    5.9290   -8.3166   21.8202 N   0  0  0  0  0  0
    4.8955   -7.8042   21.0133 C   0  0  0  0  0  0
    4.4382   -8.8763   20.2051 C   0  0  0  0  0  0
    5.1292  -10.0125   20.6096 C   0  0  0  0  0  0
    6.0470   -9.6605   21.5854 C   0  0  0  0  0  0
    3.6691   -5.8185   20.3759 N   0  0  0  0  0  0
    3.6380   -4.5008   19.9872 C   0  0  0  0  0  0
    4.0536   -3.3429   20.6592 C   0  0  0  0  0  0
    3.9798   -2.3003   19.7566 C   0  0  0  0  0  0
    3.4327   -2.8832   18.6447 N   0  0  0  0  0  0
    3.2379   -4.2017   18.7721 N   0  0  0  0  0  0
    4.4047   -0.8542   19.8379 C   0  0  0  0  0  0
    5.7890   -0.5298   20.3098 C   0  0  0  0  0  0
    5.3852   -0.2494   18.8717 C   0  0  0  0  0  0
    7.1625   -5.5562   23.6339 N   0  0  0  0  0  0
    6.8551   -4.1773   24.0440 C   0  0  0  0  0  0
    8.1800   -3.4216   24.1148 C   0  0  0  0  0  0
    9.1607   -4.4891   24.5483 C   0  0  0  0  0  0
    8.6309   -5.7162   23.7949 C   0  0  1  0  0  0
    9.1023   -7.0221   24.4960 C   0  0  0  0  0  0
   10.3408   -7.4459   24.2380 N   0  0  0  0  0  0
    8.3873   -7.6541   25.2703 O   0  0  0  0  0  0
    9.0798   -5.7556   22.7994 H   0  0  0  0  0  0
    3.6781   -8.8527   19.4377 H   0  0  0  0  0  0
    4.9891  -11.0124   20.2254 H   0  0  0  0  0  0
    6.7670  -10.2595   22.1223 H   0  0  0  0  0  0
    3.1898   -6.4907   19.7992 H   0  0  0  0  0  0
    4.4422   -3.2863   21.6640 H   0  0  0  0  0  0
    3.2342   -2.3986   17.7807 H   0  0  0  0  0  0
    3.6380   -0.1933   20.2194 H   0  0  0  0  0  0
    5.9450    0.3134   20.9825 H   0  0  0  0  0  0
    6.4381   -1.3730   20.5395 H   0  0  0  0  0  0
    5.8054   -0.8539   18.0701 H   0  0  0  0  0  0
    5.2387    0.7866   18.5663 H   0  0  0  0  0  0
    6.4048   -4.1690   25.0376 H   0  0  0  0  0  0
    6.2572   -3.6452   23.3030 H   0  0  0  0  0  0
    8.1461   -2.5842   24.8133 H   0  0  0  0  0  0
    8.4383   -3.0061   23.1382 H   0  0  0  0  0  0
    9.1387   -4.6180   25.6335 H   0  0  0  0  0  0
   10.1745   -4.2261   24.2432 H   0  0  0  0  0  0
   10.6638   -8.2847   24.6930 H   0  0  0  0  0  0
   10.9127   -7.0214   23.5145 H   0  0  0  0  0  0
  1  5  1  0  0  0
  1  2  2  0  0  0
  2  3  1  0  0  0
  2 19  1  0  0  0
  3  4  2  0  0  0
  4 10  1  0  0  0
  4  6  1  0  0  0
  5  9  1  0  0  0
  5  6  1  0  0  0
  6  7  2  0  0  0
  7  8  1  0  0  0
  7 28  1  0  0  0
  8  9  2  0  0  0
  8 29  1  0  0  0
  9 30  1  0  0  0
 10 11  1  0  0  0
 10 31  1  0  0  0
 11 15  2  0  0  0
 11 12  1  0  0  0
 12 13  2  0  0  0
 12 32  1  0  0  0
 13 14  1  0  0  0
 13 16  1  0  0  0
 14 15  1  0  0  0
 14 33  1  0  0  0
 16 17  1  0  0  0
 16 18  1  0  0  0
 16 34  1  0  0  0
 17 18  1  0  0  0
 17 35  1  0  0  0
 17 36  1  0  0  0
 18 37  1  0  0  0
 18 38  1  0  0  0
 19 20  1  0  0  0
 19 23  1  0  0  0
 20 21  1  0  0  0
 20 39  1  0  0  0
 20 40  1  0  0  0
 21 22  1  0  0  0
 21 41  1  0  0  0
 21 42  1  0  0  0
 22 23  1  0  0  0
 22 43  1  0  0  0
 22 44  1  0  0  0
 23 24  1  0  0  0
 23 27  1  0  0  0
 24 25  1  0  0  0
 24 26  2  0  0  0
 25 45  1  0  0  0
 25 46  1  0  0  0
M  END
> <s_m_entry_id>
5807

> <s_m_entry_name>
dock_pv.202

> <s_m_Source_Path>
/home/csk/Desktop/cluster/DUD-E-result/igf1r

> <s_m_Source_File>
dock_pv.maegz

> <i_m_Source_File_Index>
202

> <chembl_id>
CHEMBL575888

> <chembl_pref_name>
None

> <i_lp_mmshare_version>
53161

> <r_lp_tautomer_probability>
0.842599999161192

> <s_lp_Force_Field>
OPLS_2005

> <r_lp_Energy>
41.581148

> <b_lp_Chiralities_Consistent>
1

> <s_lp_Variant>
CHEMBL1957_lig571-1

> <s_i_glide_gridfile>
glide-grid_2oj9

> <i_i_glide_lignum>
769

> <i_i_glide_rotatable_bonds>
5

> <r_i_docking_score>
-7.12683880457675

> <r_i_glide_ligand_efficiency>
-0.274109184791413

> <r_i_glide_ligand_efficiency_sa>
-0.812047381377002

> <r_i_glide_ligand_efficiency_ln>
-1.67371470818936

> <r_i_glide_gscore>
-7.12683880457675

> <r_i_glide_lipo>
-3.03480420051988

> <r_i_glide_hbond>
-0.149639717254503

> <r_i_glide_metal>
0

> <r_i_glide_rewards>
-1.88427093591111

> <r_i_glide_evdw>
-44.7626647949219

> <r_i_glide_ecoul>
-2.50311899185181

> <r_i_glide_erotb>
0.614725730538085

> <r_i_glide_esite>
-0.0592485929054722

> <r_i_glide_emodel>
-62.659715789257

> <r_i_glide_energy>
-47.2657837867737

> <r_i_glide_einternal>
7.01098442077637

> <i_i_glide_confnum>
3

> <i_i_glide_posenum>
247

> <r_i_glide_eff_state_penalty>
0

> <s_user_duplicate_titles>
CHEMBL1957_lig571,CHEMBL1957_lig571,570943

> <i_f3d_flags>
0

> <s_m_subgroup_title>
dock_pv

> <s_m_subgroupid>
dock_pv

> <b_m_subgroup_collapsed>
1

$$$$
CHEMBL1957_lig68
                    3D
 Schrodinger Suite 2021-1.
 55 59  0  0  1  0            999 V2000
    5.6167   -3.0565   22.4387 C   0  0  0  0  0  0
    4.6976   -3.1391   21.3871 C   0  0  0  0  0  0
    4.2768   -4.3721   20.8770 C   0  0  0  0  0  0
    6.1767   -4.2083   23.0070 C   0  0  0  0  0  0
    5.7865   -5.4332   22.4691 C   0  0  0  0  0  0
    4.8380   -5.5378   21.4380 C   0  0  0  0  0  0
    4.6263   -6.8539   21.1113 N   0  0  0  0  0  0
    5.4681   -7.5630   21.8379 C   0  0  0  0  0  0
    6.1509   -6.7350   22.7044 N   0  0  0  0  0  0
    5.7173   -9.0348   21.7004 C   0  0  0  0  0  0
    6.3974   -9.7748   22.6397 C   0  0  0  0  0  0
    6.7485  -11.1617   22.3403 C   0  0  0  0  0  0
    6.3919  -11.6636   21.1495 C   0  0  0  0  0  0
    5.6765  -10.9570   20.2380 N   0  0  0  0  0  0
    5.2380   -9.6963   20.4645 C   0  0  0  0  0  0
    4.4380   -9.2539   19.6528 O   0  0  0  0  0  0
    5.9133   -1.8029   23.0074 N   0  0  0  0  0  0
    6.0995   -1.5276   24.3395 C   0  0  0  0  0  0
    6.3143   -0.2667   24.6169 N   0  0  0  0  0  0
    6.2681    0.3259   23.4411 C   0  0  0  0  0  0
    6.0380   -0.5751   22.4075 C   0  0  0  0  0  0
    3.2380   -4.4104   19.7693 C   0  0  0  0  0  0
    6.7959   -9.2357   23.8381 N   0  0  0  0  0  0
    7.9127   -9.6169   24.7048 C   0  0  0  0  0  0
    9.2994   -9.1114   24.2377 C   0  0  2  0  0  0
    9.2946   -7.6077   23.9586 C   0  0  0  0  0  0
    9.2380   -7.1107   22.6498 C   0  0  0  0  0  0
    9.2380   -5.7375   22.4116 C   0  0  0  0  0  0
    9.2742   -4.8521   23.4841 C   0  0  0  0  0  0
    9.2834   -5.3313   24.7898 C   0  0  0  0  0  0
    9.3010   -6.7052   25.0280 C   0  0  0  0  0  0
    9.7626   -9.8940   23.1479 O   0  0  0  0  0  0
    9.2380   -4.4541   25.8380 O   0  0  0  0  0  0
    4.2691   -2.2324   20.9844 H   0  0  0  0  0  0
    6.8637   -4.1518   23.8355 H   0  0  0  0  0  0
    6.8798   -7.0780   23.3153 H   0  0  0  0  0  0
    7.2894  -11.7686   23.0484 H   0  0  0  0  0  0
    6.5819  -12.6801   20.8316 H   0  0  0  0  0  0
    5.3127  -11.3705   19.3833 H   0  0  0  0  0  0
    6.0457   -2.3412   25.0383 H   0  0  0  0  0  0
    6.4383    1.3875   23.3386 H   0  0  0  0  0  0
    5.9622   -0.4611   21.3353 H   0  0  0  0  0  0
    2.8021   -3.4303   19.5742 H   0  0  0  0  0  0
    3.6603   -4.7927   18.8409 H   0  0  0  0  0  0
    2.4380   -5.0926   20.0554 H   0  0  0  0  0  0
    6.1890   -8.5370   24.2388 H   0  0  0  0  0  0
    7.9316  -10.6975   24.8498 H   0  0  0  0  0  0
    7.7081   -9.1948   25.6897 H   0  0  0  0  0  0
   10.0125   -9.2938   25.0436 H   0  0  0  0  0  0
    9.2049   -7.7884   21.8106 H   0  0  0  0  0  0
    9.2077   -5.3607   21.4001 H   0  0  0  0  0  0
    9.2381   -3.7880   23.3017 H   0  0  0  0  0  0
    9.3104   -7.0702   26.0449 H   0  0  0  0  0  0
   10.6708   -9.6367   22.9568 H   0  0  0  0  0  0
    8.9283   -4.8972   26.6378 H   0  0  0  0  0  0
  1  4  1  0  0  0
  1 17  1  0  0  0
  1  2  2  0  0  0
  2  3  1  0  0  0
  2 34  1  0  0  0
  3 22  1  0  0  0
  3  6  2  0  0  0
  4  5  2  0  0  0
  4 35  1  0  0  0
  5  9  1  0  0  0
  5  6  1  0  0  0
  6  7  1  0  0  0
  7  8  2  0  0  0
  8  9  1  0  0  0
  8 10  1  0  0  0
  9 36  1  0  0  0
 10 11  2  0  0  0
 10 15  1  0  0  0
 11 23  1  0  0  0
 11 12  1  0  0  0
 12 13  2  0  0  0
 12 37  1  0  0  0
 13 14  1  0  0  0
 13 38  1  0  0  0
 14 15  1  0  0  0
 14 39  1  0  0  0
 15 16  2  0  0  0
 17 18  1  0  0  0
 17 21  1  0  0  0
 18 19  2  0  0  0
 18 40  1  0  0  0
 19 20  1  0  0  0
 20 21  2  0  0  0
 20 41  1  0  0  0
 21 42  1  0  0  0
 22 43  1  0  0  0
 22 44  1  0  0  0
 22 45  1  0  0  0
 23 24  1  0  0  0
 23 46  1  0  0  0
 24 25  1  0  0  0
 24 47  1  0  0  0
 24 48  1  0  0  0
 25 26  1  0  0  0
 25 32  1  0  0  0
 25 49  1  0  0  0
 26 27  2  0  0  0
 26 31  1  0  0  0
 27 28  1  0  0  0
 27 50  1  0  0  0
 28 29  2  0  0  0
 28 51  1  0  0  0
 29 30  1  0  0  0
 29 52  1  0  0  0
 30 31  2  0  0  0
 30 33  1  0  0  0
 31 53  1  0  0  0
 32 54  1  0  0  0
 33 55  1  0  0  0
M  END
> <s_m_entry_id>
5808

> <s_m_entry_name>
dock_pv.203

> <s_m_Source_Path>
/home/csk/Desktop/cluster/DUD-E-result/igf1r

> <s_m_Source_File>
dock_pv.maegz

> <i_m_Source_File_Index>
203

> <chembl_id>
CHEMBL387610

> <chembl_pref_name>
None

> <i_lp_mmshare_version>
53161

> <r_lp_tautomer_probability>
0.999206294978796

> <s_lp_Force_Field>
OPLS_2005

> <r_lp_Energy>
40.090522

> <b_lp_Chiralities_Consistent>
1

> <s_lp_Variant>
CHEMBL1957_lig68-1

> <s_i_glide_gridfile>
glide-grid_2oj9

> <i_i_glide_lignum>
205

> <i_i_glide_rotatable_bonds>
8

> <r_i_docking_score>
-7.12310396431049

> <r_i_glide_ligand_efficiency>
-0.215851635282136

> <r_i_glide_ligand_efficiency_sa>
-0.692351529546253

> <r_i_glide_ligand_efficiency_ln>
-1.58414144020418

> <r_i_glide_gscore>
-7.12310396431049

> <r_i_glide_lipo>
-2.4530824322889

> <r_i_glide_hbond>
-0.579207795897636

> <r_i_glide_metal>
0

> <r_i_glide_rewards>
-1.40041840105628

> <r_i_glide_evdw>
-41.3585205078125

> <r_i_glide_ecoul>
-8.23267650604248

> <r_i_glide_erotb>
0.612432166229318

> <r_i_glide_esite>
0

> <r_i_glide_emodel>
-69.3639096559872

> <r_i_glide_energy>
-49.591197013855

> <r_i_glide_einternal>
3.7535560131073

> <i_i_glide_confnum>
12

> <i_i_glide_posenum>
89

> <r_i_glide_eff_state_penalty>
0

> <s_user_duplicate_titles>
CHEMBL1957_lig68,383647

> <i_f3d_flags>
0

> <s_m_subgroup_title>
dock_pv

> <s_m_subgroupid>
dock_pv

> <b_m_subgroup_collapsed>
1

$$$$
CHEMBL1957_lig3060
                    3D
 Schrodinger Suite 2021-1.
 41 43  0  0  1  0            999 V2000
    8.1030   -9.6211   25.0603 S   0  0  0  0  0  0
    7.2439  -10.1743   24.0086 O   0  0  0  0  0  0
    8.0392  -10.1298   26.4340 O   0  0  0  0  0  0
    3.1314   -2.4573   18.4457 N   0  0  0  0  0  0
    3.6997   -1.2541   18.6411 N   0  0  0  0  0  0
    7.7597   -7.8900   25.1856 N   0  0  0  0  0  0
    5.2437   -0.3262   20.1435 N   0  0  0  0  0  0
    4.4374   -2.6825   20.2381 C   0  0  0  0  0  0
    3.5397   -3.3762   19.3917 C   0  0  0  0  0  0
    4.8381   -4.7554   21.4380 C   0  0  0  0  0  0
    4.4679   -1.3573   19.6935 C   0  0  0  0  0  0
    5.0663   -3.3766   21.2874 C   0  0  0  0  0  0
    5.6117   -5.5701   22.4232 C   0  0  0  0  0  0
    3.2380   -4.7262   19.5729 C   0  0  0  0  0  0
    3.9045   -5.3872   20.6040 C   0  0  0  0  0  0
    7.0726   -7.1633   24.2105 C   0  0  0  0  0  0
    6.9280   -5.2327   22.7730 C   0  0  0  0  0  0
    5.0487   -6.7246   22.9819 C   0  0  0  0  0  0
    7.6492   -6.0150   23.6729 C   0  0  0  0  0  0
    5.7785   -7.5268   23.8448 C   0  0  0  0  0  0
    9.9101   -9.6724   24.5012 C   0  0  0  0  0  0
   10.1945   -8.8538   23.2290 C   0  0  0  0  0  0
    9.5545   -9.3922   21.9451 C   0  0  0  0  0  0
    2.5123   -2.6097   17.6581 H   0  0  0  0  0  0
    7.8241   -7.4707   26.1045 H   0  0  0  0  0  0
    6.1710   -0.5257   20.4896 H   0  0  0  0  0  0
    5.1935    0.5594   19.6559 H   0  0  0  0  0  0
    5.7652   -2.8592   21.9268 H   0  0  0  0  0  0
    2.5629   -5.2558   18.9186 H   0  0  0  0  0  0
    3.7230   -6.4475   20.6970 H   0  0  0  0  0  0
    7.4063   -4.3617   22.3505 H   0  0  0  0  0  0
    4.0360   -7.0192   22.7537 H   0  0  0  0  0  0
    8.6507   -5.7229   23.9554 H   0  0  0  0  0  0
    5.3171   -8.4187   24.2393 H   0  0  0  0  0  0
   10.1777  -10.7205   24.3720 H   0  0  0  0  0  0
   10.4965   -9.2822   25.3321 H   0  0  0  0  0  0
   11.2723   -8.8540   23.0772 H   0  0  0  0  0  0
    9.9257   -7.8075   23.3730 H   0  0  0  0  0  0
    9.9717   -8.8770   21.0799 H   0  0  0  0  0  0
    8.4756   -9.2385   21.9343 H   0  0  0  0  0  0
    9.7516  -10.4573   21.8178 H   0  0  0  0  0  0
  1  2  2  0  0  0
  1  3  2  0  0  0
  1  6  1  0  0  0
  1 21  1  0  0  0
  4  5  1  0  0  0
  4  9  1  0  0  0
  4 24  1  0  0  0
  5 11  2  0  0  0
  6 16  1  0  0  0
  6 25  1  0  0  0
  7 11  1  0  0  0
  7 26  1  0  0  0
  7 27  1  0  0  0
  8  9  1  0  0  0
  8 11  1  0  0  0
  8 12  2  0  0  0
  9 14  2  0  0  0
 10 12  1  0  0  0
 10 13  1  0  0  0
 10 15  2  0  0  0
 12 28  1  0  0  0
 13 17  2  0  0  0
 13 18  1  0  0  0
 14 15  1  0  0  0
 14 29  1  0  0  0
 15 30  1  0  0  0
 16 19  2  0  0  0
 16 20  1  0  0  0
 17 19  1  0  0  0
 17 31  1  0  0  0
 18 20  2  0  0  0
 18 32  1  0  0  0
 19 33  1  0  0  0
 20 34  1  0  0  0
 21 22  1  0  0  0
 21 35  1  0  0  0
 21 36  1  0  0  0
 22 23  1  0  0  0
 22 37  1  0  0  0
 22 38  1  0  0  0
 23 39  1  0  0  0
 23 40  1  0  0  0
 23 41  1  0  0  0
M  END
> <s_m_entry_id>
5809

> <s_m_entry_name>
dock_pv.204

> <s_m_Source_Path>
/home/csk/Desktop/cluster/DUD-E-result/igf1r

> <s_m_Source_File>
dock_pv.maegz

> <i_m_Source_File_Index>
204

> <chembl_id>
CHEMBL1992342

> <chembl_pref_name>
None

> <i_lp_mmshare_version>
53161

> <r_lp_tautomer_probability>
1

> <s_lp_Force_Field>
OPLS_2005

> <r_lp_Energy>
5.873344

> <b_lp_Chiralities_Consistent>
1

> <s_lp_Variant>
CHEMBL1957_lig3060-1

> <s_i_glide_gridfile>
glide-grid_2oj9

> <i_i_glide_lignum>
4245

> <i_i_glide_rotatable_bonds>
5

> <r_i_docking_score>
-7.12155283281117

> <r_i_glide_ligand_efficiency>
-0.309632731861355

> <r_i_glide_ligand_efficiency_sa>
-0.880554301101418

> <r_i_glide_ligand_efficiency_ln>
-1.72205604964463

> <r_i_glide_gscore>
-7.12155283281117

> <r_i_glide_lipo>
-2.68032537166589

> <r_i_glide_hbond>
-0.465864161972178

> <r_i_glide_metal>
0

> <r_i_glide_rewards>
-2.22334465368813

> <r_i_glide_evdw>
-35.1529273986816

> <r_i_glide_ecoul>
-4.54540824890137

> <r_i_glide_erotb>
0.68912893295598

> <r_i_glide_esite>
-0.00168997117166834

> <r_i_glide_emodel>
-53.7590394508692

> <r_i_glide_energy>
-39.698335647583

> <r_i_glide_einternal>
5.28715658187866

> <i_i_glide_confnum>
25

> <i_i_glide_posenum>
323

> <r_i_glide_eff_state_penalty>
0

> <s_user_duplicate_titles>
CHEMBL1957_lig3060

> <i_f3d_flags>
0

> <s_m_subgroup_title>
dock_pv

> <s_m_subgroupid>
dock_pv

> <b_m_subgroup_collapsed>
1

$$$$
CHEMBL1957_lig2161
                    3D
 Schrodinger Suite 2021-1.
 43 47  0  0  1  0            999 V2000
    9.4313   -4.9604   25.3201 C   0  0  0  0  0  0
    8.5690   -5.8806   24.5943 N   0  0  0  0  0  0
    8.7203   -7.1936   24.8026 N   0  0  0  0  0  0
    7.8567   -7.7572   23.9975 C   0  0  0  0  0  0
    7.6142   -9.2540   23.8900 C   0  0  0  0  0  0
    7.2180   -9.6000   22.4323 C   0  0  0  0  0  0
    6.1841   -8.6375   21.8372 C   0  0  0  0  0  0
    5.2385   -9.0303   20.8859 C   0  0  0  0  0  0
    4.4039   -8.1569   20.2726 N   0  0  0  0  0  0
    4.4869   -6.8555   20.6426 C   0  0  0  0  0  0
    3.6380   -5.9991   19.9250 N   0  0  0  0  0  0
    3.6355   -4.6051   19.7450 C   0  0  0  0  0  0
    3.2379   -4.1202   18.4967 C   0  0  0  0  0  0
    3.2379   -2.7525   18.2384 C   0  0  0  0  0  0
    3.6384   -1.8642   19.2303 C   0  0  0  0  0  0
    4.0384   -2.3376   20.4752 C   0  0  0  0  0  0
    4.0388   -3.7034   20.7316 C   0  0  0  0  0  0
    5.3505   -6.3697   21.5748 N   0  0  0  0  0  0
    6.1862   -7.2678   22.1661 C   0  0  0  0  0  0
    7.1653   -6.8282   23.2030 C   0  0  0  0  0  0
    7.6205   -5.5826   23.6388 C   0  0  0  0  0  0
    7.3108   -4.2220   23.2374 C   0  0  0  0  0  0
    7.0760   -3.3209   24.2309 O   0  0  0  0  0  0
    6.8377   -2.1210   23.6447 C   0  0  0  0  0  0
    6.9021   -2.2474   22.2700 C   0  0  0  0  0  0
    7.1947   -3.5874   22.0102 C   0  0  0  0  0  0
   10.0662   -4.4379   24.6061 H   0  0  0  0  0  0
    8.8323   -4.2305   25.8564 H   0  0  0  0  0  0
   10.0379   -5.4960   26.0492 H   0  0  0  0  0  0
    6.8378   -9.5652   24.5852 H   0  0  0  0  0  0
    8.5051   -9.8131   24.1793 H   0  0  0  0  0  0
    6.8608  -10.6296   22.3784 H   0  0  0  0  0  0
    8.1164   -9.5626   21.8147 H   0  0  0  0  0  0
    5.1719  -10.0592   20.5605 H   0  0  0  0  0  0
    3.1126   -6.5052   19.2301 H   0  0  0  0  0  0
    2.9354   -4.7970   17.7126 H   0  0  0  0  0  0
    2.9343   -2.3826   17.2704 H   0  0  0  0  0  0
    3.6498   -0.8037   19.0263 H   0  0  0  0  0  0
    4.3656   -1.6540   21.2406 H   0  0  0  0  0  0
    4.3667   -4.0468   21.7005 H   0  0  0  0  0  0
    6.6517   -1.2910   24.3100 H   0  0  0  0  0  0
    6.7633   -1.4646   21.5393 H   0  0  0  0  0  0
    7.3214   -4.0450   21.0397 H   0  0  0  0  0  0
  1  2  1  0  0  0
  1 27  1  0  0  0
  1 28  1  0  0  0
  1 29  1  0  0  0
  2  3  1  0  0  0
  2 21  1  0  0  0
  3  4  2  0  0  0
  4  5  1  0  0  0
  4 20  1  0  0  0
  5  6  1  0  0  0
  5 30  1  0  0  0
  5 31  1  0  0  0
  6  7  1  0  0  0
  6 32  1  0  0  0
  6 33  1  0  0  0
  7  8  2  0  0  0
  7 19  1  0  0  0
  8  9  1  0  0  0
  8 34  1  0  0  0
  9 10  2  0  0  0
 10 11  1  0  0  0
 10 18  1  0  0  0
 11 12  1  0  0  0
 11 35  1  0  0  0
 12 13  2  0  0  0
 12 17  1  0  0  0
 13 14  1  0  0  0
 13 36  1  0  0  0
 14 15  2  0  0  0
 14 37  1  0  0  0
 15 16  1  0  0  0
 15 38  1  0  0  0
 16 17  2  0  0  0
 16 39  1  0  0  0
 17 40  1  0  0  0
 18 19  2  0  0  0
 19 20  1  0  0  0
 20 21  2  0  0  0
 21 22  1  0  0  0
 22 23  1  0  0  0
 22 26  2  0  0  0
 23 24  1  0  0  0
 24 25  2  0  0  0
 24 41  1  0  0  0
 25 26  1  0  0  0
 25 42  1  0  0  0
 26 43  1  0  0  0
M  END
> <s_m_entry_id>
5810

> <s_m_entry_name>
dock_pv.205

> <s_m_Source_Path>
/home/csk/Desktop/cluster/DUD-E-result/igf1r

> <s_m_Source_File>
dock_pv.maegz

> <i_m_Source_File_Index>
205

> <chembl_id>
CHEMBL3656604

> <chembl_pref_name>
None

> <i_lp_mmshare_version>
53161

> <r_lp_tautomer_probability>
0.999999987636

> <s_lp_Force_Field>
OPLS_2005

> <r_lp_Energy>
9.922039

> <b_lp_Chiralities_Consistent>
1

> <s_lp_Variant>
CHEMBL1957_lig2161-1

> <s_i_glide_gridfile>
glide-grid_2oj9

> <i_i_glide_lignum>
3135

> <i_i_glide_rotatable_bonds>
3

> <r_i_docking_score>
-7.11976478647242

> <r_i_glide_ligand_efficiency>
-0.273837107172016

> <r_i_glide_ligand_efficiency_sa>
-0.811241352500112

> <r_i_glide_ligand_efficiency_ln>
-1.67205339824931

> <r_i_glide_gscore>
-7.11976478647242

> <r_i_glide_lipo>
-3.76528426578139

> <r_i_glide_hbond>
0

> <r_i_glide_metal>
0

> <r_i_glide_rewards>
-1.80919059490421

> <r_i_glide_evdw>
-40.5054550170898

> <r_i_glide_ecoul>
0.0446608513593674

> <r_i_glide_erotb>
0.482760829142613

> <r_i_glide_esite>
-0.00947713177885136

> <r_i_glide_emodel>
-56.8367457711126

> <r_i_glide_energy>
-40.4607941657305

> <r_i_glide_einternal>
2.57328844070435

> <i_i_glide_confnum>
12

> <i_i_glide_posenum>
236

> <r_i_glide_eff_state_penalty>
0

> <s_user_duplicate_titles>
CHEMBL1957_lig2161

> <i_f3d_flags>
0

> <s_m_subgroup_title>
dock_pv

> <s_m_subgroupid>
dock_pv

> <b_m_subgroup_collapsed>
1

$$$$
CHEMBL1957_lig3014
                    3D
 Schrodinger Suite 2021-1.
 36 38  0  0  1  0            999 V2000
    2.8382   -6.4542   18.6380 O   0  0  0  0  0  0
    7.7336   -2.0540   24.2102 N   0  0  0  0  0  0
    8.5024   -4.2973   24.6381 N   0  0  0  0  0  0
    7.4232   -6.0007   23.2816 N   0  0  0  0  0  0
    5.8701   -5.4644   21.5673 N   0  0  0  0  0  0
    6.8393   -3.6822   22.9279 C   0  0  0  0  0  0
    6.3072   -2.4015   22.4887 C   0  0  0  0  0  0
    7.7593   -3.4058   23.9798 C   0  0  0  0  0  0
    6.7175   -5.0548   22.6038 C   0  0  0  0  0  0
    5.3707   -2.0824   21.3764 C   0  0  0  0  0  0
    6.8381   -1.4641   23.3557 C   0  0  0  0  0  0
    8.2785   -5.5733   24.2397 C   0  0  0  0  0  0
    4.2291   -2.8528   21.1861 C   0  0  0  0  0  0
    5.6383   -1.0178   20.5105 C   0  0  0  0  0  0
    5.2916   -6.8058   21.5428 C   0  0  0  0  0  0
    3.3633   -2.5863   20.1276 C   0  0  0  0  0  0
    4.7932   -0.7617   19.4347 C   0  0  0  0  0  0
    3.6665   -1.5581   19.2403 C   0  0  0  0  0  0
    4.5387   -7.1241   20.2369 C   0  0  0  0  0  0
    3.5213   -6.0532   19.8018 C   0  0  0  0  0  0
    3.4655   -6.9565   18.1000 H   0  0  0  0  0  0
    8.3029   -1.5301   24.8628 H   0  0  0  0  0  0
    5.3278   -4.7284   21.1394 H   0  0  0  0  0  0
    6.6960   -0.3940   23.3956 H   0  0  0  0  0  0
    8.8364   -6.3388   24.7604 H   0  0  0  0  0  0
    4.0379   -3.6540   21.8760 H   0  0  0  0  0  0
    6.5165   -0.4049   20.6472 H   0  0  0  0  0  0
    4.6083   -6.8615   22.3924 H   0  0  0  0  0  0
    6.0647   -7.5542   21.7258 H   0  0  0  0  0  0
    2.4754   -3.1840   19.9786 H   0  0  0  0  0  0
    5.0197    0.0430   18.7495 H   0  0  0  0  0  0
    3.0166   -1.3680   18.3997 H   0  0  0  0  0  0
    4.0406   -8.0874   20.3534 H   0  0  0  0  0  0
    5.2672   -7.2556   19.4370 H   0  0  0  0  0  0
    4.0358   -5.1175   19.6026 H   0  0  0  0  0  0
    2.8171   -5.8247   20.6026 H   0  0  0  0  0  0
  1 20  1  0  0  0
  1 21  1  0  0  0
  2  8  1  0  0  0
  2 11  1  0  0  0
  2 22  1  0  0  0
  3  8  1  0  0  0
  3 12  2  0  0  0
  4  9  2  0  0  0
  4 12  1  0  0  0
  5  9  1  0  0  0
  5 15  1  0  0  0
  5 23  1  0  0  0
  6  7  1  0  0  0
  6  8  2  0  0  0
  6  9  1  0  0  0
  7 10  1  0  0  0
  7 11  2  0  0  0
 10 13  2  0  0  0
 10 14  1  0  0  0
 11 24  1  0  0  0
 12 25  1  0  0  0
 13 16  1  0  0  0
 13 26  1  0  0  0
 14 17  2  0  0  0
 14 27  1  0  0  0
 15 19  1  0  0  0
 15 28  1  0  0  0
 15 29  1  0  0  0
 16 18  2  0  0  0
 16 30  1  0  0  0
 17 18  1  0  0  0
 17 31  1  0  0  0
 18 32  1  0  0  0
 19 20  1  0  0  0
 19 33  1  0  0  0
 19 34  1  0  0  0
 20 35  1  0  0  0
 20 36  1  0  0  0
M  END
> <s_m_entry_id>
5811

> <s_m_entry_name>
dock_pv.206

> <s_m_Source_Path>
/home/csk/Desktop/cluster/DUD-E-result/igf1r

> <s_m_Source_File>
dock_pv.maegz

> <i_m_Source_File_Index>
206

> <chembl_id>
CHEMBL2000071

> <chembl_pref_name>
None

> <i_lp_mmshare_version>
53161

> <r_lp_tautomer_probability>
1

> <s_lp_Force_Field>
OPLS_2005

> <r_lp_Energy>
7.716651

> <b_lp_Chiralities_Consistent>
1

> <s_lp_Variant>
CHEMBL1957_lig3014-1

> <s_i_glide_gridfile>
glide-grid_2oj9

> <i_i_glide_lignum>
4180

> <i_i_glide_rotatable_bonds>
6

> <r_i_docking_score>
-7.11720568863822

> <r_i_glide_ligand_efficiency>
-0.355860284431911

> <r_i_glide_ligand_efficiency_sa>
-0.965953424143875

> <r_i_glide_ligand_efficiency_ln>
-1.78120184271201

> <r_i_glide_gscore>
-7.11720568863822

> <r_i_glide_lipo>
-2.86332055107551

> <r_i_glide_hbond>
-0.764852569669178

> <r_i_glide_metal>
0

> <r_i_glide_rewards>
-2.31858685609062

> <r_i_glide_evdw>
-33.2574310302734

> <r_i_glide_ecoul>
-4.98104095458984

> <r_i_glide_erotb>
1.23958198289923

> <r_i_glide_esite>
0

> <r_i_glide_emodel>
-50.7593188241694

> <r_i_glide_energy>
-38.2384719848633

> <r_i_glide_einternal>
6.37876033782959

> <i_i_glide_confnum>
277

> <i_i_glide_posenum>
212

> <r_i_glide_eff_state_penalty>
0

> <s_user_duplicate_titles>
CHEMBL1957_lig3014

> <i_f3d_flags>
0

> <s_m_subgroup_title>
dock_pv

> <s_m_subgroupid>
dock_pv

> <b_m_subgroup_collapsed>
1

$$$$
CHEMBL1957_lig2923
                    3D
 Schrodinger Suite 2021-1.
 39 42  0  0  1  0            999 V2000
    5.0951   -7.7582   22.5240 C   0  0  0  0  0  0
    5.7781   -6.4749   22.9440 C   0  0  0  0  0  0
    5.6843   -5.1338   22.5271 C   0  0  0  0  0  0
    6.5260   -4.4106   23.2560 N   0  0  0  0  0  0
    7.2065   -5.2255   24.1327 N   0  0  0  0  0  0
    6.7550   -6.4595   23.9188 N   0  0  0  0  0  0
    7.3015   -7.5718   24.6967 C   0  0  0  0  0  0
    8.0249   -8.6222   23.8607 C   0  0  0  0  0  0
    9.2179   -8.2945   23.2111 C   0  0  0  0  0  0
    9.8781   -9.2535   22.4477 C   0  0  0  0  0  0
    9.3436  -10.5335   22.3263 C   0  0  0  0  0  0
    8.1550  -10.8677   22.9707 C   0  0  0  0  0  0
    7.4993   -9.9139   23.7445 C   0  0  0  0  0  0
    4.8580   -4.4828   21.4380 C   0  0  0  0  0  0
    3.9613   -5.2118   20.6381 C   0  0  0  0  0  0
    3.2419   -4.6470   19.5822 C   0  0  0  0  0  0
    3.5130   -3.3098   19.2902 C   0  0  0  0  0  0
    3.0886   -2.4772   18.2735 N   0  0  0  0  0  0
    3.6383   -1.2536   18.3715 N   0  0  0  0  0  0
    4.3934   -1.2492   19.4369 C   0  0  0  0  0  0
    5.1203   -0.1613   19.8346 N   0  0  0  0  0  0
    4.3935   -2.5280   20.0749 C   0  0  0  0  0  0
    5.0392   -3.1147   21.1727 C   0  0  0  0  0  0
    4.0373   -7.6070   22.3598 H   0  0  0  0  0  0
    5.5238   -8.1673   21.6080 H   0  0  0  0  0  0
    5.1438   -8.5364   23.2857 H   0  0  0  0  0  0
    8.0024   -7.1835   25.4381 H   0  0  0  0  0  0
    6.4841   -8.0140   25.2640 H   0  0  0  0  0  0
    9.6395   -7.3023   23.2942 H   0  0  0  0  0  0
   10.8082   -9.0059   21.9574 H   0  0  0  0  0  0
    9.8596  -11.2744   21.7330 H   0  0  0  0  0  0
    7.7457  -11.8630   22.8743 H   0  0  0  0  0  0
    6.5775  -10.1840   24.2392 H   0  0  0  0  0  0
    3.8106   -6.2618   20.8072 H   0  0  0  0  0  0
    2.5769   -5.2436   18.9776 H   0  0  0  0  0  0
    2.4743   -2.7035   17.4994 H   0  0  0  0  0  0
    6.0544   -0.3065   20.1865 H   0  0  0  0  0  0
    5.0290    0.7014   19.3146 H   0  0  0  0  0  0
    5.7243   -2.5208   21.7575 H   0  0  0  0  0  0
  1  2  1  0  0  0
  1 24  1  0  0  0
  1 25  1  0  0  0
  1 26  1  0  0  0
  2  3  2  0  0  0
  2  6  1  0  0  0
  3  4  1  0  0  0
  3 14  1  0  0  0
  4  5  2  0  0  0
  5  6  1  0  0  0
  6  7  1  0  0  0
  7  8  1  0  0  0
  7 27  1  0  0  0
  7 28  1  0  0  0
  8  9  2  0  0  0
  8 13  1  0  0  0
  9 10  1  0  0  0
  9 29  1  0  0  0
 10 11  2  0  0  0
 10 30  1  0  0  0
 11 12  1  0  0  0
 11 31  1  0  0  0
 12 13  2  0  0  0
 12 32  1  0  0  0
 13 33  1  0  0  0
 14 15  2  0  0  0
 14 23  1  0  0  0
 15 16  1  0  0  0
 15 34  1  0  0  0
 16 17  2  0  0  0
 16 35  1  0  0  0
 17 18  1  0  0  0
 17 22  1  0  0  0
 18 19  1  0  0  0
 18 36  1  0  0  0
 19 20  2  0  0  0
 20 21  1  0  0  0
 20 22  1  0  0  0
 21 37  1  0  0  0
 21 38  1  0  0  0
 22 23  2  0  0  0
 23 39  1  0  0  0
M  END
> <s_m_entry_id>
5812

> <s_m_entry_name>
dock_pv.207

> <s_m_Source_Path>
/home/csk/Desktop/cluster/DUD-E-result/igf1r

> <s_m_Source_File>
dock_pv.maegz

> <i_m_Source_File_Index>
207

> <chembl_id>
CHEMBL1989646

> <chembl_pref_name>
None

> <i_lp_mmshare_version>
53161

> <r_lp_tautomer_probability>
1

> <s_lp_Force_Field>
OPLS_2005

> <r_lp_Energy>
13.663844

> <b_lp_Chiralities_Consistent>
1

> <s_lp_Variant>
CHEMBL1957_lig2923-1

> <s_i_glide_gridfile>
glide-grid_2oj9

> <i_i_glide_lignum>
4042

> <i_i_glide_rotatable_bonds>
3

> <r_i_docking_score>
-7.11375592415443

> <r_i_glide_ligand_efficiency>
-0.309293735832801

> <r_i_glide_ligand_efficiency_sa>
-0.87959024149052

> <r_i_glide_ligand_efficiency_ln>
-1.72017068643297

> <r_i_glide_gscore>
-7.11375592415443

> <r_i_glide_lipo>
-2.55187183238231

> <r_i_glide_hbond>
-0.291144394618583

> <r_i_glide_metal>
0

> <r_i_glide_rewards>
-2.50571935865991

> <r_i_glide_evdw>
-34.5208435058594

> <r_i_glide_ecoul>
-4.24154472351074

> <r_i_glide_erotb>
0.597253545325954

> <r_i_glide_esite>
0

> <r_i_glide_emodel>
-55.2026060783163

> <r_i_glide_energy>
-38.7623882293701

> <r_i_glide_einternal>
0.684882044792175

> <i_i_glide_confnum>
4

> <i_i_glide_posenum>
74

> <r_i_glide_eff_state_penalty>
0

> <s_user_duplicate_titles>
CHEMBL1957_lig2923

> <i_f3d_flags>
0

> <s_m_subgroup_title>
dock_pv

> <s_m_subgroupid>
dock_pv

> <b_m_subgroup_collapsed>
1

$$$$
CHEMBL1957_lig1396
                    3D
 Schrodinger Suite 2021-1.
 51 54  0  0  1  0            999 V2000
    6.1521   -9.0491   21.8375 C   0  0  0  0  0  0
    7.4240   -9.1732   22.4025 C   0  0  0  0  0  0
    8.2015   -8.0979   22.6893 N   0  0  0  0  0  0
    7.6764   -6.8767   22.4163 C   0  0  0  0  0  0
    6.4629   -6.6664   21.8473 N   0  0  0  0  0  0
    5.7085   -7.7548   21.5506 C   0  0  0  0  0  0
    4.4779   -7.5920   20.8992 N   0  0  0  0  0  0
    8.4418   -5.7778   22.8275 N   0  0  0  0  0  0
    4.0410   -6.4386   20.3040 C   0  0  0  0  0  0
    4.0382   -5.0947   20.6382 C   0  0  0  0  0  0
    3.4626   -4.4113   19.5556 C   0  0  0  0  0  0
    3.2379   -5.2444   18.5627 N   0  0  0  0  0  0
    3.5453   -6.4505   19.0384 N   0  0  0  0  0  0
    3.1395   -2.9439   19.3614 C   0  0  0  0  0  0
    4.1870   -1.8692   19.4955 C   0  0  0  0  0  0
    3.6360   -2.2322   18.1263 C   0  0  0  0  0  0
    8.0346   -4.4532   23.0609 C   0  0  0  0  0  0
    7.2167   -3.7512   22.1714 C   0  0  0  0  0  0
    8.0507   -2.5449   24.5373 C   0  0  0  0  0  0
    8.4619   -3.8375   24.2361 C   0  0  0  0  0  0
    7.1931   -1.8644   23.6763 C   0  0  0  0  0  0
    6.7849   -2.4650   22.4824 C   0  0  0  0  0  0
    6.7417   -0.4572   24.0256 C   0  0  0  0  0  0
    5.8118   -0.3866   25.2516 C   0  0  0  0  0  0
    5.4329    1.0280   25.7049 C   0  0  0  0  0  0
    5.9696    2.0688   25.0444 N   0  0  0  0  0  0
    4.6450    1.1467   26.6388 O   0  0  0  0  0  0
    5.7404    3.4833   25.2905 C   0  0  0  0  0  0
    5.5561   -9.9191   21.6055 H   0  0  0  0  0  0
    7.8394  -10.1430   22.6282 H   0  0  0  0  0  0
    4.0387   -8.4753   20.6856 H   0  0  0  0  0  0
    9.3280   -6.0360   23.2388 H   0  0  0  0  0  0
    4.4330   -4.6688   21.5501 H   0  0  0  0  0  0
    3.5533   -7.2674   18.4400 H   0  0  0  0  0  0
    2.1412   -2.6746   19.7040 H   0  0  0  0  0  0
    3.9030   -0.9075   19.9270 H   0  0  0  0  0  0
    5.2059   -2.1637   19.7433 H   0  0  0  0  0  0
    4.2686   -2.7817   17.4278 H   0  0  0  0  0  0
    2.9382   -1.5796   17.6066 H   0  0  0  0  0  0
    6.9049   -4.1998   21.2389 H   0  0  0  0  0  0
    8.4064   -2.0677   25.4413 H   0  0  0  0  0  0
    9.1147   -4.3592   24.9254 H   0  0  0  0  0  0
    6.1449   -1.9369   21.7931 H   0  0  0  0  0  0
    6.2606   -0.0004   23.1589 H   0  0  0  0  0  0
    7.6349    0.1280   24.2363 H   0  0  0  0  0  0
    6.2931   -0.8532   26.1066 H   0  0  0  0  0  0
    4.8999   -0.9513   25.0573 H   0  0  0  0  0  0
    6.6814    1.8548   24.3669 H   0  0  0  0  0  0
    5.6652    4.0177   24.3437 H   0  0  0  0  0  0
    6.5774    3.9130   25.8373 H   0  0  0  0  0  0
    4.8231    3.6699   25.8433 H   0  0  0  0  0  0
  1  2  2  0  0  0
  1  6  1  0  0  0
  1 29  1  0  0  0
  2  3  1  0  0  0
  2 30  1  0  0  0
  3  4  2  0  0  0
  4  5  1  0  0  0
  4  8  1  0  0  0
  5  6  2  0  0  0
  6  7  1  0  0  0
  7  9  1  0  0  0
  7 31  1  0  0  0
  8 17  1  0  0  0
  8 32  1  0  0  0
  9 10  2  0  0  0
  9 13  1  0  0  0
 10 11  1  0  0  0
 10 33  1  0  0  0
 11 12  2  0  0  0
 11 14  1  0  0  0
 12 13  1  0  0  0
 13 34  1  0  0  0
 14 15  1  0  0  0
 14 16  1  0  0  0
 14 35  1  0  0  0
 15 16  1  0  0  0
 15 36  1  0  0  0
 15 37  1  0  0  0
 16 38  1  0  0  0
 16 39  1  0  0  0
 17 18  2  0  0  0
 17 20  1  0  0  0
 18 22  1  0  0  0
 18 40  1  0  0  0
 19 21  1  0  0  0
 19 20  2  0  0  0
 19 41  1  0  0  0
 20 42  1  0  0  0
 21 22  2  0  0  0
 21 23  1  0  0  0
 22 43  1  0  0  0
 23 24  1  0  0  0
 23 44  1  0  0  0
 23 45  1  0  0  0
 24 25  1  0  0  0
 24 46  1  0  0  0
 24 47  1  0  0  0
 25 26  1  0  0  0
 25 27  2  0  0  0
 26 28  1  0  0  0
 26 48  1  0  0  0
 28 49  1  0  0  0
 28 50  1  0  0  0
 28 51  1  0  0  0
M  END
> <s_m_entry_id>
5813

> <s_m_entry_name>
dock_pv.208

> <s_m_Source_Path>
/home/csk/Desktop/cluster/DUD-E-result/igf1r

> <s_m_Source_File>
dock_pv.maegz

> <i_m_Source_File_Index>
208

> <chembl_id>
CHEMBL3902712

> <chembl_pref_name>
None

> <i_lp_mmshare_version>
53161

> <r_lp_tautomer_probability>
0.157399990546105

> <s_lp_Force_Field>
OPLS_2005

> <r_lp_Energy>
5.340489

> <b_lp_Chiralities_Consistent>
1

> <s_lp_Variant>
CHEMBL1957_lig1396-2

> <s_i_glide_gridfile>
glide-grid_2oj9

> <i_i_glide_lignum>
1927

> <i_i_glide_rotatable_bonds>
9

> <r_i_docking_score>
-7.11356191845441

> <r_i_glide_ligand_efficiency>
-0.254055782801943

> <r_i_glide_ligand_efficiency_sa>
-0.771462987440729

> <r_i_glide_ligand_efficiency_ln>
-1.64201895403288

> <r_i_glide_gscore>
-7.11356191845441

> <r_i_glide_lipo>
-2.92351380858434

> <r_i_glide_hbond>
-0.267387607714871

> <r_i_glide_metal>
0

> <r_i_glide_rewards>
-2.07579117963217

> <r_i_glide_evdw>
-43.8170738220215

> <r_i_glide_ecoul>
-4.62890529632568

> <r_i_glide_erotb>
1.08763538995922

> <r_i_glide_esite>
-0.0493152269323165

> <r_i_glide_emodel>
-63.250219408013

> <r_i_glide_energy>
-48.4459791183472

> <r_i_glide_einternal>
6.74615716934204

> <i_i_glide_confnum>
2

> <i_i_glide_posenum>
42

> <r_i_glide_eff_state_penalty>
0

> <s_user_duplicate_titles>
CHEMBL1957_lig1396,CHEMBL1957_lig1396

> <i_f3d_flags>
0

> <s_m_subgroup_title>
dock_pv

> <s_m_subgroupid>
dock_pv

> <b_m_subgroup_collapsed>
1

$$$$
CHEMBL1957_lig3125
                    3D
 Schrodinger Suite 2021-1.
 38 41  0  0  1  0            999 V2000
    6.5852   -0.4559   23.8709 O   0  0  0  0  0  0
    9.3066   -6.7325   25.4379 O   0  0  0  0  0  0
    6.0380   -0.3513   21.6313 N   0  0  0  0  0  0
    6.0380   -4.7490   23.0382 N   0  0  0  0  0  0
    2.8380   -4.8540   17.8380 N   0  0  0  0  0  0
    5.6181   -2.3719   22.6643 C   0  0  1  0  0  0
    5.0148   -2.3303   21.2952 C   0  0  0  0  0  0
    6.6068   -3.5215   22.9253 C   0  0  0  0  0  0
    5.3136   -1.1081   20.7239 C   0  0  0  0  0  0
    6.1516   -0.9480   22.8329 C   0  0  0  0  0  0
    6.8110   -5.8330   23.3131 C   0  0  0  0  0  0
    8.2069   -5.7226   23.5054 C   0  0  0  0  0  0
    4.2654   -3.2650   20.5897 C   0  0  0  0  0  0
    7.9854   -3.3463   23.0617 C   0  0  0  0  0  0
    4.8233   -0.7499   19.4699 C   0  0  0  0  0  0
    3.8055   -2.9432   19.3098 C   0  0  0  0  0  0
    8.7763   -4.4540   23.3571 C   0  0  0  0  0  0
    9.0392   -6.8824   24.0565 C   0  0  2  0  0  0
    4.0380   -1.6708   18.7711 C   0  0  0  0  0  0
    6.1039   -7.1859   23.3969 C   0  0  0  0  0  0
    8.3584   -8.2407   23.8012 C   0  0  0  0  0  0
    6.8836   -8.2116   24.2374 C   0  0  0  0  0  0
    3.2451   -3.9973   18.4899 C   0  0  0  0  0  0
    8.5066   -6.4542   25.9033 H   0  0  0  0  0  0
    6.3964    0.5726   21.4390 H   0  0  0  0  0  0
    4.8372   -2.4540   23.4142 H   0  0  0  0  0  0
    4.0866   -4.2444   21.0128 H   0  0  0  0  0  0
    8.4381   -2.3716   22.9756 H   0  0  0  0  0  0
    5.0349    0.2181   19.0376 H   0  0  0  0  0  0
    9.8369   -4.3215   23.5186 H   0  0  0  0  0  0
   10.0186   -6.8821   23.5737 H   0  0  0  0  0  0
    3.6695   -1.4133   17.7903 H   0  0  0  0  0  0
    5.0884   -7.0710   23.7805 H   0  0  0  0  0  0
    6.0037   -7.5710   22.3812 H   0  0  0  0  0  0
    8.9055   -9.0358   24.3103 H   0  0  0  0  0  0
    8.4348   -8.4914   22.7421 H   0  0  0  0  0  0
    6.8144   -7.9608   25.2976 H   0  0  0  0  0  0
    6.4378   -9.2007   24.1247 H   0  0  0  0  0  0
  1 10  2  0  0  0
  2 18  1  0  0  0
  2 24  1  0  0  0
  3  9  1  0  0  0
  3 10  1  0  0  0
  3 25  1  0  0  0
  4  8  1  0  0  0
  4 11  2  0  0  0
  5 23  3  0  0  0
  6  7  1  0  0  0
  6  8  1  0  0  0
  6 10  1  0  0  0
  6 26  1  0  0  0
  7  9  1  0  0  0
  7 13  2  0  0  0
  8 14  2  0  0  0
  9 15  2  0  0  0
 11 12  1  0  0  0
 11 20  1  0  0  0
 12 17  2  0  0  0
 12 18  1  0  0  0
 13 16  1  0  0  0
 13 27  1  0  0  0
 14 17  1  0  0  0
 14 28  1  0  0  0
 15 19  1  0  0  0
 15 29  1  0  0  0
 16 19  2  0  0  0
 16 23  1  0  0  0
 17 30  1  0  0  0
 18 21  1  0  0  0
 18 31  1  0  0  0
 19 32  1  0  0  0
 20 22  1  0  0  0
 20 33  1  0  0  0
 20 34  1  0  0  0
 21 22  1  0  0  0
 21 35  1  0  0  0
 21 36  1  0  0  0
 22 37  1  0  0  0
 22 38  1  0  0  0
M  END
> <s_m_entry_id>
5814

> <s_m_entry_name>
dock_pv.209

> <s_m_Source_Path>
/home/csk/Desktop/cluster/DUD-E-result/igf1r

> <s_m_Source_File>
dock_pv.maegz

> <i_m_Source_File_Index>
209

> <chembl_id>
CHEMBL1985681

> <chembl_pref_name>
None

> <i_lp_mmshare_version>
53161

> <r_lp_tautomer_probability>
1

> <s_lp_Force_Field>
OPLS_2005

> <r_lp_Energy>
34.63805

> <b_lp_Chiralities_Consistent>
1

> <s_lp_Variant>
CHEMBL1957_lig3125-2

> <s_i_glide_gridfile>
glide-grid_2oj9

> <i_i_glide_lignum>
4343

> <i_i_glide_rotatable_bonds>
2

> <r_i_docking_score>
-7.11211181025158

> <r_i_glide_ligand_efficiency>
-0.309222252619634

> <r_i_glide_ligand_efficiency_sa>
-0.879386952741192

> <r_i_glide_ligand_efficiency_ln>
-1.71977312478326

> <r_i_glide_gscore>
-7.11211181025158

> <r_i_glide_lipo>
-2.40163099222614

> <r_i_glide_hbond>
-0.517444784031333

> <r_i_glide_metal>
0

> <r_i_glide_rewards>
-1.94491145183925

> <r_i_glide_evdw>
-34.0685157775879

> <r_i_glide_ecoul>
-4.85328435897827

> <r_i_glide_erotb>
0.197964064361684

> <r_i_glide_esite>
-0.0146702037904092

> <r_i_glide_emodel>
-52.2945704743959

> <r_i_glide_energy>
-38.9218001365662

> <r_i_glide_einternal>
2.39926648139954

> <i_i_glide_confnum>
4

> <i_i_glide_posenum>
241

> <r_i_glide_eff_state_penalty>
0

> <s_user_duplicate_titles>
CHEMBL1957_lig3125

> <i_f3d_flags>
0

> <s_m_subgroup_title>
dock_pv

> <s_m_subgroupid>
dock_pv

> <b_m_subgroup_collapsed>
1

$$$$
CHEMBL1957_lig3307
                    3D
 Schrodinger Suite 2021-1.
 49 52  0  0  1  0            999 V2000
    5.2418   -0.8715   20.4913 N   0  0  0  0  0  0
    8.8378   -5.4699   21.5973 N   0  0  0  0  0  0
    6.8381   -0.8529   24.7682 N   0  0  0  0  0  0
    4.8383   -9.6532   19.9452 N   0  0  0  0  0  0
    5.9527   -2.2893   22.1322 C   0  0  0  0  0  0
    5.0366   -2.9761   21.2574 C   0  0  0  0  0  0
    4.6045   -2.0661   20.2400 C   0  0  0  0  0  0
    6.6506   -2.8862   23.3637 C   0  0  1  0  0  0
    6.0376   -1.0148   21.6011 C   0  0  0  0  0  0
    7.3601   -4.2010   23.0413 C   0  0  0  0  0  0
    4.5335   -4.2822   21.2314 C   0  0  0  0  0  0
    3.7001   -2.4377   19.2346 C   0  0  0  0  0  0
    7.1044   -5.3544   23.7945 C   0  0  0  0  0  0
    7.5870   -1.9189   24.1191 C   0  0  0  0  0  0
    8.2531   -4.3035   21.9654 C   0  0  0  0  0  0
    3.6330   -4.6540   20.2377 C   0  0  0  0  0  0
    7.6804   -6.5713   23.4179 C   0  0  0  0  0  0
    3.2381   -3.7521   19.2535 C   0  0  0  0  0  0
    5.1066    0.3458   19.7182 C   0  0  0  0  0  0
    8.5414   -6.5812   22.3171 C   0  0  0  0  0  0
    7.3931   -7.8027   24.1665 C   0  0  0  0  0  0
    6.7679   -8.9062   23.7045 C   0  0  0  0  0  0
    6.1180   -9.1273   22.3947 C   0  0  0  0  0  0
    5.4706   -8.1039   21.6855 C   0  0  0  0  0  0
    6.1085  -10.4182   21.8542 C   0  0  0  0  0  0
    4.8383   -8.4082   20.4778 C   0  0  0  0  0  0
    5.4629  -10.6385   20.6373 C   0  0  0  0  0  0
    7.5067   -0.1485   25.0566 H   0  0  0  0  0  0
    6.2460   -0.4105   24.0813 H   0  0  0  0  0  0
    5.8713   -3.1345   24.0775 H   0  0  0  0  0  0
    6.6119   -0.1668   21.9370 H   0  0  0  0  0  0
    4.8328   -4.9906   21.9864 H   0  0  0  0  0  0
    3.3838   -1.7495   18.4633 H   0  0  0  0  0  0
    6.4352   -5.3194   24.6413 H   0  0  0  0  0  0
    8.1406   -2.4521   24.8949 H   0  0  0  0  0  0
    8.3329   -1.5101   23.4381 H   0  0  0  0  0  0
    8.5001   -3.4405   21.3656 H   0  0  0  0  0  0
    3.2345   -5.6570   20.2249 H   0  0  0  0  0  0
    2.5483   -4.0756   18.4856 H   0  0  0  0  0  0
    5.5239    0.1958   18.7203 H   0  0  0  0  0  0
    4.0529    0.6081   19.6419 H   0  0  0  0  0  0
    5.6369    1.1479   20.2238 H   0  0  0  0  0  0
    9.0298   -7.4941   22.0038 H   0  0  0  0  0  0
    7.7558   -7.8113   25.1851 H   0  0  0  0  0  0
    6.6958   -9.7447   24.3820 H   0  0  0  0  0  0
    5.4387   -7.0988   22.0728 H   0  0  0  0  0  0
    6.5834  -11.2392   22.3738 H   0  0  0  0  0  0
    4.3372   -7.6459   19.8997 H   0  0  0  0  0  0
    5.4338  -11.6258   20.2010 H   0  0  0  0  0  0
  1  7  1  0  0  0
  1  9  1  0  0  0
  1 19  1  0  0  0
  2 15  1  0  0  0
  2 20  2  0  0  0
  3 14  1  0  0  0
  3 28  1  0  0  0
  3 29  1  0  0  0
  4 26  2  0  0  0
  4 27  1  0  0  0
  5  6  1  0  0  0
  5  8  1  0  0  0
  5  9  2  0  0  0
  6  7  1  0  0  0
  6 11  2  0  0  0
  7 12  2  0  0  0
  8 10  1  0  0  0
  8 14  1  0  0  0
  8 30  1  0  0  0
  9 31  1  0  0  0
 10 13  1  0  0  0
 10 15  2  0  0  0
 11 16  1  0  0  0
 11 32  1  0  0  0
 12 18  1  0  0  0
 12 33  1  0  0  0
 13 17  2  0  0  0
 13 34  1  0  0  0
 14 35  1  0  0  0
 14 36  1  0  0  0
 15 37  1  0  0  0
 16 18  2  0  0  0
 16 38  1  0  0  0
 17 20  1  0  0  0
 17 21  1  0  0  0
 18 39  1  0  0  0
 19 40  1  0  0  0
 19 41  1  0  0  0
 19 42  1  0  0  0
 20 43  1  0  0  0
 21 22  2  3  0  0
 21 44  1  0  0  0
 22 23  1  0  0  0
 22 45  1  0  0  0
 23 24  2  0  0  0
 23 25  1  0  0  0
 24 26  1  0  0  0
 24 46  1  0  0  0
 25 27  2  0  0  0
 25 47  1  0  0  0
 26 48  1  0  0  0
 27 49  1  0  0  0
M  END
> <s_m_entry_id>
5815

> <s_m_entry_name>
dock_pv.210

> <s_m_Source_Path>
/home/csk/Desktop/cluster/DUD-E-result/igf1r

> <s_m_Source_File>
dock_pv.maegz

> <i_m_Source_File_Index>
210

> <chembl_id>
CHEMBL1979357

> <chembl_pref_name>
None

> <i_lp_mmshare_version>
53161

> <r_lp_tautomer_probability>
1

> <s_lp_Force_Field>
OPLS_2005

> <r_lp_Energy>
20.313146

> <b_lp_Chiralities_Consistent>
1

> <s_lp_Variant>
CHEMBL1957_lig3307-4

> <s_i_glide_gridfile>
glide-grid_2oj9

> <i_i_glide_lignum>
4648

> <i_i_glide_rotatable_bonds>
5

> <r_i_docking_score>
-7.10949416198746

> <r_i_glide_ligand_efficiency>
-0.263314598592128

> <r_i_glide_ligand_efficiency_sa>
-0.789943794908543

> <r_i_glide_ligand_efficiency_ln>
-1.65497303173903

> <r_i_glide_gscore>
-7.10949416198746

> <r_i_glide_lipo>
-3.68820495736781

> <r_i_glide_hbond>
-0.165236958316787

> <r_i_glide_metal>
0

> <r_i_glide_rewards>
-1.3081718900109

> <r_i_glide_evdw>
-42.4833068847656

> <r_i_glide_ecoul>
-2.88077664375305

> <r_i_glide_erotb>
0.608401484509282

> <r_i_glide_esite>
0

> <r_i_glide_emodel>
-61.7326134267135

> <r_i_glide_energy>
-45.3640835285187

> <r_i_glide_einternal>
4.80888986587524

> <i_i_glide_confnum>
44

> <i_i_glide_posenum>
98

> <r_i_glide_eff_state_penalty>
0

> <s_user_duplicate_titles>
CHEMBL1957_lig3307

> <i_f3d_flags>
0

> <s_m_subgroup_title>
dock_pv

> <s_m_subgroupid>
dock_pv

> <b_m_subgroup_collapsed>
1

$$$$
CHEMBL1957_lig3310
                    3D
 Schrodinger Suite 2021-1.
 37 39  0  0  1  0            999 V2000
    5.8177   -5.5978   21.7715 O   0  0  0  0  0  0
    7.6379   -1.9544   24.0304 N   0  0  0  0  0  0
    8.4877   -4.1223   24.6359 N   0  0  0  0  0  0
    7.4899   -5.9712   23.4132 N   0  0  0  0  0  0
    6.7813   -3.7098   22.8961 C   0  0  0  0  0  0
    6.2165   -2.4911   22.3388 C   0  0  0  0  0  0
    7.7045   -3.3176   23.9116 C   0  0  0  0  0  0
    6.7109   -5.1061   22.7017 C   0  0  0  0  0  0
    5.2760   -2.2747   21.1935 C   0  0  0  0  0  0
    6.7210   -1.4718   23.1339 C   0  0  0  0  0  0
    8.3334   -5.4325   24.3246 C   0  0  0  0  0  0
    5.4642   -1.1407   20.3905 C   0  0  0  0  0  0
    4.2574   -3.1747   20.8701 C   0  0  0  0  0  0
    4.6448   -0.9089   19.2889 C   0  0  0  0  0  0
    3.4403   -2.9489   19.7650 C   0  0  0  0  0  0
    5.7729   -7.0029   21.5268 C   0  0  0  0  0  0
    3.6374   -1.8180   18.9780 C   0  0  0  0  0  0
    4.5413   -7.3264   20.6641 C   0  0  0  0  0  0
    4.6144   -8.6566   19.8837 C   0  0  0  0  0  0
    5.0678   -9.8848   20.6900 C   0  0  0  0  0  0
    8.1919   -1.3644   24.6386 H   0  0  0  0  0  0
    6.5421   -0.4074   23.0862 H   0  0  0  0  0  0
    8.9381   -6.1291   24.8877 H   0  0  0  0  0  0
    6.2601   -0.4405   20.6012 H   0  0  0  0  0  0
    4.0838   -4.0505   21.4708 H   0  0  0  0  0  0
    4.8105   -0.0429   18.6648 H   0  0  0  0  0  0
    2.6649   -3.6554   19.5106 H   0  0  0  0  0  0
    5.7057   -7.5697   22.4577 H   0  0  0  0  0  0
    6.7010   -7.2923   21.0378 H   0  0  0  0  0  0
    3.0125   -1.6523   18.1119 H   0  0  0  0  0  0
    4.3858   -6.5227   19.9425 H   0  0  0  0  0  0
    3.6594   -7.3161   21.3061 H   0  0  0  0  0  0
    5.2873   -8.5398   19.0382 H   0  0  0  0  0  0
    3.6392   -8.8542   19.4378 H   0  0  0  0  0  0
    5.0300  -10.7834   20.0741 H   0  0  0  0  0  0
    4.4400  -10.0618   21.5605 H   0  0  0  0  0  0
    6.0940   -9.7767   21.0395 H   0  0  0  0  0  0
  1  8  1  0  0  0
  1 16  1  0  0  0
  2  7  1  0  0  0
  2 10  1  0  0  0
  2 21  1  0  0  0
  3  7  1  0  0  0
  3 11  2  0  0  0
  4  8  2  0  0  0
  4 11  1  0  0  0
  5  6  1  0  0  0
  5  7  2  0  0  0
  5  8  1  0  0  0
  6  9  1  0  0  0
  6 10  2  0  0  0
  9 12  2  0  0  0
  9 13  1  0  0  0
 10 22  1  0  0  0
 11 23  1  0  0  0
 12 14  1  0  0  0
 12 24  1  0  0  0
 13 15  2  0  0  0
 13 25  1  0  0  0
 14 17  2  0  0  0
 14 26  1  0  0  0
 15 17  1  0  0  0
 15 27  1  0  0  0
 16 18  1  0  0  0
 16 28  1  0  0  0
 16 29  1  0  0  0
 17 30  1  0  0  0
 18 19  1  0  0  0
 18 31  1  0  0  0
 18 32  1  0  0  0
 19 20  1  0  0  0
 19 33  1  0  0  0
 19 34  1  0  0  0
 20 35  1  0  0  0
 20 36  1  0  0  0
 20 37  1  0  0  0
M  END
> <s_m_entry_id>
5816

> <s_m_entry_name>
dock_pv.211

> <s_m_Source_Path>
/home/csk/Desktop/cluster/DUD-E-result/igf1r

> <s_m_Source_File>
dock_pv.maegz

> <i_m_Source_File_Index>
211

> <chembl_id>
CHEMBL1996817

> <chembl_pref_name>
None

> <i_lp_mmshare_version>
53161

> <r_lp_tautomer_probability>
0.999998369746258

> <s_lp_Force_Field>
OPLS_2005

> <r_lp_Energy>
7.660074

> <b_lp_Chiralities_Consistent>
1

> <s_lp_Variant>
CHEMBL1957_lig3310-1

> <s_i_glide_gridfile>
glide-grid_2oj9

> <i_i_glide_lignum>
4654

> <i_i_glide_rotatable_bonds>
5

> <r_i_docking_score>
-7.10900127050583

> <r_i_glide_ligand_efficiency>
-0.355450063525292

> <r_i_glide_ligand_efficiency_sa>
-0.964839913289363

> <r_i_glide_ligand_efficiency_ln>
-1.77914854745329

> <r_i_glide_gscore>
-7.10900127050583

> <r_i_glide_lipo>
-3.29358005310625

> <r_i_glide_hbond>
-0.32

> <r_i_glide_metal>
0

> <r_i_glide_rewards>
-2.60036117485481

> <r_i_glide_evdw>
-34.1436576843262

> <r_i_glide_ecoul>
-1.23923563957214

> <r_i_glide_erotb>
0.99800818760736

> <r_i_glide_esite>
0

> <r_i_glide_emodel>
-49.1762813391174

> <r_i_glide_energy>
-35.3828933238983

> <r_i_glide_einternal>
1.98736023902893

> <i_i_glide_confnum>
99

> <i_i_glide_posenum>
125

> <r_i_glide_eff_state_penalty>
0

> <s_user_duplicate_titles>
CHEMBL1957_lig3310

> <i_f3d_flags>
0

> <s_m_subgroup_title>
dock_pv

> <s_m_subgroupid>
dock_pv

> <b_m_subgroup_collapsed>
1

$$$$
CHEMBL1957_lig2805
                    3D
 Schrodinger Suite 2021-1.
 28 31  0  0  1  0            999 V2000
    8.4437   -4.0879   24.1194 N   0  0  0  0  0  0
    4.8392   -9.1445   20.0961 N   0  0  0  0  0  0
    7.6378   -1.8019   24.1518 N   0  0  0  0  0  0
    4.8931  -10.4777   20.2389 N   0  0  0  0  0  0
    6.5965   -7.0814   22.6511 C   0  0  0  0  0  0
    6.9192   -5.6684   23.0130 C   0  0  0  0  0  0
    5.5521   -8.6961   21.1744 C   0  0  0  0  0  0
    6.3483   -3.3228   23.1046 C   0  0  0  0  0  0
    6.0191   -9.7591   22.0044 C   0  0  0  0  0  0
    7.5595   -3.1364   23.8197 C   0  0  0  0  0  0
    5.8525   -7.3659   21.4961 C   0  0  0  0  0  0
    6.0381   -4.6258   22.6905 C   0  0  0  0  0  0
    7.0188   -8.1387   23.4679 C   0  0  0  0  0  0
    8.0990   -5.3343   23.6998 C   0  0  0  0  0  0
    6.7527   -9.4720   23.1611 C   0  0  0  0  0  0
    5.7121   -2.0430   23.0161 C   0  0  0  0  0  0
    5.5593  -10.9299   21.3517 C   0  0  0  0  0  0
    6.5203   -1.1463   23.6893 C   0  0  0  0  0  0
    4.4762  -11.0945   19.5502 H   0  0  0  0  0  0
    8.3929   -1.3333   24.6384 H   0  0  0  0  0  0
    5.5153   -6.5731   20.8454 H   0  0  0  0  0  0
    5.1114   -4.8160   22.1707 H   0  0  0  0  0  0
    7.5692   -7.9319   24.3742 H   0  0  0  0  0  0
    8.8229   -6.0971   23.9492 H   0  0  0  0  0  0
    7.0992  -10.2649   23.8070 H   0  0  0  0  0  0
    4.7740   -1.8122   22.5354 H   0  0  0  0  0  0
    5.6405  -11.9867   21.5581 H   0  0  0  0  0  0
    6.4126   -0.0843   23.8605 H   0  0  0  0  0  0
  1 10  2  0  0  0
  1 14  1  0  0  0
  2  4  1  0  0  0
  2  7  2  0  0  0
  3 10  1  0  0  0
  3 18  1  0  0  0
  3 20  1  0  0  0
  4 19  1  0  0  0
  4 17  1  0  0  0
  5 11  2  0  0  0
  5  6  1  0  0  0
  5 13  1  0  0  0
  6 12  1  0  0  0
  6 14  2  0  0  0
  7 11  1  0  0  0
  7  9  1  0  0  0
  8 10  1  0  0  0
  8 12  2  0  0  0
  8 16  1  0  0  0
  9 15  1  0  0  0
  9 17  2  0  0  0
 11 21  1  0  0  0
 12 22  1  0  0  0
 13 23  1  0  0  0
 13 15  2  0  0  0
 14 24  1  0  0  0
 15 25  1  0  0  0
 16 18  2  0  0  0
 16 26  1  0  0  0
 17 27  1  0  0  0
 18 28  1  0  0  0
M  END
> <s_m_entry_id>
5817

> <s_m_entry_name>
dock_pv.212

> <s_m_Source_Path>
/home/csk/Desktop/cluster/DUD-E-result/igf1r

> <s_m_Source_File>
dock_pv.maegz

> <i_m_Source_File_Index>
212

> <chembl_id>
CHEMBL1976134

> <chembl_pref_name>
None

> <i_lp_mmshare_version>
53161

> <r_lp_tautomer_probability>
0.0196078130051597

> <s_lp_Force_Field>
OPLS_2005

> <r_lp_Energy>
26.236096

> <b_lp_Chiralities_Consistent>
1

> <s_lp_Variant>
CHEMBL1957_lig2805-2

> <s_i_glide_gridfile>
glide-grid_2oj9

> <i_i_glide_lignum>
3886

> <i_i_glide_rotatable_bonds>
1

> <r_i_docking_score>
-7.10720007137586

> <r_i_glide_ligand_efficiency>
-0.39484444840977

> <r_i_glide_ligand_efficiency_sa>
-1.03478518922409

> <r_i_glide_ligand_efficiency_ln>
-1.82686913068156

> <r_i_glide_gscore>
-7.10720007137586

> <r_i_glide_lipo>
-2.02881452146644

> <r_i_glide_hbond>
-0.579634285092357

> <r_i_glide_metal>
0

> <r_i_glide_rewards>
-2.74644510798474

> <r_i_glide_evdw>
-27.9016876220703

> <r_i_glide_ecoul>
-4.43923044204712

> <r_i_glide_erotb>
0.312893217631924

> <r_i_glide_esite>
-0.00423042705366483

> <r_i_glide_emodel>
-45.6724149586809

> <r_i_glide_energy>
-32.3409180641174

> <r_i_glide_einternal>
0.282263070344925

> <i_i_glide_confnum>
4

> <i_i_glide_posenum>
382

> <r_i_glide_eff_state_penalty>
0

> <s_user_duplicate_titles>
CHEMBL1957_lig2805

> <i_f3d_flags>
0

> <s_m_subgroup_title>
dock_pv

> <s_m_subgroupid>
dock_pv

> <b_m_subgroup_collapsed>
1

$$$$
CHEMBL1957_lig2893
                    3D
 Schrodinger Suite 2021-1.
 38 40  0  0  1  0            999 V2000
    8.4828   -9.5008   24.7669 S   0  0  0  0  0  0
    7.5318  -10.1869   23.8862 O   0  0  0  0  0  0
    8.8890  -10.0865   26.0488 O   0  0  0  0  0  0
    3.1541   -2.4569   18.4691 N   0  0  0  0  0  0
    3.7240   -1.2542   18.6699 N   0  0  0  0  0  0
    7.8024   -7.9216   25.1633 N   0  0  0  0  0  0
    5.2380   -0.3259   20.2117 N   0  0  0  0  0  0
    4.4397   -2.6839   20.2745 C   0  0  0  0  0  0
    3.5466   -3.3752   19.4234 C   0  0  0  0  0  0
    4.8395   -4.7556   21.4719 C   0  0  0  0  0  0
    4.4749   -1.3567   19.7373 C   0  0  0  0  0  0
    5.0646   -3.3778   21.3241 C   0  0  0  0  0  0
    5.6175   -5.5691   22.4588 C   0  0  0  0  0  0
    3.2381   -4.7238   19.6079 C   0  0  0  0  0  0
    3.9062   -5.3860   20.6377 C   0  0  0  0  0  0
    7.0950   -7.1605   24.2326 C   0  0  0  0  0  0
    5.0710   -6.7407   23.0007 C   0  0  0  0  0  0
    6.9232   -5.2117   22.8279 C   0  0  0  0  0  0
    5.8103   -7.5420   23.8577 C   0  0  0  0  0  0
    7.6546   -5.9922   23.7210 C   0  0  0  0  0  0
   10.0326   -9.0560   23.7805 C   0  0  0  0  0  0
   11.0183   -8.2478   24.6380 C   0  0  0  0  0  0
    2.5461   -2.6082   17.6727 H   0  0  0  0  0  0
    8.0854   -7.4803   26.0274 H   0  0  0  0  0  0
    6.1505   -0.5374   20.5934 H   0  0  0  0  0  0
    5.2080    0.5660   19.7332 H   0  0  0  0  0  0
    5.7602   -2.8566   21.9660 H   0  0  0  0  0  0
    2.5630   -5.2508   18.9526 H   0  0  0  0  0  0
    3.7257   -6.4458   20.7277 H   0  0  0  0  0  0
    4.0661   -7.0525   22.7617 H   0  0  0  0  0  0
    7.3915   -4.3301   22.4191 H   0  0  0  0  0  0
    5.3708   -8.4528   24.2368 H   0  0  0  0  0  0
    8.6526   -5.6931   24.0047 H   0  0  0  0  0  0
    9.7191   -8.4876   22.9032 H   0  0  0  0  0  0
   10.4805   -9.9915   23.4414 H   0  0  0  0  0  0
   11.9399   -8.0511   24.0883 H   0  0  0  0  0  0
   11.2897   -8.7850   25.5493 H   0  0  0  0  0  0
   10.5971   -7.2858   24.9277 H   0  0  0  0  0  0
  1  2  2  0  0  0
  1  3  2  0  0  0
  1  6  1  0  0  0
  1 21  1  0  0  0
  4  5  1  0  0  0
  4  9  1  0  0  0
  4 23  1  0  0  0
  5 11  2  0  0  0
  6 16  1  0  0  0
  6 24  1  0  0  0
  7 11  1  0  0  0
  7 25  1  0  0  0
  7 26  1  0  0  0
  8  9  1  0  0  0
  8 11  1  0  0  0
  8 12  2  0  0  0
  9 14  2  0  0  0
 10 12  1  0  0  0
 10 13  1  0  0  0
 10 15  2  0  0  0
 12 27  1  0  0  0
 13 17  2  0  0  0
 13 18  1  0  0  0
 14 15  1  0  0  0
 14 28  1  0  0  0
 15 29  1  0  0  0
 16 19  2  0  0  0
 16 20  1  0  0  0
 17 19  1  0  0  0
 17 30  1  0  0  0
 18 20  2  0  0  0
 18 31  1  0  0  0
 19 32  1  0  0  0
 20 33  1  0  0  0
 21 22  1  0  0  0
 21 34  1  0  0  0
 21 35  1  0  0  0
 22 36  1  0  0  0
 22 37  1  0  0  0
 22 38  1  0  0  0
M  END
> <s_m_entry_id>
5818

> <s_m_entry_name>
dock_pv.213

> <s_m_Source_Path>
/home/csk/Desktop/cluster/DUD-E-result/igf1r

> <s_m_Source_File>
dock_pv.maegz

> <i_m_Source_File_Index>
213

> <chembl_id>
CHEMBL1997597

> <chembl_pref_name>
None

> <i_lp_mmshare_version>
53161

> <r_lp_tautomer_probability>
1

> <s_lp_Force_Field>
OPLS_2005

> <r_lp_Energy>
5.559562

> <b_lp_Chiralities_Consistent>
1

> <s_lp_Variant>
CHEMBL1957_lig2893-1

> <s_i_glide_gridfile>
glide-grid_2oj9

> <i_i_glide_lignum>
4002

> <i_i_glide_rotatable_bonds>
4

> <r_i_docking_score>
-7.0980691627638

> <r_i_glide_ligand_efficiency>
-0.322639507398355

> <r_i_glide_ligand_efficiency_sa>
-0.904048588421985

> <r_i_glide_ligand_efficiency_ln>
-1.73502701174294

> <r_i_glide_gscore>
-7.0980691627638

> <r_i_glide_lipo>
-2.65863365536321

> <r_i_glide_hbond>
-0.312972568150695

> <r_i_glide_metal>
0

> <r_i_glide_rewards>
-2.28535681838486

> <r_i_glide_evdw>
-34.8050270080566

> <r_i_glide_ecoul>
-4.39199113845825

> <r_i_glide_erotb>
0.557943900306529

> <r_i_glide_esite>
0

> <r_i_glide_emodel>
-53.3653609742546

> <r_i_glide_energy>
-39.1970181465149

> <r_i_glide_einternal>
3.89870762825012

> <i_i_glide_confnum>
15

> <i_i_glide_posenum>
338

> <r_i_glide_eff_state_penalty>
0

> <s_user_duplicate_titles>
CHEMBL1957_lig2893

> <i_f3d_flags>
0

> <s_m_subgroup_title>
dock_pv

> <s_m_subgroupid>
dock_pv

> <b_m_subgroup_collapsed>
1

$$$$
CHEMBL1957_lig3332
                    3D
 Schrodinger Suite 2021-1.
 38 40  0  0  1  0            999 V2000
    4.8380    0.1999   19.8380 Br  0  0  0  0  0  0
    3.2918   -5.6956   19.9234 O   0  0  0  0  0  0
    2.8380   -4.1510   17.7290 O   0  0  0  0  0  0
    6.0829   -4.8540   23.5738 N   0  0  0  0  0  0
    8.1018   -3.9972   23.1709 N   0  0  0  0  0  0
    6.8380   -0.8540   25.1154 N   0  0  0  0  0  0
    6.7468   -3.7641   23.2710 C   0  0  0  0  0  0
    7.0177   -5.8446   23.6603 C   0  0  0  0  0  0
    8.3131   -5.3366   23.4088 C   0  0  0  0  0  0
    6.2248   -2.4075   23.1523 C   0  0  0  0  0  0
    4.7167   -2.4433   21.0380 C   0  0  0  0  0  0
    5.4232   -1.8626   22.2075 C   0  0  0  0  0  0
    4.3869   -1.6540   19.9203 C   0  0  0  0  0  0
    3.6380   -4.3577   19.9586 C   0  0  0  0  0  0
    4.3120   -3.7779   21.0380 C   0  0  0  0  0  0
    6.8373   -7.2027   23.9523 C   0  0  0  0  0  0
    3.3698   -3.5661   18.8424 C   0  0  0  0  0  0
    9.4470   -6.1486   23.4380 C   0  0  0  0  0  0
    3.7063   -2.2133   18.8353 C   0  0  0  0  0  0
    7.9667   -8.0250   23.9838 C   0  0  0  0  0  0
    6.6237   -1.5699   24.2340 C   0  0  0  0  0  0
    9.2383   -7.5017   23.7238 C   0  0  0  0  0  0
    7.8060   -9.5043   24.2821 C   0  0  0  0  0  0
    4.0380   -6.6125   20.7256 C   0  0  0  0  0  0
    2.5519   -3.5492   17.0282 H   0  0  0  0  0  0
    8.7877   -3.2813   22.9720 H   0  0  0  0  0  0
    5.2380   -0.8112   22.3515 H   0  0  0  0  0  0
    4.4757   -4.3828   21.9046 H   0  0  0  0  0  0
    5.8521   -7.5971   24.1529 H   0  0  0  0  0  0
   10.4380   -5.7659   23.2348 H   0  0  0  0  0  0
    3.4876   -1.6050   17.9698 H   0  0  0  0  0  0
   10.0982   -8.1576   23.7405 H   0  0  0  0  0  0
    7.9225   -9.6940   25.3492 H   0  0  0  0  0  0
    8.5476  -10.0928   23.7405 H   0  0  0  0  0  0
    6.8274   -9.8676   23.9646 H   0  0  0  0  0  0
    3.8557   -7.6293   20.3791 H   0  0  0  0  0  0
    5.1143   -6.4435   20.6587 H   0  0  0  0  0  0
    3.7343   -6.5597   21.7722 H   0  0  0  0  0  0
  1 13  1  0  0  0
  2 14  1  0  0  0
  2 24  1  0  0  0
  3 17  1  0  0  0
  3 25  1  0  0  0
  4  7  2  0  0  0
  4  8  1  0  0  0
  5  7  1  0  0  0
  5  9  1  0  0  0
  5 26  1  0  0  0
  6 21  3  0  0  0
  7 10  1  0  0  0
  8  9  1  0  0  0
  8 16  2  0  0  0
  9 18  2  0  0  0
 10 12  2  3  0  0
 10 21  1  0  0  0
 11 12  1  0  0  0
 11 13  2  0  0  0
 11 15  1  0  0  0
 12 27  1  0  0  0
 13 19  1  0  0  0
 14 15  2  0  0  0
 14 17  1  0  0  0
 15 28  1  0  0  0
 16 20  1  0  0  0
 16 29  1  0  0  0
 17 19  2  0  0  0
 18 22  1  0  0  0
 18 30  1  0  0  0
 19 31  1  0  0  0
 20 22  2  0  0  0
 20 23  1  0  0  0
 22 32  1  0  0  0
 23 33  1  0  0  0
 23 34  1  0  0  0
 23 35  1  0  0  0
 24 36  1  0  0  0
 24 37  1  0  0  0
 24 38  1  0  0  0
M  END
> <s_m_entry_id>
5819

> <s_m_entry_name>
dock_pv.214

> <s_m_Source_Path>
/home/csk/Desktop/cluster/DUD-E-result/igf1r

> <s_m_Source_File>
dock_pv.maegz

> <i_m_Source_File_Index>
214

> <chembl_id>
CHEMBL2000345

> <chembl_pref_name>
None

> <i_lp_mmshare_version>
53161

> <r_lp_tautomer_probability>
1

> <s_lp_Force_Field>
OPLS_2005

> <r_lp_Energy>
21.776836

> <b_lp_Chiralities_Consistent>
1

> <s_lp_Variant>
CHEMBL1957_lig3332-2

> <s_i_glide_gridfile>
glide-grid_2oj9

> <i_i_glide_lignum>
4684

> <i_i_glide_rotatable_bonds>
4

> <r_i_docking_score>
-7.09569935946505

> <r_i_glide_ligand_efficiency>
-0.295654139977711

> <r_i_glide_ligand_efficiency_sa>
-0.852814111781489

> <r_i_glide_ligand_efficiency_ln>
-1.69832645714719

> <r_i_glide_gscore>
-7.09569935946505

> <r_i_glide_lipo>
-2.69555200026407

> <r_i_glide_hbond>
-0.242234751989898

> <r_i_glide_metal>
0

> <r_i_glide_rewards>
-1.51055181153163

> <r_i_glide_evdw>
-35.6749687194824

> <r_i_glide_ecoul>
-7.51318979263306

> <r_i_glide_erotb>
0.263366109189622

> <r_i_glide_esite>
0

> <r_i_glide_emodel>
-58.1812054222588

> <r_i_glide_energy>
-43.1881585121155

> <r_i_glide_einternal>
2.67938303947449

> <i_i_glide_confnum>
1

> <i_i_glide_posenum>
387

> <r_i_glide_eff_state_penalty>
0

> <s_user_duplicate_titles>
CHEMBL1957_lig3332

> <i_f3d_flags>
0

> <s_m_subgroup_title>
dock_pv

> <s_m_subgroupid>
dock_pv

> <b_m_subgroup_collapsed>
1

$$$$
CHEMBL1957_lig3056
                    3D
 Schrodinger Suite 2021-1.
 49 51  0  0  1  0            999 V2000
    6.0380    0.6648   23.1237 O   0  0  0  0  0  0
    6.7714   -3.5658   22.5127 N   0  0  0  0  0  0
    7.7441   -2.0540   24.6380 N   0  0  0  0  0  0
    5.5734   -1.6892   21.6829 N   0  0  0  0  0  0
    7.9646   -5.4643   23.3951 N   0  0  0  0  0  0
    6.5079    0.3952   25.2664 N   0  0  0  0  0  0
    9.0237   -7.7397   21.8376 N   0  0  0  0  0  0
    6.4027   -2.2626   22.6591 C   0  0  0  0  0  0
    6.8599   -1.5038   23.7609 C   0  0  0  0  0  0
    7.6282   -4.1043   23.4205 C   0  0  0  0  0  0
    8.1464   -3.3289   24.4479 C   0  0  0  0  0  0
    6.4377   -0.0697   24.0216 C   0  0  0  0  0  0
    4.8033   -2.2222   20.6429 C   0  0  0  0  0  0
    7.0679   -6.4368   22.7664 C   0  0  1  0  0  0
    7.7986   -7.8000   22.6111 C   0  0  1  0  0  0
    4.3441   -3.5440   20.6538 C   0  0  0  0  0  0
    4.4297   -1.3741   19.5985 C   0  0  0  0  0  0
    5.8094   -6.5879   23.6606 C   0  0  0  0  0  0
    3.5673   -4.0325   19.6047 C   0  0  0  0  0  0
    6.8335   -8.8643   22.0494 C   0  0  0  0  0  0
    3.6381   -1.8537   18.5566 C   0  0  0  0  0  0
    4.8538   -7.6644   23.1299 C   0  0  0  0  0  0
    3.2366   -3.1877   18.5463 C   0  0  0  0  0  0
    5.5722   -9.0113   22.9161 C   0  0  0  0  0  0
    3.1035   -5.4785   19.6218 C   0  0  0  0  0  0
    5.5725   -0.6793   21.7410 H   0  0  0  0  0  0
    8.4580   -5.7927   24.2124 H   0  0  0  0  0  0
    7.1131   -0.0624   25.9227 H   0  0  0  0  0  0
    6.2249    1.3453   25.4440 H   0  0  0  0  0  0
    9.5891   -6.9703   22.1814 H   0  0  0  0  0  0
    9.5732   -8.5692   22.0150 H   0  0  0  0  0  0
    8.8356   -3.7382   25.1730 H   0  0  0  0  0  0
    6.7685   -6.0593   21.7859 H   0  0  0  0  0  0
    8.0874   -8.1172   23.6148 H   0  0  0  0  0  0
    4.5851   -4.2014   21.4755 H   0  0  0  0  0  0
    4.7594   -0.3449   19.5847 H   0  0  0  0  0  0
    6.0996   -6.8346   24.6843 H   0  0  0  0  0  0
    5.2672   -5.6451   23.7272 H   0  0  0  0  0  0
    6.5330   -8.5982   21.0386 H   0  0  0  0  0  0
    7.3358   -9.8297   21.9814 H   0  0  0  0  0  0
    3.3562   -1.2007   17.7447 H   0  0  0  0  0  0
    4.4134   -7.3296   22.1888 H   0  0  0  0  0  0
    4.0382   -7.7845   23.8398 H   0  0  0  0  0  0
    2.6378   -3.5574   17.7271 H   0  0  0  0  0  0
    4.8928   -9.7300   22.4580 H   0  0  0  0  0  0
    5.8514   -9.4369   23.8794 H   0  0  0  0  0  0
    2.5422   -5.7452   18.7234 H   0  0  0  0  0  0
    2.4698   -5.6529   20.4951 H   0  0  0  0  0  0
    3.9646   -6.1481   19.6960 H   0  0  0  0  0  0
  1 12  2  0  0  0
  2  8  2  0  0  0
  2 10  1  0  0  0
  3  9  2  0  0  0
  3 11  1  0  0  0
  4  8  1  0  0  0
  4 13  1  0  0  0
  4 26  1  0  0  0
  5 10  1  0  0  0
  5 14  1  0  0  0
  5 27  1  0  0  0
  6 12  1  0  0  0
  6 28  1  0  0  0
  6 29  1  0  0  0
  7 15  1  0  0  0
  7 30  1  0  0  0
  7 31  1  0  0  0
  8  9  1  0  0  0
  9 12  1  0  0  0
 10 11  2  0  0  0
 11 32  1  0  0  0
 13 16  2  0  0  0
 13 17  1  0  0  0
 14 15  1  0  0  0
 14 18  1  0  0  0
 14 33  1  0  0  0
 15 20  1  0  0  0
 15 34  1  0  0  0
 16 19  1  0  0  0
 16 35  1  0  0  0
 17 21  2  0  0  0
 17 36  1  0  0  0
 18 22  1  0  0  0
 18 37  1  0  0  0
 18 38  1  0  0  0
 19 23  2  0  0  0
 19 25  1  0  0  0
 20 24  1  0  0  0
 20 39  1  0  0  0
 20 40  1  0  0  0
 21 23  1  0  0  0
 21 41  1  0  0  0
 22 24  1  0  0  0
 22 42  1  0  0  0
 22 43  1  0  0  0
 23 44  1  0  0  0
 24 45  1  0  0  0
 24 46  1  0  0  0
 25 47  1  0  0  0
 25 48  1  0  0  0
 25 49  1  0  0  0
M  END
> <s_m_entry_id>
5820

> <s_m_entry_name>
dock_pv.215

> <s_m_Source_Path>
/home/csk/Desktop/cluster/DUD-E-result/igf1r

> <s_m_Source_File>
dock_pv.maegz

> <i_m_Source_File_Index>
215

> <chembl_id>
CHEMBL1974328

> <chembl_pref_name>
None

> <i_lp_mmshare_version>
53161

> <r_lp_tautomer_probability>
1

> <s_lp_Force_Field>
OPLS_2005

> <r_lp_Energy>
37.518761

> <b_lp_Chiralities_Consistent>
1

> <s_lp_Variant>
CHEMBL1957_lig3056-4

> <s_i_glide_gridfile>
glide-grid_2oj9

> <i_i_glide_lignum>
4239

> <i_i_glide_rotatable_bonds>
5

> <r_i_docking_score>
-7.09559873823182

> <r_i_glide_ligand_efficiency>
-0.283823949529273

> <r_i_glide_ligand_efficiency_sa>
-0.829906262062771

> <r_i_glide_ligand_efficiency_ln>
-1.6818695388963

> <r_i_glide_gscore>
-7.09559873823182

> <r_i_glide_lipo>
-3.4372367741798

> <r_i_glide_hbond>
-0.185102469552408

> <r_i_glide_metal>
0

> <r_i_glide_rewards>
-1.66438279151324

> <r_i_glide_evdw>
-38.6675987243652

> <r_i_glide_ecoul>
-3.52756953239441

> <r_i_glide_erotb>
0.653638663091057

> <r_i_glide_esite>
0

> <r_i_glide_emodel>
-53.6197200807858

> <r_i_glide_energy>
-42.1951682567596

> <r_i_glide_einternal>
7.69421815872192

> <i_i_glide_confnum>
14

> <i_i_glide_posenum>
142

> <r_i_glide_eff_state_penalty>
0

> <s_user_duplicate_titles>
CHEMBL1957_lig3056

> <i_f3d_flags>
0

> <s_m_subgroup_title>
dock_pv

> <s_m_subgroupid>
dock_pv

> <b_m_subgroup_collapsed>
1

$$$$
CHEMBL1957_lig1042
                    3D
 Schrodinger Suite 2021-1.
 53 56  0  0  1  0            999 V2000
    3.0381   -2.3844   18.3586 C   0  0  0  0  0  0
    3.9769   -2.0121   19.4971 C   0  0  0  0  0  0
    3.1065   -3.8979   18.1840 C   0  0  0  0  0  0
    4.4160   -5.9057   21.0380 C   0  0  0  0  0  0
    7.2590   -3.8087   23.3262 C   0  0  0  0  0  0
    4.8002   -3.6300   21.4154 C   0  0  0  0  0  0
    3.6380   -5.6703   19.9354 N   0  0  0  0  0  0
    8.1590   -3.3764   24.2637 C   0  0  0  0  0  0
    4.1030   -3.3141   20.2546 C   0  0  0  0  0  0
    5.4282   -2.5958   22.1154 N   0  0  0  0  0  0
    3.5412   -4.3717   19.5446 C   0  0  0  0  0  0
    6.4595   -2.7031   23.0025 C   0  0  0  0  0  0
    7.8598   -2.0540   24.4163 N   0  0  0  0  0  0
    6.8378   -1.6386   23.6668 N   0  0  0  0  0  0
    4.9480   -4.9217   21.8142 N   0  0  0  0  0  0
    9.2380   -4.0624   25.0406 C   0  0  0  0  0  0
    4.8864   -7.2039   21.2730 N   0  0  0  0  0  0
    4.4380   -8.3557   20.4603 C   0  0  0  0  0  0
    5.2380   -9.6779   20.5331 C   0  0  0  0  0  0
    5.8033   -9.9882   21.9154 C   0  0  0  0  0  0
    6.5381   -8.7292   22.4024 C   0  0  1  0  0  0
    5.4943   -7.6010   22.5635 C   0  0  0  0  0  0
    7.3014   -8.9676   23.7206 C   0  0  0  0  0  0
    7.2744  -10.0488   24.3126 O   0  0  0  0  0  0
    7.9882   -7.8719   24.1239 O   0  0  0  0  0  0
    8.8185   -7.9025   25.2811 C   0  0  0  0  0  0
   10.2138   -8.4538   24.9490 C   0  0  0  0  0  0
    3.2380   -1.8373   17.4379 H   0  0  0  0  0  0
    2.0380   -2.1148   18.6688 H   0  0  0  0  0  0
    3.5754   -1.1942   20.0950 H   0  0  0  0  0  0
    4.9404   -1.6980   19.0921 H   0  0  0  0  0  0
    3.8596   -4.1438   17.4380 H   0  0  0  0  0  0
    2.1571   -4.3051   17.8380 H   0  0  0  0  0  0
    7.1980   -4.8098   22.9311 H   0  0  0  0  0  0
    5.1974   -1.6849   21.7558 H   0  0  0  0  0  0
    8.3936   -1.4120   24.9912 H   0  0  0  0  0  0
    9.6808   -4.8877   24.4822 H   0  0  0  0  0  0
   10.0380   -3.3674   25.2844 H   0  0  0  0  0  0
    8.8623   -4.4595   25.9821 H   0  0  0  0  0  0
    4.4996   -8.0301   19.4258 H   0  0  0  0  0  0
    3.3861   -8.5432   20.6380 H   0  0  0  0  0  0
    6.0380   -9.6540   19.8032 H   0  0  0  0  0  0
    4.6015  -10.5009   20.2051 H   0  0  0  0  0  0
    6.4847  -10.8362   21.8213 H   0  0  0  0  0  0
    5.0040  -10.2738   22.5993 H   0  0  0  0  0  0
    7.2954   -8.4476   21.6706 H   0  0  0  0  0  0
    4.7021   -7.8977   23.2537 H   0  0  0  0  0  0
    5.9714   -6.7556   23.0587 H   0  0  0  0  0  0
    8.3530   -8.4782   26.0836 H   0  0  0  0  0  0
    8.9129   -6.8833   25.6550 H   0  0  0  0  0  0
   10.8519   -8.4540   25.8324 H   0  0  0  0  0  0
   10.7038   -7.8501   24.1835 H   0  0  0  0  0  0
   10.1603   -9.4789   24.5813 H   0  0  0  0  0  0
  1  3  1  0  0  0
  1  2  1  0  0  0
  1 28  1  0  0  0
  1 29  1  0  0  0
  2  9  1  0  0  0
  2 30  1  0  0  0
  2 31  1  0  0  0
  3 11  1  0  0  0
  3 32  1  0  0  0
  3 33  1  0  0  0
  4  7  1  0  0  0
  4 15  2  0  0  0
  4 17  1  0  0  0
  5  8  2  0  0  0
  5 12  1  0  0  0
  5 34  1  0  0  0
  6  9  2  0  0  0
  6 10  1  0  0  0
  6 15  1  0  0  0
  7 11  2  0  0  0
  8 13  1  0  0  0
  8 16  1  0  0  0
  9 11  1  0  0  0
 10 12  1  0  0  0
 10 35  1  0  0  0
 12 14  2  0  0  0
 13 14  1  0  0  0
 13 36  1  0  0  0
 16 37  1  0  0  0
 16 38  1  0  0  0
 16 39  1  0  0  0
 17 18  1  0  0  0
 17 22  1  0  0  0
 18 19  1  0  0  0
 18 40  1  0  0  0
 18 41  1  0  0  0
 19 20  1  0  0  0
 19 42  1  0  0  0
 19 43  1  0  0  0
 20 21  1  0  0  0
 20 44  1  0  0  0
 20 45  1  0  0  0
 21 22  1  0  0  0
 21 23  1  0  0  0
 21 46  1  0  0  0
 22 47  1  0  0  0
 22 48  1  0  0  0
 23 24  2  0  0  0
 23 25  1  0  0  0
 25 26  1  0  0  0
 26 27  1  0  0  0
 26 49  1  0  0  0
 26 50  1  0  0  0
 27 51  1  0  0  0
 27 52  1  0  0  0
 27 53  1  0  0  0
M  END
> <s_m_entry_id>
5821

> <s_m_entry_name>
dock_pv.216

> <s_m_Source_Path>
/home/csk/Desktop/cluster/DUD-E-result/igf1r

> <s_m_Source_File>
dock_pv.maegz

> <i_m_Source_File_Index>
216

> <chembl_id>
CHEMBL3409731

> <chembl_pref_name>
None

> <i_lp_mmshare_version>
53161

> <r_lp_tautomer_probability>
0.842599982216935

> <s_lp_Force_Field>
OPLS_2005

> <r_lp_Energy>
24.076403

> <b_lp_Chiralities_Consistent>
1

> <s_lp_Variant>
CHEMBL1957_lig1042-2

> <s_i_glide_gridfile>
glide-grid_2oj9

> <i_i_glide_lignum>
1330

> <i_i_glide_rotatable_bonds>
6

> <r_i_docking_score>
-7.09420085881538

> <r_i_glide_ligand_efficiency>
-0.262748179956125

> <r_i_glide_ligand_efficiency_sa>
-0.7882445390024

> <r_i_glide_ligand_efficiency_ln>
-1.65141300289037

> <r_i_glide_gscore>
-7.09420085881538

> <r_i_glide_lipo>
-3.16114900901737

> <r_i_glide_hbond>
-0.285090619307338

> <r_i_glide_metal>
0

> <r_i_glide_rewards>
-1.84298532165737

> <r_i_glide_evdw>
-41.5481109619141

> <r_i_glide_ecoul>
-2.75932192802429

> <r_i_glide_erotb>
0.702903421034293

> <r_i_glide_esite>
-0.0165754925682497

> <r_i_glide_emodel>
-53.3420618366125

> <r_i_glide_energy>
-44.3074328899384

> <r_i_glide_einternal>
2.4840202331543

> <i_i_glide_confnum>
30

> <i_i_glide_posenum>
108

> <r_i_glide_eff_state_penalty>
0

> <s_user_duplicate_titles>
CHEMBL1957_lig1042

> <i_f3d_flags>
0

> <s_m_subgroup_title>
dock_pv

> <s_m_subgroupid>
dock_pv

> <b_m_subgroup_collapsed>
1

$$$$
CHEMBL1957_lig28
                    3D
 Schrodinger Suite 2021-1.
 57 59  0  0  1  0            999 V2000
    4.7806   -5.4094   21.1649 C   0  0  0  0  0  0
    4.6849   -3.9582   21.3799 C   0  0  0  0  0  0
    4.0381   -6.1007   20.2384 C   0  0  0  0  0  0
    5.4582   -3.3532   22.2227 N   0  0  0  0  0  0
    3.2381   -3.8998   19.2285 C   0  0  0  0  0  0
    3.2380   -5.4353   19.1940 C   0  0  0  0  0  0
    3.6269   -3.2808   20.5775 C   0  0  0  0  0  0
    5.4711   -1.9056   22.5747 C   0  0  2  0  0  0
    5.9513   -6.1243   21.8561 C   0  0  0  0  0  0
    5.9203   -0.9792   21.3901 C   0  0  0  0  0  0
    5.7411   -6.4922   23.3484 C   0  0  2  0  0  0
    7.0050   -6.6366   24.2530 C   0  0  1  0  0  0
    4.1993   -7.4354   19.9959 O   0  0  0  0  0  0
    3.0286   -2.2929   20.9947 O   0  0  0  0  0  0
    6.0380   -1.3795   20.2382 O   0  0  0  0  0  0
    6.3977   -1.7153   23.8311 C   0  0  1  0  0  0
    7.9370   -7.8147   23.8503 C   0  0  1  0  0  0
    2.6730   -6.0537   18.2918 O   0  0  0  0  0  0
    6.0379    0.3343   21.7209 O   0  0  0  0  0  0
    7.7671   -1.9295   23.5500 O   0  0  0  0  0  0
    4.9497   -7.8021   23.4407 C   0  0  0  0  0  0
    5.7838   -9.0072   22.9249 C   0  0  0  0  0  0
    7.8247   -5.3556   24.5526 C   0  0  0  0  0  0
    7.1476   -9.1379   23.6460 C   0  0  0  0  0  0
    8.8422   -7.4223   22.6579 C   0  0  0  0  0  0
    6.2647   -0.4071   24.6361 C   0  0  0  0  0  0
    8.7996   -4.9329   23.4432 C   0  0  0  0  0  0
    9.6211   -6.1094   22.8901 C   0  0  0  0  0  0
    2.2860   -3.5035   18.8882 H   0  0  0  0  0  0
    4.4725   -1.6516   22.9204 H   0  0  0  0  0  0
    6.2425   -6.9819   21.2608 H   0  0  0  0  0  0
    6.8188   -5.4902   21.7362 H   0  0  0  0  0  0
    5.1363   -5.7110   23.8116 H   0  0  0  0  0  0
    6.6202   -6.9153   25.2374 H   0  0  0  0  0  0
    3.7945   -7.6536   19.1477 H   0  0  0  0  0  0
    3.9836   -3.5684   18.5056 H   0  0  0  0  0  0
    6.1258   -2.4995   24.5394 H   0  0  0  0  0  0
    8.5943   -7.9617   24.7105 H   0  0  0  0  0  0
    6.3370    0.8196   20.9422 H   0  0  0  0  0  0
    8.3056   -1.5253   24.2380 H   0  0  0  0  0  0
    4.6406   -7.9781   24.4682 H   0  0  0  0  0  0
    4.0391   -7.6540   22.8611 H   0  0  0  0  0  0
    5.2380   -9.9393   23.0380 H   0  0  0  0  0  0
    5.9476   -8.9469   21.8513 H   0  0  0  0  0  0
    7.1619   -4.5371   24.8283 H   0  0  0  0  0  0
    8.4359   -5.5391   25.4379 H   0  0  0  0  0  0
    6.9427   -9.5433   24.6374 H   0  0  0  0  0  0
    7.7764   -9.8960   23.1774 H   0  0  0  0  0  0
    9.5471   -8.2312   22.4596 H   0  0  0  0  0  0
    8.2768   -7.3511   21.7349 H   0  0  0  0  0  0
    5.2378   -0.2452   24.9564 H   0  0  0  0  0  0
    6.5933    0.4726   24.0870 H   0  0  0  0  0  0
    6.8729   -0.4481   25.5396 H   0  0  0  0  0  0
    9.4868   -4.1845   23.8414 H   0  0  0  0  0  0
    8.2863   -4.4083   22.6422 H   0  0  0  0  0  0
   10.4541   -6.3064   23.5648 H   0  0  0  0  0  0
   10.0380   -5.7884   21.9386 H   0  0  0  0  0  0
  1  2  1  0  0  0
  1  3  2  0  0  0
  1  9  1  0  0  0
  2  4  2  0  0  0
  2  7  1  0  0  0
  3 13  1  0  0  0
  3  6  1  0  0  0
  4  8  1  0  0  0
  5  7  1  0  0  0
  5  6  1  0  0  0
  5 29  1  0  0  0
  5 36  1  0  0  0
  6 18  2  0  0  0
  7 14  2  0  0  0
  8 10  1  0  0  0
  8 16  1  0  0  0
  8 30  1  0  0  0
  9 11  1  0  0  0
  9 31  1  0  0  0
  9 32  1  0  0  0
 10 15  2  0  0  0
 10 19  1  0  0  0
 11 12  1  0  0  0
 11 21  1  0  0  0
 11 33  1  0  0  0
 12 17  1  0  0  0
 12 23  1  0  0  0
 12 34  1  0  0  0
 13 35  1  0  0  0
 16 20  1  0  0  0
 16 26  1  0  0  0
 16 37  1  0  0  0
 17 25  1  0  0  0
 17 24  1  0  0  0
 17 38  1  0  0  0
 19 39  1  0  0  0
 20 40  1  0  0  0
 21 22  1  0  0  0
 21 41  1  0  0  0
 21 42  1  0  0  0
 22 24  1  0  0  0
 22 43  1  0  0  0
 22 44  1  0  0  0
 23 27  1  0  0  0
 23 45  1  0  0  0
 23 46  1  0  0  0
 24 47  1  0  0  0
 24 48  1  0  0  0
 25 28  1  0  0  0
 25 49  1  0  0  0
 25 50  1  0  0  0
 26 51  1  0  0  0
 26 52  1  0  0  0
 26 53  1  0  0  0
 27 28  1  0  0  0
 27 54  1  0  0  0
 27 55  1  0  0  0
 28 56  1  0  0  0
 28 57  1  0  0  0
M  END
> <s_m_entry_id>
5822

> <s_m_entry_name>
dock_pv.217

> <s_m_Source_Path>
/home/csk/Desktop/cluster/DUD-E-result/igf1r

> <s_m_Source_File>
dock_pv.maegz

> <i_m_Source_File_Index>
217

> <chembl_id>
CHEMBL442388

> <chembl_pref_name>
None

> <i_lp_mmshare_version>
53161

> <r_lp_tautomer_probability>
0.818181818181818

> <s_lp_Force_Field>
OPLS_2005

> <r_lp_Energy>
36.961293

> <b_lp_Chiralities_Consistent>
1

> <s_lp_Variant>
CHEMBL1957_lig28-13

> <s_i_glide_gridfile>
glide-grid_2oj9

> <i_i_glide_lignum>
66

> <i_i_glide_rotatable_bonds>
8

> <r_i_docking_score>
-7.09382040088895

> <r_i_glide_ligand_efficiency>
-0.253350728603177

> <r_i_glide_ligand_efficiency_sa>
-0.769322027638558

> <r_i_glide_ligand_efficiency_ln>
-1.63746203214263

> <r_i_glide_gscore>
-7.09382040088895

> <r_i_glide_lipo>
-2.39841603067721

> <r_i_glide_hbond>
-0.302347051817933

> <r_i_glide_metal>
0

> <r_i_glide_rewards>
-2.46482986840352

> <r_i_glide_evdw>
-29.8033752441406

> <r_i_glide_ecoul>
-5.89186000823975

> <r_i_glide_erotb>
0.445720313452715

> <r_i_glide_esite>
0

> <r_i_glide_emodel>
-44.1557256121379

> <r_i_glide_energy>
-35.6952352523804

> <r_i_glide_einternal>
4.66768741607666

> <i_i_glide_confnum>
75

> <i_i_glide_posenum>
296

> <r_i_glide_eff_state_penalty>
0

> <s_user_duplicate_titles>
CHEMBL1957_lig28

> <i_f3d_flags>
0

> <s_m_subgroup_title>
dock_pv

> <s_m_subgroupid>
dock_pv

> <b_m_subgroup_collapsed>
1

$$$$
CHEMBL1957_lig3003
                    3D
 Schrodinger Suite 2021-1.
 50 54  0  0  1  0            999 V2000
    5.5947   -1.2557   23.8087 F   0  0  0  0  0  0
    9.6105   -3.0144   25.5779 F   0  0  0  0  0  0
    8.8381   -6.9428   25.4375 O   0  0  0  0  0  0
    4.1395   -3.6540   20.0658 N   0  0  0  0  0  0
    6.0077   -7.7216   21.9376 N   0  0  0  0  0  0
    5.2411   -2.0469   21.1102 N   0  0  0  0  0  0
    5.8588   -6.3708   22.0223 N   0  0  0  0  0  0
    6.6949   -9.8185   22.1433 N   0  0  0  0  0  0
    5.6395   -9.8484   21.2583 N   0  0  0  0  0  0
    4.8365   -4.2998   21.0832 C   0  0  0  0  0  0
    5.5282   -3.2091   21.6856 C   0  0  0  0  0  0
    4.8763   -5.8239   21.2378 C   0  0  0  0  0  0
    4.4644   -2.3417   20.1195 C   0  0  0  0  0  0
    6.9421   -8.5767   22.5302 C   0  0  0  0  0  0
    5.2380   -8.5714   21.1243 C   0  0  0  0  0  0
    6.5842   -3.1664   22.7388 C   0  0  0  0  0  0
    8.1632   -8.1919   23.3980 C   0  0  0  0  0  0
    4.0419   -6.6231   20.4445 C   0  0  0  0  0  0
    3.4014   -3.9934   18.8605 C   0  0  0  0  0  0
    4.2472   -7.9939   20.3358 C   0  0  0  0  0  0
    3.9534   -1.5967   18.9242 C   0  0  0  0  0  0
    6.5888   -2.1689   23.7262 C   0  0  0  0  0  0
    3.3085   -2.6882   18.0715 C   0  0  0  0  0  0
    7.6576   -4.0600   22.6839 C   0  0  0  0  0  0
    7.7435   -7.2928   24.5975 C   0  0  0  0  0  0
    7.6324   -2.0933   24.6381 C   0  0  0  0  0  0
    8.6537   -4.0441   23.6577 C   0  0  0  0  0  0
    8.8579   -9.4645   23.9664 C   0  0  0  0  0  0
    9.1953   -7.4779   22.4929 C   0  0  0  0  0  0
    8.6394   -3.0559   24.6377 C   0  0  0  0  0  0
    8.4819   -6.4539   26.1956 H   0  0  0  0  0  0
    3.2545   -6.2126   19.8453 H   0  0  0  0  0  0
    3.9214   -4.7574   18.2813 H   0  0  0  0  0  0
    2.4381   -4.4120   19.1076 H   0  0  0  0  0  0
    3.6463   -8.5949   19.6700 H   0  0  0  0  0  0
    3.2382   -0.8524   19.2261 H   0  0  0  0  0  0
    4.7426   -1.0649   18.3899 H   0  0  0  0  0  0
    3.8262   -2.7973   17.1171 H   0  0  0  0  0  0
    2.2696   -2.4546   17.8380 H   0  0  0  0  0  0
    7.7305   -4.7603   21.8700 H   0  0  0  0  0  0
    6.9969   -7.8060   25.2059 H   0  0  0  0  0  0
    7.2608   -6.3770   24.2638 H   0  0  0  0  0  0
    7.6373   -1.3115   25.3809 H   0  0  0  0  0  0
    9.4657   -4.7560   23.6267 H   0  0  0  0  0  0
    9.7600   -9.2217   24.5297 H   0  0  0  0  0  0
    8.1946  -10.0176   24.6326 H   0  0  0  0  0  0
    9.1618  -10.1510   23.1748 H   0  0  0  0  0  0
   10.0380   -7.0912   23.0668 H   0  0  0  0  0  0
    9.6073   -8.1551   21.7439 H   0  0  0  0  0  0
    8.7625   -6.6434   21.9493 H   0  0  0  0  0  0
  1 22  1  0  0  0
  2 30  1  0  0  0
  3 25  1  0  0  0
  3 31  1  0  0  0
  4 10  1  0  0  0
  4 13  1  0  0  0
  4 19  1  0  0  0
  5  7  1  0  0  0
  5 14  1  0  0  0
  5 15  1  0  0  0
  6 11  1  0  0  0
  6 13  2  0  0  0
  7 12  2  0  0  0
  8  9  1  0  0  0
  8 14  2  0  0  0
  9 15  2  0  0  0
 10 11  2  0  0  0
 10 12  1  0  0  0
 11 16  1  0  0  0
 12 18  1  0  0  0
 13 21  1  0  0  0
 14 17  1  0  0  0
 15 20  1  0  0  0
 16 22  1  0  0  0
 16 24  2  0  0  0
 17 25  1  0  0  0
 17 28  1  0  0  0
 17 29  1  0  0  0
 18 20  2  0  0  0
 18 32  1  0  0  0
 19 23  1  0  0  0
 19 33  1  0  0  0
 19 34  1  0  0  0
 20 35  1  0  0  0
 21 23  1  0  0  0
 21 36  1  0  0  0
 21 37  1  0  0  0
 22 26  2  0  0  0
 23 38  1  0  0  0
 23 39  1  0  0  0
 24 27  1  0  0  0
 24 40  1  0  0  0
 25 41  1  0  0  0
 25 42  1  0  0  0
 26 30  1  0  0  0
 26 43  1  0  0  0
 27 30  2  0  0  0
 27 44  1  0  0  0
 28 45  1  0  0  0
 28 46  1  0  0  0
 28 47  1  0  0  0
 29 48  1  0  0  0
 29 49  1  0  0  0
 29 50  1  0  0  0
M  END
> <s_m_entry_id>
5824

> <s_m_entry_name>
dock_pv.219

> <s_m_Source_Path>
/home/csk/Desktop/cluster/DUD-E-result/igf1r

> <s_m_Source_File>
dock_pv.maegz

> <i_m_Source_File_Index>
219

> <chembl_id>
CHEMBL1996587

> <chembl_pref_name>
None

> <i_lp_mmshare_version>
53161

> <r_lp_tautomer_probability>
1

> <s_lp_Force_Field>
OPLS_2005

> <r_lp_Energy>
46.700351

> <b_lp_Chiralities_Consistent>
1

> <s_lp_Variant>
CHEMBL1957_lig3003-1

> <s_i_glide_gridfile>
glide-grid_2oj9

> <i_i_glide_lignum>
4164

> <i_i_glide_rotatable_bonds>
5

> <r_i_docking_score>
-7.09349865498158

> <r_i_glide_ligand_efficiency>
-0.236449955166053

> <r_i_glide_ligand_efficiency_sa>
-0.734704985890332

> <r_i_glide_ligand_efficiency_ln>
-1.61172018427009

> <r_i_glide_gscore>
-7.09349865498158

> <r_i_glide_lipo>
-2.41680841017915

> <r_i_glide_hbond>
-0.32

> <r_i_glide_metal>
0

> <r_i_glide_rewards>
-2.41077336818182

> <r_i_glide_evdw>
-35.2700729370117

> <r_i_glide_ecoul>
-4.33482551574707

> <r_i_glide_erotb>
0.46781059759204

> <r_i_glide_esite>
0

> <r_i_glide_emodel>
-47.504492892767

> <r_i_glide_energy>
-39.6048984527588

> <r_i_glide_einternal>
2.80780839920044

> <i_i_glide_confnum>
64

> <i_i_glide_posenum>
381

> <r_i_glide_eff_state_penalty>
0

> <s_user_duplicate_titles>
CHEMBL1957_lig3003

> <i_f3d_flags>
0

> <s_m_subgroup_title>
dock_pv

> <s_m_subgroupid>
dock_pv

> <b_m_subgroup_collapsed>
1

$$$$
CHEMBL1957_lig1575
                    3D
 Schrodinger Suite 2021-1.
 50 54  0  0  1  0            999 V2000
    7.7246   -7.3732   23.4924 C   0  0  0  0  0  0
    8.0523   -5.9957   23.6603 C   0  0  0  0  0  0
    7.0793   -5.2143   22.9529 C   0  0  0  0  0  0
    6.6259   -7.4461   22.6449 N   0  0  0  0  0  0
    6.2526   -6.1478   22.3497 C   0  0  0  0  0  0
    8.3841   -8.3924   24.0658 N   0  0  0  0  0  0
    9.1826   -5.7454   24.4492 C   0  0  0  0  0  0
    6.8769   -3.7363   22.9547 C   0  0  0  0  0  0
    9.8808   -6.7422   25.0380 N   0  0  0  0  0  0
    9.4441   -8.0045   24.8191 C   0  0  0  0  0  0
    5.8803   -8.6519   22.2391 C   0  0  0  0  0  0
    6.4453   -3.1153   21.7887 C   0  0  0  0  0  0
    5.9330   -1.8110   21.8173 C   0  0  0  0  0  0
    5.2379   -1.2722   20.7525 O   0  0  0  0  0  0
    9.6380   -4.4535   24.6400 N   0  0  0  0  0  0
    4.3880   -2.0544   19.9851 C   0  0  0  0  0  0
    7.0101   -2.9662   24.1123 C   0  0  0  0  0  0
    6.6401   -1.6210   24.1208 C   0  0  0  0  0  0
    6.0733   -1.0539   22.9799 C   0  0  0  0  0  0
    5.1194   -8.5024   20.9009 C   0  0  0  0  0  0
    6.7444   -9.9069   22.0171 C   0  0  0  0  0  0
    4.0491   -1.5905   18.7151 C   0  0  0  0  0  0
    3.8780   -3.2925   20.4144 C   0  0  0  0  0  0
    5.8573  -10.8292   21.1870 C   0  0  0  0  0  0
    5.1196   -9.8889   20.2380 C   0  0  0  0  0  0
    3.2380   -4.1379   19.5228 C   0  0  0  0  0  0
    3.3271   -2.4045   17.8471 C   0  0  0  0  0  0
    2.9667   -3.6888   18.2379 C   0  0  0  0  0  0
    5.3683   -5.9743   21.7548 H   0  0  0  0  0  0
   10.0118   -8.7929   25.2914 H   0  0  0  0  0  0
    5.1765   -8.8569   23.0479 H   0  0  0  0  0  0
    6.3836   -3.6951   20.8806 H   0  0  0  0  0  0
    9.2745   -3.7108   24.0594 H   0  0  0  0  0  0
   10.4798   -4.3281   25.1757 H   0  0  0  0  0  0
    7.3532   -3.4284   25.0237 H   0  0  0  0  0  0
    6.7410   -1.0377   25.0242 H   0  0  0  0  0  0
    5.7186   -0.0353   23.0026 H   0  0  0  0  0  0
    4.1071   -8.1207   21.0399 H   0  0  0  0  0  0
    5.6379   -7.8134   20.2330 H   0  0  0  0  0  0
    7.6400   -9.6648   21.4413 H   0  0  0  0  0  0
    7.0485  -10.3855   22.9487 H   0  0  0  0  0  0
    4.3945   -0.6214   18.3853 H   0  0  0  0  0  0
    4.0359   -3.6497   21.4200 H   0  0  0  0  0  0
    5.1446  -11.3442   21.8348 H   0  0  0  0  0  0
    6.4281  -11.5928   20.6562 H   0  0  0  0  0  0
    4.1182  -10.2506   20.0160 H   0  0  0  0  0  0
    5.6378   -9.8457   19.2830 H   0  0  0  0  0  0
    2.9127   -5.1189   19.8371 H   0  0  0  0  0  0
    3.0738   -2.0540   16.8600 H   0  0  0  0  0  0
    2.4370   -4.3248   17.5436 H   0  0  0  0  0  0
  1  2  1  0  0  0
  1  4  1  0  0  0
  1  6  2  0  0  0
  2  3  1  0  0  0
  2  7  2  0  0  0
  3  8  1  0  0  0
  3  5  2  0  0  0
  4  5  1  0  0  0
  4 11  1  0  0  0
  5 29  1  0  0  0
  6 10  1  0  0  0
  7 15  1  0  0  0
  7  9  1  0  0  0
  8 12  2  0  0  0
  8 17  1  0  0  0
  9 10  2  0  0  0
 10 30  1  0  0  0
 11 20  1  0  0  0
 11 21  1  0  0  0
 11 31  1  0  0  0
 12 13  1  0  0  0
 12 32  1  0  0  0
 13 14  1  0  0  0
 13 19  2  0  0  0
 14 16  1  0  0  0
 15 33  1  0  0  0
 15 34  1  0  0  0
 16 22  2  0  0  0
 16 23  1  0  0  0
 17 18  2  0  0  0
 17 35  1  0  0  0
 18 19  1  0  0  0
 18 36  1  0  0  0
 19 37  1  0  0  0
 20 25  1  0  0  0
 20 38  1  0  0  0
 20 39  1  0  0  0
 21 24  1  0  0  0
 21 40  1  0  0  0
 21 41  1  0  0  0
 22 27  1  0  0  0
 22 42  1  0  0  0
 23 26  2  0  0  0
 23 43  1  0  0  0
 24 25  1  0  0  0
 24 44  1  0  0  0
 24 45  1  0  0  0
 25 46  1  0  0  0
 25 47  1  0  0  0
 26 28  1  0  0  0
 26 48  1  0  0  0
 27 28  2  0  0  0
 27 49  1  0  0  0
 28 50  1  0  0  0
M  END
> <s_m_entry_id>
5825

> <s_m_entry_name>
dock_pv.220

> <s_m_Source_Path>
/home/csk/Desktop/cluster/DUD-E-result/igf1r

> <s_m_Source_File>
dock_pv.maegz

> <i_m_Source_File_Index>
220

> <chembl_id>
CHEMBL69638

> <chembl_pref_name>
None

> <i_lp_mmshare_version>
53161

> <r_lp_tautomer_probability>
1

> <s_lp_Force_Field>
OPLS_2005

> <r_lp_Energy>
40.463758

> <b_lp_Chiralities_Consistent>
1

> <s_lp_Variant>
CHEMBL1957_lig1575-1

> <s_i_glide_gridfile>
glide-grid_2oj9

> <i_i_glide_lignum>
2257

> <i_i_glide_rotatable_bonds>
4

> <r_i_docking_score>
-7.08384672815145

> <r_i_glide_ligand_efficiency>
-0.252994526005409

> <r_i_glide_ligand_efficiency_sa>
-0.768240386759624

> <r_i_glide_ligand_efficiency_ln>
-1.63515981563506

> <r_i_glide_gscore>
-7.08384672815145

> <r_i_glide_lipo>
-4.0316771554514

> <r_i_glide_hbond>
0

> <r_i_glide_metal>
0

> <r_i_glide_rewards>
-1.61670885229609

> <r_i_glide_evdw>
-42.2203598022461

> <r_i_glide_ecoul>
0.754865050315857

> <r_i_glide_erotb>
0.562327512160967

> <r_i_glide_esite>
0

> <r_i_glide_emodel>
-57.5172983595765

> <r_i_glide_energy>
-41.4654947519302

> <r_i_glide_einternal>
3.45605707168579

> <i_i_glide_confnum>
17

> <i_i_glide_posenum>
303

> <r_i_glide_eff_state_penalty>
0

> <s_user_duplicate_titles>
CHEMBL1957_lig1575

> <i_f3d_flags>
0

> <s_m_subgroup_title>
dock_pv

> <s_m_subgroupid>
dock_pv

> <b_m_subgroup_collapsed>
1

$$$$
CHEMBL1957_lig530
                    3D
 Schrodinger Suite 2021-1.
 56 60  0  0  1  0            999 V2000
    4.6401   -1.8520   20.5025 C   0  0  0  0  0  0
    3.9696   -6.5458   20.2581 C   0  0  0  0  0  0
    3.2854   -6.7962   19.0492 C   0  0  0  0  0  0
    2.8319   -5.8504   18.2379 N   0  0  0  0  0  0
    4.0452   -5.2067   20.6776 C   0  0  0  0  0  0
    3.6417   -4.1890   19.8017 C   0  0  0  0  0  0
    3.0763   -4.6114   18.5942 C   0  0  0  0  0  0
    2.8334   -3.5156   17.8379 N   0  0  0  0  0  0
    3.1716   -2.4017   18.5231 C   0  0  0  0  0  0
    3.8397   -2.7722   19.6767 C   0  0  0  0  0  0
    4.5974   -7.6454   21.0508 C   0  0  0  0  0  0
    4.9838   -7.4597   22.3909 C   0  0  0  0  0  0
    5.6342   -8.4659   23.1023 C   0  0  0  0  0  0
    5.8971   -9.6894   22.4939 C   0  0  0  0  0  0
    5.4858   -9.9156   21.1839 C   0  0  0  0  0  0
    4.8468   -8.9014   20.4685 C   0  0  0  0  0  0
    5.1675   -2.1535   21.7652 C   0  0  0  0  0  0
    5.8892   -1.1767   22.4590 C   0  0  0  0  0  0
    6.0373    0.0901   21.9263 C   0  0  0  0  0  0
    5.5906    0.3455   20.6432 C   0  0  0  0  0  0
    4.9239   -0.6126   19.9216 C   0  0  0  0  0  0
    6.4513   -1.3840   23.7069 N   0  0  0  0  0  0
    7.4500   -2.2302   23.9859 C   0  0  0  0  0  0
    7.7045   -3.1948   23.0732 N   0  0  0  0  0  0
    8.0364   -2.0599   25.0389 O   0  0  0  0  0  0
    8.2454   -4.4837   23.2269 C   0  0  0  0  0  0
    7.8461   -5.3991   22.2475 C   0  0  0  0  0  0
    8.2886   -6.7201   22.2778 C   0  0  0  0  0  0
    9.1289   -7.1626   23.3024 C   0  0  0  0  0  0
    9.5674   -6.2389   24.2577 C   0  0  0  0  0  0
    9.1454   -4.9093   24.2245 C   0  0  0  0  0  0
    9.6248   -4.0785   25.1703 F   0  0  0  0  0  0
    9.5767   -8.6238   23.3639 C   0  0  0  0  0  0
    9.6407   -9.1617   22.1448 F   0  0  0  0  0  0
    8.6942   -9.3148   24.0830 F   0  0  0  0  0  0
   10.7725   -8.7535   23.9401 F   0  0  0  0  0  0
    5.7199  -11.1535   20.5922 N   0  0  0  0  0  0
    3.1024   -7.7988   18.6949 H   0  0  0  0  0  0
    4.5662   -4.9610   21.5819 H   0  0  0  0  0  0
    2.3777   -3.4756   16.9247 H   0  0  0  0  0  0
    3.0493   -1.4426   18.0414 H   0  0  0  0  0  0
    4.7956   -6.5320   22.9129 H   0  0  0  0  0  0
    5.9309   -8.2981   24.1283 H   0  0  0  0  0  0
    6.3906  -10.4709   23.0550 H   0  0  0  0  0  0
    4.5782   -9.1005   19.4406 H   0  0  0  0  0  0
    4.9886   -3.1004   22.2397 H   0  0  0  0  0  0
    6.4476    0.8965   22.5077 H   0  0  0  0  0  0
    5.6387    1.3339   20.2377 H   0  0  0  0  0  0
    4.5898   -0.3332   18.9350 H   0  0  0  0  0  0
    6.3517   -0.6302   24.3704 H   0  0  0  0  0  0
    7.2869   -3.0386   22.1695 H   0  0  0  0  0  0
    7.1724   -5.1017   21.4578 H   0  0  0  0  0  0
    7.9452   -7.4062   21.5167 H   0  0  0  0  0  0
   10.2431   -6.5548   25.0383 H   0  0  0  0  0  0
    6.0271  -11.9139   21.1817 H   0  0  0  0  0  0
    5.2973  -11.3568   19.6917 H   0  0  0  0  0  0
  1 21  1  0  0  0
  1 10  1  0  0  0
  1 17  2  0  0  0
  2  5  1  0  0  0
  2  3  2  0  0  0
  2 11  1  0  0  0
  3  4  1  0  0  0
  3 38  1  0  0  0
  4  7  2  0  0  0
  5  6  2  0  0  0
  5 39  1  0  0  0
  6 10  1  0  0  0
  6  7  1  0  0  0
  7  8  1  0  0  0
  8  9  1  0  0  0
  8 40  1  0  0  0
  9 10  2  0  0  0
  9 41  1  0  0  0
 11 12  2  0  0  0
 11 16  1  0  0  0
 12 13  1  0  0  0
 12 42  1  0  0  0
 13 14  2  0  0  0
 13 43  1  0  0  0
 14 15  1  0  0  0
 14 44  1  0  0  0
 15 16  2  0  0  0
 15 37  1  0  0  0
 16 45  1  0  0  0
 17 18  1  0  0  0
 17 46  1  0  0  0
 18 19  2  0  0  0
 18 22  1  0  0  0
 19 20  1  0  0  0
 19 47  1  0  0  0
 20 21  2  0  0  0
 20 48  1  0  0  0
 21 49  1  0  0  0
 22 23  1  0  0  0
 22 50  1  0  0  0
 23 24  1  0  0  0
 23 25  2  0  0  0
 24 26  1  0  0  0
 24 51  1  0  0  0
 26 27  2  0  0  0
 26 31  1  0  0  0
 27 28  1  0  0  0
 27 52  1  0  0  0
 28 29  2  0  0  0
 28 53  1  0  0  0
 29 30  1  0  0  0
 29 33  1  0  0  0
 30 31  2  0  0  0
 30 54  1  0  0  0
 31 32  1  0  0  0
 33 34  1  0  0  0
 33 35  1  0  0  0
 33 36  1  0  0  0
 37 55  1  0  0  0
 37 56  1  0  0  0
M  END
> <s_m_entry_id>
5826

> <s_m_entry_name>
dock_pv.221

> <s_m_Source_Path>
/home/csk/Desktop/cluster/DUD-E-result/igf1r

> <s_m_Source_File>
dock_pv.maegz

> <i_m_Source_File_Index>
221

> <chembl_id>
CHEMBL541513

> <chembl_pref_name>
None

> <i_lp_mmshare_version>
53161

> <r_lp_tautomer_probability>
0.999998432528457

> <s_lp_Force_Field>
OPLS_2005

> <r_lp_Energy>
34.661063

> <b_lp_Chiralities_Consistent>
1

> <s_lp_Variant>
CHEMBL1957_lig530-1

> <s_i_glide_gridfile>
glide-grid_2oj9

> <i_i_glide_lignum>
723

> <i_i_glide_rotatable_bonds>
7

> <r_i_docking_score>
-7.0790803445672

> <r_i_glide_ligand_efficiency>
-0.191326495799114

> <r_i_glide_ligand_efficiency_sa>
-0.637542329333283

> <r_i_glide_ligand_efficiency_ln>
-1.53528656954718

> <r_i_glide_gscore>
-7.0790803445672

> <r_i_glide_lipo>
-3.78235769049201

> <r_i_glide_hbond>
-0.862184294652278

> <r_i_glide_metal>
0

> <r_i_glide_rewards>
0.238074164809805

> <r_i_glide_evdw>
-33.4625205993652

> <r_i_glide_ecoul>
-8.24882888793945

> <r_i_glide_erotb>
0.336227504616885

> <r_i_glide_esite>
-0.0983896656904232

> <r_i_glide_emodel>
-32.5812414408681

> <r_i_glide_energy>
-41.7113494873047

> <r_i_glide_einternal>
14.1487293243408

> <i_i_glide_confnum>
6

> <i_i_glide_posenum>
117

> <r_i_glide_eff_state_penalty>
0

> <s_user_duplicate_titles>
CHEMBL1957_lig530,554178

> <i_f3d_flags>
0

> <s_m_subgroup_title>
dock_pv

> <s_m_subgroupid>
dock_pv

> <b_m_subgroup_collapsed>
1

$$$$
CHEMBL1957_lig1349
                    3D
 Schrodinger Suite 2021-1.
 42 45  0  0  1  0            999 V2000
    4.0269   -2.6847   20.0239 C   0  0  0  0  0  0
    3.2422   -3.6038   19.3242 C   0  0  0  0  0  0
    3.2380   -4.9296   19.6185 N   0  0  0  0  0  0
    4.0380   -5.3292   20.6380 C   0  0  0  0  0  0
    4.8173   -4.5023   21.3863 N   0  0  0  0  0  0
    4.8091   -3.1773   21.0799 C   0  0  0  0  0  0
    5.6120   -2.2970   21.8240 N   0  0  0  0  0  0
    4.1545   -6.7131   20.8008 N   0  0  0  0  0  0
    6.6018   -2.6041   22.7267 C   0  0  0  0  0  0
    7.2682   -3.8169   22.9663 C   0  0  0  0  0  0
    8.1946   -3.5860   23.9634 C   0  0  0  0  0  0
    8.0304   -2.2561   24.2363 N   0  0  0  0  0  0
    7.0752   -1.6626   23.5096 N   0  0  0  0  0  0
    9.2276   -4.4538   24.6453 C   0  0  0  0  0  0
    9.0848   -5.9562   24.6380 C   0  0  0  0  0  0
   10.1620   -5.2927   23.8095 C   0  0  0  0  0  0
    4.0406   -0.8538   19.4932 Br  0  0  0  0  0  0
    4.9115   -7.4858   21.6940 C   0  0  0  0  0  0
    5.3181   -8.7597   21.2842 C   0  0  0  0  0  0
    6.0412   -9.5986   22.1454 C   0  0  0  0  0  0
    6.3835   -9.1231   23.4209 C   0  0  0  0  0  0
    5.9726   -7.8593   23.8380 C   0  0  0  0  0  0
    5.2308   -7.0487   22.9846 C   0  0  0  0  0  0
    6.4332  -10.9857   21.7007 C   0  0  0  0  0  0
    6.7228  -11.2415   20.5364 O   0  0  0  0  0  0
    6.4379  -11.9311   22.6384 N   0  0  0  0  0  0
    2.6274   -3.2881   18.4925 H   0  0  0  0  0  0
    5.4963   -1.3372   21.5402 H   0  0  0  0  0  0
    3.6581   -7.2409   20.0992 H   0  0  0  0  0  0
    7.1144   -4.7579   22.4622 H   0  0  0  0  0  0
    8.6111   -1.7310   24.8776 H   0  0  0  0  0  0
    9.6378   -4.0185   25.5569 H   0  0  0  0  0  0
    9.3581   -6.5023   25.5415 H   0  0  0  0  0  0
    8.2376   -6.4039   24.1236 H   0  0  0  0  0  0
   10.0604   -5.2661   22.7233 H   0  0  0  0  0  0
   11.2027   -5.4050   24.1119 H   0  0  0  0  0  0
    5.0558   -9.1074   20.2937 H   0  0  0  0  0  0
    6.9547   -9.7334   24.1064 H   0  0  0  0  0  0
    6.2177   -7.5098   24.8308 H   0  0  0  0  0  0
    4.8991   -6.0876   23.3468 H   0  0  0  0  0  0
    6.7112  -12.8678   22.3883 H   0  0  0  0  0  0
    5.9515  -11.7592   23.5089 H   0  0  0  0  0  0
  1  2  2  0  0  0
  1  6  1  0  0  0
  1 17  1  0  0  0
  2  3  1  0  0  0
  2 27  1  0  0  0
  3  4  2  0  0  0
  4  5  1  0  0  0
  4  8  1  0  0  0
  5  6  2  0  0  0
  6  7  1  0  0  0
  7  9  1  0  0  0
  7 28  1  0  0  0
  8 18  1  0  0  0
  8 29  1  0  0  0
  9 13  2  0  0  0
  9 10  1  0  0  0
 10 11  2  0  0  0
 10 30  1  0  0  0
 11 14  1  0  0  0
 11 12  1  0  0  0
 12 31  1  0  0  0
 12 13  1  0  0  0
 14 15  1  0  0  0
 14 16  1  0  0  0
 14 32  1  0  0  0
 15 16  1  0  0  0
 15 33  1  0  0  0
 15 34  1  0  0  0
 16 35  1  0  0  0
 16 36  1  0  0  0
 18 19  2  0  0  0
 18 23  1  0  0  0
 19 20  1  0  0  0
 19 37  1  0  0  0
 20 21  2  0  0  0
 20 24  1  0  0  0
 21 22  1  0  0  0
 21 38  1  0  0  0
 22 23  2  0  0  0
 22 39  1  0  0  0
 23 40  1  0  0  0
 24 25  2  0  0  0
 24 26  1  0  0  0
 26 41  1  0  0  0
 26 42  1  0  0  0
M  END
> <s_m_entry_id>
5827

> <s_m_entry_name>
dock_pv.222

> <s_m_Source_Path>
/home/csk/Desktop/cluster/DUD-E-result/igf1r

> <s_m_Source_File>
dock_pv.maegz

> <i_m_Source_File_Index>
222

> <chembl_id>
CHEMBL3968205

> <chembl_pref_name>
None

> <i_lp_mmshare_version>
53161

> <r_lp_tautomer_probability>
0.842599949391031

> <s_lp_Force_Field>
OPLS_2005

> <r_lp_Energy>
5.884292

> <b_lp_Chiralities_Consistent>
1

> <s_lp_Variant>
CHEMBL1957_lig1349-1

> <s_i_glide_gridfile>
glide-grid_2oj9

> <i_i_glide_lignum>
1830

> <i_i_glide_rotatable_bonds>
6

> <r_i_docking_score>
-7.07656039766391

> <r_i_glide_ligand_efficiency>
-0.272175399910151

> <r_i_glide_ligand_efficiency_sa>
-0.806318551275337

> <r_i_glide_ligand_efficiency_ln>
-1.66190698930279

> <r_i_glide_gscore>
-7.07656039766391

> <r_i_glide_lipo>
-3.26335595485262

> <r_i_glide_hbond>
-0.470601899791891

> <r_i_glide_metal>
0

> <r_i_glide_rewards>
-1.07524671086873

> <r_i_glide_evdw>
-43.1834678649902

> <r_i_glide_ecoul>
-4.33284902572632

> <r_i_glide_erotb>
0.575018451722071

> <r_i_glide_esite>
-0.0332735367642853

> <r_i_glide_emodel>
-66.1695475978819

> <r_i_glide_energy>
-47.5163168907166

> <r_i_glide_einternal>
2.79748702049255

> <i_i_glide_confnum>
1

> <i_i_glide_posenum>
235

> <r_i_glide_eff_state_penalty>
0

> <s_user_duplicate_titles>
CHEMBL1957_lig1349

> <i_f3d_flags>
0

> <s_m_subgroup_title>
dock_pv

> <s_m_subgroupid>
dock_pv

> <b_m_subgroup_collapsed>
1

$$$$
CHEMBL1957_lig3125
                    3D
 Schrodinger Suite 2021-1.
 38 41  0  0  1  0            999 V2000
    8.8374   -3.3468   24.8618 O   0  0  0  0  0  0
    4.8384    0.2952   19.8391 O   0  0  0  0  0  0
    9.2799   -5.3822   23.9104 N   0  0  0  0  0  0
    5.4522   -4.0969   21.9354 N   0  0  0  0  0  0
    5.2373  -10.0078   21.1209 N   0  0  0  0  0  0
    7.0667   -4.6816   23.7194 C   0  0  2  0  0  0
    7.2591   -6.0861   23.1881 C   0  0  0  0  0  0
    6.4540   -3.6453   22.7405 C   0  0  0  0  0  0
    8.5932   -6.4232   23.3217 C   0  0  0  0  0  0
    8.4887   -4.3508   24.2407 C   0  0  0  0  0  0
    4.8533   -3.2510   21.0488 C   0  0  0  0  0  0
    5.2711   -1.9128   20.8886 C   0  0  0  0  0  0
    6.3674   -7.0178   22.6430 C   0  0  0  0  0  0
    6.8499   -2.3034   22.6987 C   0  0  0  0  0  0
    9.0793   -7.6652   22.9249 C   0  0  0  0  0  0
    6.8393   -8.2703   22.2295 C   0  0  0  0  0  0
    6.2687   -1.4581   21.7589 C   0  0  0  0  0  0
    4.8976   -1.1077   19.6325 C   0  0  1  0  0  0
    8.1948   -8.5919   22.3744 C   0  0  0  0  0  0
    3.6726   -3.7914   20.2389 C   0  0  0  0  0  0
    3.6152   -1.6269   18.9607 C   0  0  0  0  0  0
    3.5819   -3.1574   18.8435 C   0  0  0  0  0  0
    5.9432   -9.2368   21.6163 C   0  0  0  0  0  0
    5.6140    0.7094   19.4392 H   0  0  0  0  0  0
   10.2675   -5.4016   24.1128 H   0  0  0  0  0  0
    6.4105   -4.7010   24.5894 H   0  0  0  0  0  0
    5.3205   -6.7651   22.5334 H   0  0  0  0  0  0
    7.6244   -1.9066   23.3356 H   0  0  0  0  0  0
   10.1242   -7.9204   23.0403 H   0  0  0  0  0  0
    6.6453   -0.4512   21.6573 H   0  0  0  0  0  0
    5.7137   -1.2473   18.9234 H   0  0  0  0  0  0
    8.5754   -9.5555   22.0602 H   0  0  0  0  0  0
    3.7095   -4.8810   20.1700 H   0  0  0  0  0  0
    2.7638   -3.5489   20.7877 H   0  0  0  0  0  0
    3.4671   -1.1421   17.9949 H   0  0  0  0  0  0
    2.7651   -1.3047   19.5584 H   0  0  0  0  0  0
    4.4032   -3.5054   18.2163 H   0  0  0  0  0  0
    2.6628   -3.4768   18.3477 H   0  0  0  0  0  0
  1 10  2  0  0  0
  2 18  1  0  0  0
  2 24  1  0  0  0
  3  9  1  0  0  0
  3 10  1  0  0  0
  3 25  1  0  0  0
  4  8  1  0  0  0
  4 11  2  0  0  0
  5 23  3  0  0  0
  6  7  1  0  0  0
  6  8  1  0  0  0
  6 10  1  0  0  0
  6 26  1  0  0  0
  7  9  1  0  0  0
  7 13  2  0  0  0
  8 14  2  0  0  0
  9 15  2  0  0  0
 11 12  1  0  0  0
 11 20  1  0  0  0
 12 17  2  0  0  0
 12 18  1  0  0  0
 13 16  1  0  0  0
 13 27  1  0  0  0
 14 17  1  0  0  0
 14 28  1  0  0  0
 15 19  1  0  0  0
 15 29  1  0  0  0
 16 19  2  0  0  0
 16 23  1  0  0  0
 17 30  1  0  0  0
 18 21  1  0  0  0
 18 31  1  0  0  0
 19 32  1  0  0  0
 20 22  1  0  0  0
 20 33  1  0  0  0
 20 34  1  0  0  0
 21 22  1  0  0  0
 21 35  1  0  0  0
 21 36  1  0  0  0
 22 37  1  0  0  0
 22 38  1  0  0  0
M  END
> <s_m_entry_id>
5828

> <s_m_entry_name>
dock_pv.223

> <s_m_Source_Path>
/home/csk/Desktop/cluster/DUD-E-result/igf1r

> <s_m_Source_File>
dock_pv.maegz

> <i_m_Source_File_Index>
223

> <chembl_id>
CHEMBL1985681

> <chembl_pref_name>
None

> <i_lp_mmshare_version>
53161

> <r_lp_tautomer_probability>
1

> <s_lp_Force_Field>
OPLS_2005

> <r_lp_Energy>
34.63805

> <b_lp_Chiralities_Consistent>
1

> <s_lp_Variant>
CHEMBL1957_lig3125-3

> <s_i_glide_gridfile>
glide-grid_2oj9

> <i_i_glide_lignum>
4344

> <i_i_glide_rotatable_bonds>
2

> <r_i_docking_score>
-7.05976293406458

> <r_i_glide_ligand_efficiency>
-0.306946214524547

> <r_i_glide_ligand_efficiency_sa>
-0.872914203164455

> <r_i_glide_ligand_efficiency_ln>
-1.70711469184788

> <r_i_glide_gscore>
-7.05976293406458

> <r_i_glide_lipo>
-2.77523853767396

> <r_i_glide_hbond>
-0.0279262505355947

> <r_i_glide_metal>
0

> <r_i_glide_rewards>
-1.9546533838411

> <r_i_glide_evdw>
-40.375617980957

> <r_i_glide_ecoul>
-2.81159138679504

> <r_i_glide_erotb>
0.138574845053179

> <r_i_glide_esite>
0

> <r_i_glide_emodel>
-58.6730305944958

> <r_i_glide_energy>
-43.1872093677521

> <r_i_glide_einternal>
4.8579158782959

> <i_i_glide_confnum>
2

> <i_i_glide_posenum>
267

> <r_i_glide_eff_state_penalty>
0

> <s_user_duplicate_titles>
CHEMBL1957_lig3125

> <i_f3d_flags>
0

> <s_m_subgroup_title>
dock_pv

> <s_m_subgroupid>
dock_pv

> <b_m_subgroup_collapsed>
1

$$$$
CHEMBL1957_lig2955
                    3D
 Schrodinger Suite 2021-1.
 38 41  0  0  1  0            999 V2000
    5.4029   -0.3123   20.2274 N   0  0  0  0  0  0
    7.4828   -2.4017   23.2604 N   0  0  0  0  0  0
    3.8630   -1.2538   18.6376 N   0  0  0  0  0  0
    7.8779   -4.4696   24.4419 N   0  0  0  0  0  0
    6.4862   -6.3296   24.2001 N   0  0  0  0  0  0
    5.7756   -2.1169   21.5720 C   0  0  0  0  0  0
    4.7864   -2.4653   20.5756 C   0  0  0  0  0  0
    4.6213   -1.3242   19.7306 C   0  0  0  0  0  0
    6.4424   -2.9818   22.6001 C   0  0  0  0  0  0
    6.0380   -0.7707   21.3504 C   0  0  0  0  0  0
    4.0296   -3.6041   20.2293 C   0  0  0  0  0  0
    6.0857   -4.3135   22.8450 C   0  0  0  0  0  0
    6.8184   -5.0269   23.8027 C   0  0  0  0  0  0
    3.2381   -3.5602   19.0825 C   0  0  0  0  0  0
    3.1994   -2.3940   18.3281 C   0  0  0  0  0  0
    8.1571   -3.1778   24.1434 C   0  0  0  0  0  0
    5.2389   -6.9845   23.8072 C   0  0  0  0  0  0
    5.4103   -7.9391   22.6375 C   0  0  0  0  0  0
    6.0540   -9.1624   22.8394 C   0  0  0  0  0  0
    4.8366   -7.6477   21.3974 C   0  0  0  0  0  0
    6.0725  -10.1140   21.8246 C   0  0  0  0  0  0
    4.8382   -8.6049   20.3869 C   0  0  0  0  0  0
    5.4488   -9.8378   20.6111 C   0  0  0  0  0  0
    5.5548    0.6097   19.8364 H   0  0  0  0  0  0
    6.9932   -6.6982   24.9930 H   0  0  0  0  0  0
    6.7166   -0.1130   21.8709 H   0  0  0  0  0  0
    4.0603   -4.5174   20.7910 H   0  0  0  0  0  0
    5.2691   -4.7800   22.3394 H   0  0  0  0  0  0
    2.6735   -4.4265   18.7714 H   0  0  0  0  0  0
    2.5924   -2.3511   17.4380 H   0  0  0  0  0  0
    9.0098   -2.7293   24.6336 H   0  0  0  0  0  0
    4.4402   -6.2692   23.6074 H   0  0  0  0  0  0
    4.8735   -7.5798   24.6385 H   0  0  0  0  0  0
    6.4984   -9.3942   23.7973 H   0  0  0  0  0  0
    4.3294   -6.7102   21.2355 H   0  0  0  0  0  0
    6.5469  -11.0711   21.9874 H   0  0  0  0  0  0
    4.3650   -8.3975   19.4386 H   0  0  0  0  0  0
    5.4472  -10.5883   19.8337 H   0  0  0  0  0  0
  1  8  1  0  0  0
  1 10  1  0  0  0
  1 24  1  0  0  0
  2  9  2  0  0  0
  2 16  1  0  0  0
  3  8  2  0  0  0
  3 15  1  0  0  0
  4 13  1  0  0  0
  4 16  2  0  0  0
  5 13  1  0  0  0
  5 17  1  0  0  0
  5 25  1  0  0  0
  6  7  1  0  0  0
  6  9  1  0  0  0
  6 10  2  0  0  0
  7  8  1  0  0  0
  7 11  2  0  0  0
  9 12  1  0  0  0
 10 26  1  0  0  0
 11 14  1  0  0  0
 11 27  1  0  0  0
 12 13  2  0  0  0
 12 28  1  0  0  0
 14 15  2  0  0  0
 14 29  1  0  0  0
 15 30  1  0  0  0
 16 31  1  0  0  0
 17 18  1  0  0  0
 17 32  1  0  0  0
 17 33  1  0  0  0
 18 19  2  0  0  0
 18 20  1  0  0  0
 19 21  1  0  0  0
 19 34  1  0  0  0
 20 22  2  0  0  0
 20 35  1  0  0  0
 21 23  2  0  0  0
 21 36  1  0  0  0
 22 23  1  0  0  0
 22 37  1  0  0  0
 23 38  1  0  0  0
M  END
> <s_m_entry_id>
5829

> <s_m_entry_name>
dock_pv.224

> <s_m_Source_Path>
/home/csk/Desktop/cluster/DUD-E-result/igf1r

> <s_m_Source_File>
dock_pv.maegz

> <i_m_Source_File_Index>
224

> <chembl_id>
CHEMBL2002346

> <chembl_pref_name>
None

> <i_lp_mmshare_version>
53161

> <r_lp_tautomer_probability>
0.999998015729938

> <s_lp_Force_Field>
OPLS_2005

> <r_lp_Energy>
7.588583

> <b_lp_Chiralities_Consistent>
1

> <s_lp_Variant>
CHEMBL1957_lig2955-1

> <s_i_glide_gridfile>
glide-grid_2oj9

> <i_i_glide_lignum>
4089

> <i_i_glide_rotatable_bonds>
4

> <r_i_docking_score>
-7.05815448566642

> <r_i_glide_ligand_efficiency>
-0.306876281985496

> <r_i_glide_ligand_efficiency_sa>
-0.87271532432604

> <r_i_glide_ligand_efficiency_ln>
-1.7067257544406

> <r_i_glide_gscore>
-7.05815448566642

> <r_i_glide_lipo>
-3.43213470996574

> <r_i_glide_hbond>
0

> <r_i_glide_metal>
0

> <r_i_glide_rewards>
-2.00479627642274

> <r_i_glide_evdw>
-40.6023406982422

> <r_i_glide_ecoul>
-2.63633465766907

> <r_i_glide_erotb>
0.81029605451198

> <r_i_glide_esite>
-0.00595232022744353

> <r_i_glide_emodel>
-57.6026966195161

> <r_i_glide_energy>
-43.2386753559113

> <r_i_glide_einternal>
3.73912692070007

> <i_i_glide_confnum>
27

> <i_i_glide_posenum>
138

> <r_i_glide_eff_state_penalty>
0

> <s_user_duplicate_titles>
CHEMBL1957_lig2955

> <i_f3d_flags>
0

> <s_m_subgroup_title>
dock_pv

> <s_m_subgroupid>
dock_pv

> <b_m_subgroup_collapsed>
1

$$$$
CHEMBL1957_lig3273
                    3D
 Schrodinger Suite 2021-1.
 48 51  0  0  1  0            999 V2000
    5.6495  -12.3066   20.6398 Cl  0  0  0  0  0  0
    8.0240   -4.4578   24.6606 O   0  0  0  0  0  0
    8.6057   -6.6162   21.6045 O   0  0  0  0  0  0
    6.5712   -1.3494   23.9879 N   0  0  0  0  0  0
    7.0458   -6.2633   23.4100 C   0  0  2  0  0  0
    5.7538   -6.5463   22.5613 C   0  0  1  0  0  0
    7.2407   -4.7774   23.7709 C   0  0  0  0  0  0
    5.6323   -4.0601   22.0140 C   0  0  0  0  0  0
    6.4721   -3.7595   23.0425 C   0  0  0  0  0  0
    5.5756   -5.4825   21.4495 C   0  0  0  0  0  0
    8.3534   -6.8227   22.7939 C   0  0  0  0  0  0
    5.6387   -8.0131   22.0725 C   0  0  0  0  0  0
    5.0660   -2.9956   21.1312 C   0  0  0  0  0  0
    9.1014   -7.8074   23.6346 C   0  0  0  0  0  0
    6.5548   -2.4229   23.5536 C   0  0  0  0  0  0
    6.0126   -9.0570   22.9304 C   0  0  0  0  0  0
    5.2362   -8.3339   20.7651 C   0  0  0  0  0  0
    5.8238   -1.8831   20.7353 C   0  0  0  0  0  0
    3.7628   -3.1240   20.6365 C   0  0  0  0  0  0
    9.6880   -8.9243   23.0284 C   0  0  0  0  0  0
    9.2532   -7.6127   25.0160 C   0  0  0  0  0  0
    6.0376  -10.3729   22.4812 C   0  0  0  0  0  0
    5.2203   -9.6553   20.3294 C   0  0  0  0  0  0
    5.6361  -10.6700   21.1843 C   0  0  0  0  0  0
    5.3129   -0.9491   19.8379 C   0  0  0  0  0  0
    3.2519   -2.2047   19.7258 C   0  0  0  0  0  0
   10.3889   -9.8485   23.7973 C   0  0  0  0  0  0
    9.9574   -8.5371   25.7814 C   0  0  0  0  0  0
    4.0379   -1.1326   19.3175 C   0  0  0  0  0  0
   10.5206   -9.6525   25.1690 C   0  0  0  0  0  0
    6.8963   -6.7481   24.3741 H   0  0  0  0  0  0
    4.9210   -6.4764   23.2651 H   0  0  0  0  0  0
    6.4349   -5.5854   20.7926 H   0  0  0  0  0  0
    4.6698   -5.6489   20.8693 H   0  0  0  0  0  0
    6.3177   -8.8570   23.9464 H   0  0  0  0  0  0
    4.9427   -7.5823   20.0509 H   0  0  0  0  0  0
    6.8357   -1.7567   21.0892 H   0  0  0  0  0  0
    3.1460   -3.9539   20.9442 H   0  0  0  0  0  0
    9.6059   -9.0849   21.9627 H   0  0  0  0  0  0
    8.8356   -6.7497   25.5146 H   0  0  0  0  0  0
    6.3440  -11.1646   23.1498 H   0  0  0  0  0  0
    4.9053   -9.8903   19.3232 H   0  0  0  0  0  0
    5.9174   -0.1122   19.5178 H   0  0  0  0  0  0
    2.2566   -2.3294   19.3253 H   0  0  0  0  0  0
   10.8409  -10.7088   23.3262 H   0  0  0  0  0  0
   10.0706   -8.3836   26.8449 H   0  0  0  0  0  0
    3.6468   -0.4483   18.5831 H   0  0  0  0  0  0
   11.0744  -10.3675   25.7592 H   0  0  0  0  0  0
  1 24  1  0  0  0
  2  7  2  0  0  0
  3 11  2  0  0  0
  4 15  3  0  0  0
  5  6  1  0  0  0
  5  7  1  0  0  0
  5 11  1  0  0  0
  5 31  1  0  0  0
  6 10  1  0  0  0
  6 12  1  0  0  0
  6 32  1  0  0  0
  7  9  1  0  0  0
  8  9  2  0  0  0
  8 10  1  0  0  0
  8 13  1  0  0  0
  9 15  1  0  0  0
 10 33  1  0  0  0
 10 34  1  0  0  0
 11 14  1  0  0  0
 12 16  2  0  0  0
 12 17  1  0  0  0
 13 18  2  0  0  0
 13 19  1  0  0  0
 14 20  2  0  0  0
 14 21  1  0  0  0
 16 22  1  0  0  0
 16 35  1  0  0  0
 17 23  2  0  0  0
 17 36  1  0  0  0
 18 25  1  0  0  0
 18 37  1  0  0  0
 19 26  2  0  0  0
 19 38  1  0  0  0
 20 27  1  0  0  0
 20 39  1  0  0  0
 21 28  2  0  0  0
 21 40  1  0  0  0
 22 24  2  0  0  0
 22 41  1  0  0  0
 23 24  1  0  0  0
 23 42  1  0  0  0
 25 29  2  0  0  0
 25 43  1  0  0  0
 26 29  1  0  0  0
 26 44  1  0  0  0
 27 30  2  0  0  0
 27 45  1  0  0  0
 28 30  1  0  0  0
 28 46  1  0  0  0
 29 47  1  0  0  0
 30 48  1  0  0  0
M  END
> <s_m_entry_id>
5830

> <s_m_entry_name>
dock_pv.225

> <s_m_Source_Path>
/home/csk/Desktop/cluster/DUD-E-result/igf1r

> <s_m_Source_File>
dock_pv.maegz

> <i_m_Source_File_Index>
225

> <chembl_id>
CHEMBL1978371

> <chembl_pref_name>
None

> <i_lp_mmshare_version>
53161

> <r_lp_tautomer_probability>
0.75

> <s_lp_Force_Field>
OPLS_2005

> <r_lp_Energy>
35.818262

> <b_lp_Chiralities_Consistent>
1

> <s_lp_Variant>
CHEMBL1957_lig3273-3

> <s_i_glide_gridfile>
glide-grid_2oj9

> <i_i_glide_lignum>
4587

> <i_i_glide_rotatable_bonds>
4

> <r_i_docking_score>
-7.05531625306615

> <r_i_glide_ligand_efficiency>
-0.235177208435538

> <r_i_glide_ligand_efficiency_sa>
-0.730750265881915

> <r_i_glide_ligand_efficiency_ln>
-1.60304472652432

> <r_i_glide_gscore>
-7.05531625306615

> <r_i_glide_lipo>
-3.62693094025506

> <r_i_glide_hbond>
0

> <r_i_glide_metal>
0

> <r_i_glide_rewards>
-1.42163048541066

> <r_i_glide_evdw>
-44.277702331543

> <r_i_glide_ecoul>
-1.64116585254669

> <r_i_glide_erotb>
0.464823957870803

> <r_i_glide_esite>
-0.0115187908120825

> <r_i_glide_emodel>
-59.98942068352

> <r_i_glide_energy>
-45.9188681840897

> <r_i_glide_einternal>
5.14414834976196

> <i_i_glide_confnum>
26

> <i_i_glide_posenum>
73

> <r_i_glide_eff_state_penalty>
0

> <s_user_duplicate_titles>
CHEMBL1957_lig3273

> <i_f3d_flags>
0

> <s_m_subgroup_title>
dock_pv

> <s_m_subgroupid>
dock_pv

> <b_m_subgroup_collapsed>
1

$$$$
CHEMBL1957_lig3380
                    3D
 Schrodinger Suite 2021-1.
 45 48  0  0  1  0            999 V2000
    8.5926   -5.2234   22.6594 S   0  0  0  0  0  0
    6.8394   -0.4549   25.4536 O   0  0  0  0  0  0
    6.0634   -4.7904   22.2313 N   0  0  0  0  0  0
    7.3590   -2.8380   22.6463 N   0  0  0  0  0  0
    7.6551  -13.0826   21.5067 N   0  0  0  0  0  0
    7.5530   -6.6022   22.3212 C   0  0  0  0  0  0
    6.2311   -6.1310   22.1139 C   0  0  0  0  0  0
    7.1900   -4.1908   22.4876 C   0  0  0  0  0  0
    6.8250   -8.8689   21.9230 C   0  0  0  0  0  0
    7.8570   -7.9689   22.2388 C   0  0  0  0  0  0
    5.2083   -7.0287   21.7992 C   0  0  0  0  0  0
    7.1002  -10.3305   21.7959 C   0  0  0  0  0  0
    5.5304   -8.3817   21.7002 C   0  0  0  0  0  0
    6.3653   -1.7605   22.6327 C   0  0  1  0  0  0
    5.5890   -1.6503   21.3086 C   0  0  0  0  0  0
    6.4752  -11.0963   20.7983 C   0  0  0  0  0  0
    8.0045  -10.9815   22.6506 C   0  0  0  0  0  0
    5.4747   -1.6946   23.8984 C   0  0  0  0  0  0
    4.4682   -2.4479   21.0326 C   0  0  0  0  0  0
    5.9661   -0.6631   20.3948 C   0  0  0  0  0  0
    6.7787  -12.4535   20.6835 C   0  0  0  0  0  0
    8.2516  -12.3442   22.4751 C   0  0  0  0  0  0
    3.7359   -2.2511   19.8645 C   0  0  0  0  0  0
    5.2347   -0.4572   19.2288 C   0  0  0  0  0  0
    5.6379   -0.4216   24.7403 C   0  0  0  0  0  0
    4.1217   -1.2549   18.9700 C   0  0  0  0  0  0
    7.5782   -0.2131   24.8859 H   0  0  0  0  0  0
    8.2089   -2.5495   23.1127 H   0  0  0  0  0  0
    8.8727   -8.3107   22.3942 H   0  0  0  0  0  0
    4.2001   -6.6805   21.6267 H   0  0  0  0  0  0
    4.7462   -9.0755   21.4376 H   0  0  0  0  0  0
    6.9750   -0.8594   22.6687 H   0  0  0  0  0  0
    5.7850  -10.6483   20.0991 H   0  0  0  0  0  0
    8.5157  -10.4427   23.4355 H   0  0  0  0  0  0
    4.4279   -1.7476   23.6096 H   0  0  0  0  0  0
    5.6383   -2.5641   24.5366 H   0  0  0  0  0  0
    4.1417   -3.1994   21.7363 H   0  0  0  0  0  0
    6.8374   -0.0542   20.5902 H   0  0  0  0  0  0
    6.3121  -13.0555   19.9181 H   0  0  0  0  0  0
    8.9487  -12.8666   23.1154 H   0  0  0  0  0  0
    2.8698   -2.8633   19.6567 H   0  0  0  0  0  0
    5.5382    0.3127   18.5315 H   0  0  0  0  0  0
    5.6397    0.4682   24.1090 H   0  0  0  0  0  0
    4.8081   -0.3119   25.4385 H   0  0  0  0  0  0
    3.5552   -1.1067   18.0637 H   0  0  0  0  0  0
  1  6  1  0  0  0
  1  8  1  0  0  0
  2 25  1  0  0  0
  2 27  1  0  0  0
  3  7  1  0  0  0
  3  8  2  0  0  0
  4  8  1  0  0  0
  4 14  1  0  0  0
  4 28  1  0  0  0
  5 21  2  0  0  0
  5 22  1  0  0  0
  6  7  1  0  0  0
  6 10  2  0  0  0
  7 11  2  0  0  0
  9 10  1  0  0  0
  9 12  1  0  0  0
  9 13  2  0  0  0
 10 29  1  0  0  0
 11 13  1  0  0  0
 11 30  1  0  0  0
 12 16  2  0  0  0
 12 17  1  0  0  0
 13 31  1  0  0  0
 14 15  1  0  0  0
 14 18  1  0  0  0
 14 32  1  0  0  0
 15 19  2  0  0  0
 15 20  1  0  0  0
 16 21  1  0  0  0
 16 33  1  0  0  0
 17 22  2  0  0  0
 17 34  1  0  0  0
 18 25  1  0  0  0
 18 35  1  0  0  0
 18 36  1  0  0  0
 19 23  1  0  0  0
 19 37  1  0  0  0
 20 24  2  0  0  0
 20 38  1  0  0  0
 21 39  1  0  0  0
 22 40  1  0  0  0
 23 26  2  0  0  0
 23 41  1  0  0  0
 24 26  1  0  0  0
 24 42  1  0  0  0
 25 43  1  0  0  0
 25 44  1  0  0  0
 26 45  1  0  0  0
M  END
> <s_m_entry_id>
5832

> <s_m_entry_name>
dock_pv.227

> <s_m_Source_Path>
/home/csk/Desktop/cluster/DUD-E-result/igf1r

> <s_m_Source_File>
dock_pv.maegz

> <i_m_Source_File_Index>
227

> <chembl_id>
CHEMBL1982122

> <chembl_pref_name>
None

> <i_lp_mmshare_version>
53161

> <r_lp_tautomer_probability>
1

> <s_lp_Force_Field>
OPLS_2005

> <r_lp_Energy>
14.298278

> <b_lp_Chiralities_Consistent>
1

> <s_lp_Variant>
CHEMBL1957_lig3380-2

> <s_i_glide_gridfile>
glide-grid_2oj9

> <i_i_glide_lignum>
4761

> <i_i_glide_rotatable_bonds>
7

> <r_i_docking_score>
-7.05039965435469

> <r_i_glide_ligand_efficiency>
-0.27116921747518

> <r_i_glide_ligand_efficiency_sa>
-0.803337739770874

> <r_i_glide_ligand_efficiency_ln>
-1.65576322457702

> <r_i_glide_gscore>
-7.05039965435469

> <r_i_glide_lipo>
-3.44819038115811

> <r_i_glide_hbond>
-0.533239147519122

> <r_i_glide_metal>
0

> <r_i_glide_rewards>
-1.25291701515151

> <r_i_glide_evdw>
-40.1046028137207

> <r_i_glide_ecoul>
-4.61411237716675

> <r_i_glide_erotb>
0.88129388673511

> <r_i_glide_esite>
0

> <r_i_glide_emodel>
-60.615248598353

> <r_i_glide_energy>
-44.7187151908875

> <r_i_glide_einternal>
5.87843656539917

> <i_i_glide_confnum>
74

> <i_i_glide_posenum>
234

> <r_i_glide_eff_state_penalty>
0

> <s_user_duplicate_titles>
CHEMBL1957_lig3380

> <i_f3d_flags>
0

> <s_m_subgroup_title>
dock_pv

> <s_m_subgroupid>
dock_pv

> <b_m_subgroup_collapsed>
1

$$$$
CHEMBL1957_lig3500
                    3D
 Schrodinger Suite 2021-1.
 42 45  0  0  1  0            999 V2000
    4.6820   -8.2817   20.5334 C   0  0  0  0  0  0
    5.2374   -9.5574   20.6393 C   0  0  0  0  0  0
    6.2863   -9.8731   21.4372 N   0  0  0  0  0  0
    5.2140   -7.2157   21.2779 C   0  0  0  0  0  0
    6.3454   -7.5009   22.0801 C   0  0  0  0  0  0
    6.8079   -8.8450   22.1088 C   0  0  0  0  0  0
    7.9069   -8.9155   22.9277 N   0  0  0  0  0  0
    7.2201   -6.7589   22.9180 C   0  0  0  0  0  0
    8.1895   -7.6661   23.4358 C   0  0  0  0  0  0
    9.2107   -7.2576   24.2944 C   0  0  0  0  0  0
    9.2505   -5.9098   24.6380 C   0  0  0  0  0  0
    8.3254   -4.9773   24.1550 C   0  0  0  0  0  0
    7.3055   -5.4025   23.2862 C   0  0  0  0  0  0
    4.6834   -5.9133   21.2321 N   0  0  0  0  0  0
    3.5501   -5.5160   20.3848 C   0  0  0  0  0  0
    3.6451   -4.0653   19.8927 C   0  0  0  0  0  0
    4.3186   -3.0677   20.6193 C   0  0  0  0  0  0
    4.5062   -1.7841   20.0739 C   0  0  0  0  0  0
    3.9417   -1.4848   18.8371 C   0  0  0  0  0  0
    3.2410   -2.4542   18.1279 C   0  0  0  0  0  0
    3.1125   -3.7401   18.6422 C   0  0  0  0  0  0
    8.4259   -3.5556   24.5699 N   0  3  0  0  0  0
    9.2383   -3.2470   25.4380 O   0  0  0  0  0  0
    7.6594   -2.7432   24.0562 O   0  5  0  0  0  0
    5.2471   -0.7768   20.6584 O   0  0  0  0  0  0
    5.9558   -1.0514   21.8619 C   0  0  0  0  0  0
    3.8332   -8.1519   19.8815 H   0  0  0  0  0  0
    4.8205  -10.3774   20.0713 H   0  0  0  0  0  0
    8.4328   -9.7564   23.1165 H   0  0  0  0  0  0
    9.9480   -7.9500   24.6763 H   0  0  0  0  0  0
   10.0357   -5.5886   25.3065 H   0  0  0  0  0  0
    6.5888   -4.6930   22.9026 H   0  0  0  0  0  0
    5.0171   -5.2510   21.9138 H   0  0  0  0  0  0
    2.6154   -5.6533   20.9294 H   0  0  0  0  0  0
    3.5007   -6.1490   19.5004 H   0  0  0  0  0  0
    4.7435   -3.3120   21.5799 H   0  0  0  0  0  0
    4.0758   -0.5005   18.4120 H   0  0  0  0  0  0
    2.8382   -2.2120   17.1553 H   0  0  0  0  0  0
    2.6004   -4.4862   18.0525 H   0  0  0  0  0  0
    6.4382   -0.1355   22.2033 H   0  0  0  0  0  0
    5.2927   -1.3805   22.6624 H   0  0  0  0  0  0
    6.7302   -1.8032   21.7025 H   0  0  0  0  0  0
  1  2  2  0  0  0
  1  4  1  0  0  0
  1 27  1  0  0  0
  2  3  1  0  0  0
  2 28  1  0  0  0
  3  6  2  0  0  0
  4  5  2  0  0  0
  4 14  1  0  0  0
  5  6  1  0  0  0
  5  8  1  0  0  0
  6  7  1  0  0  0
  7  9  1  0  0  0
  7 29  1  0  0  0
  8  9  2  0  0  0
  8 13  1  0  0  0
  9 10  1  0  0  0
 10 11  2  0  0  0
 10 30  1  0  0  0
 11 12  1  0  0  0
 11 31  1  0  0  0
 12 13  2  0  0  0
 12 22  1  0  0  0
 13 32  1  0  0  0
 14 15  1  0  0  0
 14 33  1  0  0  0
 15 16  1  0  0  0
 15 34  1  0  0  0
 15 35  1  0  0  0
 16 17  2  0  0  0
 16 21  1  0  0  0
 17 18  1  0  0  0
 17 36  1  0  0  0
 18 19  2  0  0  0
 18 25  1  0  0  0
 19 20  1  0  0  0
 19 37  1  0  0  0
 20 21  2  0  0  0
 20 38  1  0  0  0
 21 39  1  0  0  0
 22 23  2  0  0  0
 22 24  1  0  0  0
 25 26  1  0  0  0
 26 40  1  0  0  0
 26 41  1  0  0  0
 26 42  1  0  0  0
M  CHG  2  22   1  24  -1
M  END
> <s_m_entry_id>
5833

> <s_m_entry_name>
dock_pv.228

> <s_m_Source_Path>
/home/csk/Desktop/cluster/DUD-E-result/igf1r

> <s_m_Source_File>
dock_pv.maegz

> <i_m_Source_File_Index>
228

> <chembl_id>
CHEMBL4217440

> <chembl_pref_name>
None

> <i_lp_mmshare_version>
53161

> <r_lp_tautomer_probability>
1

> <s_lp_Force_Field>
OPLS_2005

> <r_lp_Energy>
22.262824

> <b_lp_Chiralities_Consistent>
1

> <s_lp_Variant>
CHEMBL1957_lig3500-1

> <s_i_glide_gridfile>
glide-grid_2oj9

> <i_i_glide_lignum>
4910

> <i_i_glide_rotatable_bonds>
5

> <r_i_docking_score>
-7.04527214620391

> <r_i_glide_ligand_efficiency>
-0.270972005623227

> <r_i_glide_ligand_efficiency_sa>
-0.802753500435455

> <r_i_glide_ligand_efficiency_ln>
-1.65455904611254

> <r_i_glide_gscore>
-7.04527214620391

> <r_i_glide_lipo>
-3.45377252999644

> <r_i_glide_hbond>
0

> <r_i_glide_metal>
0

> <r_i_glide_rewards>
-1.71362390742828

> <r_i_glide_evdw>
-42.0074501037598

> <r_i_glide_ecoul>
-1.6539534330368

> <r_i_glide_erotb>
0.470589811364316

> <r_i_glide_esite>
0

> <r_i_glide_emodel>
-59.4503072472151

> <r_i_glide_energy>
-43.6614035367966

> <r_i_glide_einternal>
3.14506077766418

> <i_i_glide_confnum>
3

> <i_i_glide_posenum>
197

> <r_i_glide_eff_state_penalty>
0

> <s_user_duplicate_titles>
CHEMBL1957_lig3500

> <i_f3d_flags>
0

> <s_m_subgroup_title>
dock_pv

> <s_m_subgroupid>
dock_pv

> <b_m_subgroup_collapsed>
1

$$$$
CHEMBL1957_lig2940
                    3D
 Schrodinger Suite 2021-1.
 32 34  0  0  1  0            999 V2000
    6.0812   -9.9649   21.8959 O   0  0  0  0  0  0
    4.9137   -5.2453   21.6625 N   0  0  0  0  0  0
    6.1475   -3.4033   22.5106 N   0  0  0  0  0  0
    6.0381   -1.2169   21.4916 N   0  0  0  0  0  0
    4.6318   -3.0252   20.6402 C   0  0  0  0  0  0
    5.2246   -3.8700   21.6309 C   0  0  0  0  0  0
    5.1261   -1.6828   20.5944 C   0  0  0  0  0  0
    5.4657   -6.3184   22.3840 C   0  0  0  0  0  0
    3.6393   -3.4268   19.6961 C   0  0  0  0  0  0
    4.6764   -0.8105   19.5777 C   0  0  0  0  0  0
    6.4951   -2.1022   22.4066 C   0  0  0  0  0  0
    5.4646   -7.5777   21.7774 C   0  0  0  0  0  0
    6.0275   -8.6901   22.4243 C   0  0  0  0  0  0
    6.0018   -6.1824   23.6684 C   0  0  0  0  0  0
    3.2332   -2.5430   18.7009 C   0  0  0  0  0  0
    3.7513   -1.2548   18.6377 C   0  0  0  0  0  0
    6.5783   -8.5208   23.6928 C   0  0  0  0  0  0
    6.5646   -7.2769   24.3180 C   0  0  0  0  0  0
    5.4997  -10.2224   20.6240 C   0  0  0  0  0  0
    4.3341   -5.5342   20.8911 H   0  0  0  0  0  0
    3.2375   -4.4287   19.7234 H   0  0  0  0  0  0
    5.0720    0.1941   19.5184 H   0  0  0  0  0  0
    7.2266   -1.7366   23.1157 H   0  0  0  0  0  0
    5.0429   -7.6807   20.7917 H   0  0  0  0  0  0
    5.9896   -5.2351   24.1825 H   0  0  0  0  0  0
    2.5061   -2.8598   17.9655 H   0  0  0  0  0  0
    3.4312   -0.5926   17.8477 H   0  0  0  0  0  0
    7.0124   -9.3668   24.2054 H   0  0  0  0  0  0
    6.9839   -7.1616   25.3080 H   0  0  0  0  0  0
    5.5959  -11.2838   20.3846 H   0  0  0  0  0  0
    4.4377   -9.9697   20.6065 H   0  0  0  0  0  0
    6.0073   -9.6626   19.8393 H   0  0  0  0  0  0
  1 13  1  0  0  0
  1 19  1  0  0  0
  2  6  1  0  0  0
  2  8  1  0  0  0
  2 20  1  0  0  0
  3  6  2  0  0  0
  3 11  1  0  0  0
  4  7  1  0  0  0
  4 11  2  0  0  0
  5  6  1  0  0  0
  5  7  1  0  0  0
  5  9  2  0  0  0
  7 10  2  0  0  0
  8 12  2  0  0  0
  8 14  1  0  0  0
  9 15  1  0  0  0
  9 21  1  0  0  0
 10 16  1  0  0  0
 10 22  1  0  0  0
 11 23  1  0  0  0
 12 13  1  0  0  0
 12 24  1  0  0  0
 13 17  2  0  0  0
 14 18  2  0  0  0
 14 25  1  0  0  0
 15 16  2  0  0  0
 15 26  1  0  0  0
 16 27  1  0  0  0
 17 18  1  0  0  0
 17 28  1  0  0  0
 18 29  1  0  0  0
 19 30  1  0  0  0
 19 31  1  0  0  0
 19 32  1  0  0  0
M  END
> <s_m_entry_id>
5834

> <s_m_entry_name>
dock_pv.229

> <s_m_Source_Path>
/home/csk/Desktop/cluster/DUD-E-result/igf1r

> <s_m_Source_File>
dock_pv.maegz

> <i_m_Source_File_Index>
229

> <chembl_id>
CHEMBL117697

> <chembl_pref_name>
None

> <i_lp_mmshare_version>
53161

> <r_lp_tautomer_probability>
0.999978000241998

> <s_lp_Force_Field>
OPLS_2005

> <r_lp_Energy>
18.171931

> <b_lp_Chiralities_Consistent>
1

> <s_lp_Variant>
CHEMBL1957_lig2940-1

> <s_i_glide_gridfile>
glide-grid_2oj9

> <i_i_glide_lignum>
4069

> <i_i_glide_rotatable_bonds>
3

> <r_i_docking_score>
-7.04330960682443

> <r_i_glide_ligand_efficiency>
-0.370700505622338

> <r_i_glide_ligand_efficiency_sa>
-0.989177839413849

> <r_i_glide_ligand_efficiency_ln>
-1.78563026174963

> <r_i_glide_gscore>
-7.04330960682443

> <r_i_glide_lipo>
-3.37944509027294

> <r_i_glide_hbond>
0

> <r_i_glide_metal>
0

> <r_i_glide_rewards>
-2.38524989127672

> <r_i_glide_evdw>
-33.9083404541016

> <r_i_glide_ecoul>
-0.922017753124237

> <r_i_glide_erotb>
0.555105060398953

> <r_i_glide_esite>
0

> <r_i_glide_emodel>
-46.998084668369

> <r_i_glide_energy>
-34.8303582072258

> <r_i_glide_einternal>
4.08104801177979

> <i_i_glide_confnum>
1

> <i_i_glide_posenum>
204

> <r_i_glide_eff_state_penalty>
0

> <s_user_duplicate_titles>
CHEMBL1957_lig2940

> <i_f3d_flags>
0

> <s_m_subgroup_title>
dock_pv

> <s_m_subgroupid>
dock_pv

> <b_m_subgroup_collapsed>
1

$$$$
CHEMBL1957_lig2632
                    3D
 Schrodinger Suite 2021-1.
 32 35  0  0  1  0            999 V2000
    6.0849   -7.0490   22.8264 C   0  0  0  0  0  0
    5.3840   -6.0556   21.9620 C   0  0  0  0  0  0
    6.9447   -6.3491   23.6480 C   0  0  0  0  0  0
    6.7891   -5.0097   23.3981 N   0  0  0  0  0  0
    7.7946   -6.9862   24.5503 C   0  0  0  0  0  0
    7.7716   -8.3770   24.6377 C   0  0  0  0  0  0
    6.8922   -9.1072   23.8383 C   0  0  0  0  0  0
    6.0407   -8.4502   22.9497 C   0  0  0  0  0  0
    5.8990   -4.7403   22.3816 C   0  0  0  0  0  0
    5.6366   -3.5045   21.8361 C   0  0  0  0  0  0
    6.3563   -2.3217   22.3230 C   0  0  0  0  0  0
    6.0380   -1.3059   21.5145 N   0  0  0  0  0  0
    5.1252   -1.6548   20.5614 C   0  0  0  0  0  0
    4.7691   -2.9789   20.7440 C   0  0  0  0  0  0
    4.5996   -0.8654   19.5390 C   0  0  0  0  0  0
    3.6602   -1.4280   18.6764 C   0  0  0  0  0  0
    3.2377   -2.7419   18.8693 C   0  0  0  0  0  0
    3.7736   -3.5098   19.9060 C   0  0  0  0  0  0
    7.1390   -2.2202   23.2682 O   0  0  0  0  0  0
    4.5379   -6.2885   21.0380 N   0  0  0  0  0  0
    4.4357   -7.6246   20.6235 O   0  0  0  0  0  0
    7.2858   -4.2144   23.7847 H   0  0  0  0  0  0
    8.4629   -6.4212   25.1837 H   0  0  0  0  0  0
    8.4250   -8.8856   25.3315 H   0  0  0  0  0  0
    6.8573  -10.1843   23.9197 H   0  0  0  0  0  0
    5.3640   -9.0727   22.3853 H   0  0  0  0  0  0
    6.4383   -0.3869   21.6160 H   0  0  0  0  0  0
    4.9160    0.1581   19.3968 H   0  0  0  0  0  0
    3.2502   -0.8455   17.8652 H   0  0  0  0  0  0
    2.4951   -3.1672   18.2087 H   0  0  0  0  0  0
    3.3914   -4.5082   20.0004 H   0  0  0  0  0  0
    5.1664   -8.0372   21.0881 H   0  0  0  0  0  0
  1  2  1  0  0  0
  1  3  2  0  0  0
  1  8  1  0  0  0
  2  9  1  0  0  0
  2 20  2  0  0  0
  3  4  1  0  0  0
  3  5  1  0  0  0
  4  9  1  0  0  0
  4 22  1  0  0  0
  5  6  2  0  0  0
  5 23  1  0  0  0
  6  7  1  0  0  0
  6 24  1  0  0  0
  7  8  2  0  0  0
  7 25  1  0  0  0
  8 26  1  0  0  0
  9 10  2  0  0  0
 10 11  1  0  0  0
 10 14  1  0  0  0
 11 12  1  0  0  0
 11 19  2  0  0  0
 12 13  1  0  0  0
 12 27  1  0  0  0
 13 14  2  0  0  0
 13 15  1  0  0  0
 14 18  1  0  0  0
 15 16  2  0  0  0
 15 28  1  0  0  0
 16 17  1  0  0  0
 16 29  1  0  0  0
 17 18  2  0  0  0
 17 30  1  0  0  0
 18 31  1  0  0  0
 20 21  1  0  0  0
 21 32  1  0  0  0
M  END
> <s_m_entry_id>
5835

> <s_m_entry_name>
dock_pv.230

> <s_m_Source_Path>
/home/csk/Desktop/cluster/DUD-E-result/igf1r

> <s_m_Source_File>
dock_pv.maegz

> <i_m_Source_File_Index>
230

> <chembl_id>
CHEMBL216543

> <chembl_pref_name>
None

> <i_lp_mmshare_version>
53161

> <r_lp_tautomer_probability>
1

> <s_lp_Force_Field>
OPLS_2005

> <r_lp_Energy>
74.466968

> <b_lp_Chiralities_Consistent>
1

> <s_lp_Variant>
CHEMBL1957_lig2632-1

> <s_i_glide_gridfile>
glide-grid_2oj9

> <i_i_glide_lignum>
3648

> <i_i_glide_rotatable_bonds>
1

> <r_i_docking_score>
-7.04318105922174

> <r_i_glide_ligand_efficiency>
-0.335389574248655

> <r_i_glide_ligand_efficiency_sa>
-0.925314403961737

> <r_i_glide_ligand_efficiency_ln>
-1.74141228480518

> <r_i_glide_gscore>
-7.04318105922174

> <r_i_glide_lipo>
-2.80536111912224

> <r_i_glide_hbond>
0

> <r_i_glide_metal>
0

> <r_i_glide_rewards>
-2.45500255912384

> <r_i_glide_evdw>
-37.6086349487305

> <r_i_glide_ecoul>
-0.910584628582001

> <r_i_glide_erotb>
0.23420206074816

> <r_i_glide_esite>
0

> <r_i_glide_emodel>
-53.0842987752012

> <r_i_glide_energy>
-38.5192195773125

> <r_i_glide_einternal>
0.129406616091728

> <i_i_glide_confnum>
2

> <i_i_glide_posenum>
353

> <r_i_glide_eff_state_penalty>
0

> <s_user_duplicate_titles>
CHEMBL1957_lig2632

> <i_f3d_flags>
0

> <s_m_subgroup_title>
dock_pv

> <s_m_subgroupid>
dock_pv

> <b_m_subgroup_collapsed>
1

$$$$
CHEMBL1957_lig2000
                    3D
 Schrodinger Suite 2021-1.
 61 66  0  0  1  0            999 V2000
    7.2379   -7.6545   25.4305 N   0  0  0  0  0  0
    7.9734   -8.8899   25.2632 C   0  0  2  0  0  0
    9.4933   -8.6536   25.1772 C   0  0  0  0  0  0
    9.9174   -8.0526   23.8271 C   0  0  0  0  0  0
    9.3637   -8.8255   22.6207 C   0  0  0  0  0  0
    7.8974   -8.8773   22.7689 N   0  0  0  0  0  0
    7.4504   -9.5932   23.9875 C   0  0  0  0  0  0
    7.0734   -8.0172   22.0962 C   0  0  0  0  0  0
    7.5283   -7.0778   21.4380 O   0  0  0  0  0  0
    5.5405   -8.3436   22.0018 C   0  0  2  0  0  0
    5.3133   -9.8706   21.7577 C   0  0  0  0  0  0
    5.1957  -10.0136   20.2710 C   0  0  0  0  0  0
    4.6327   -8.6680   19.8492 C   0  0  0  0  0  0
    4.8059   -7.6546   20.8960 N   0  0  0  0  0  0
    4.3924   -6.3084   20.6994 C   0  0  0  0  0  0
    4.8377   -5.3488   21.5459 N   0  0  0  0  0  0
    4.5714   -4.0396   21.2420 C   0  0  0  0  0  0
    5.0758   -2.9672   21.9784 N   0  0  0  0  0  0
    6.0918   -3.0116   22.8674 C   0  0  0  0  0  0
    6.6057   -4.1207   23.5255 C   0  0  0  0  0  0
    7.6804   -3.6792   24.2141 C   0  0  0  0  0  0
    7.7112   -2.3287   23.9906 N   0  0  0  0  0  0
    6.7291   -1.9104   23.1910 N   0  0  0  0  0  0
    8.6272   -4.4519   25.0379 C   0  0  0  0  0  0
   10.0380   -4.5943   24.6379 C   0  0  0  0  0  0
    9.6380   -3.7412   25.8599 C   0  0  0  0  0  0
    3.8642   -3.6661   20.1068 C   0  0  0  0  0  0
    3.5101   -2.4588   19.4489 C   0  0  0  0  0  0
    2.9750   -2.8380   18.2386 C   0  0  0  0  0  0
    2.8462   -4.2230   18.2100 C   0  0  0  0  0  0
    3.4146   -4.7472   19.3403 N   0  0  0  0  0  0
    3.6267   -6.0540   19.5947 N   0  0  0  0  0  0
    6.2835   -7.8218   25.7078 H   0  0  0  0  0  0
    7.6382   -7.0623   26.1569 H   0  0  0  0  0  0
    7.7497   -9.5683   26.0885 H   0  0  0  0  0  0
    9.8130   -7.9904   25.9830 H   0  0  0  0  0  0
   10.0187   -9.5906   25.3678 H   0  0  0  0  0  0
    9.5476   -7.0361   23.7293 H   0  0  0  0  0  0
   11.0051   -7.9984   23.7832 H   0  0  0  0  0  0
    9.6767   -8.4266   21.6549 H   0  0  0  0  0  0
    9.7334   -9.8516   22.6309 H   0  0  0  0  0  0
    7.9951  -10.5347   23.9053 H   0  0  0  0  0  0
    6.4328   -9.9757   24.0489 H   0  0  0  0  0  0
    5.1404   -8.0221   22.9643 H   0  0  0  0  0  0
    6.1044  -10.5453   22.0759 H   0  0  0  0  0  0
    4.4380  -10.2496   22.2690 H   0  0  0  0  0  0
    6.1793  -10.1876   19.8382 H   0  0  0  0  0  0
    4.5512  -10.8456   19.9837 H   0  0  0  0  0  0
    5.2382   -8.3021   19.0380 H   0  0  0  0  0  0
    3.6049   -8.7506   19.4963 H   0  0  0  0  0  0
    4.8025   -2.0770   21.5968 H   0  0  0  0  0  0
    6.2825   -5.1490   23.4834 H   0  0  0  0  0  0
    8.4048   -1.6986   24.3716 H   0  0  0  0  0  0
    8.1979   -5.3565   25.4378 H   0  0  0  0  0  0
   10.5368   -5.5453   24.8143 H   0  0  0  0  0  0
   10.3575   -4.1296   23.7116 H   0  0  0  0  0  0
    9.7343   -2.6568   25.7998 H   0  0  0  0  0  0
    9.8187   -4.1179   26.8672 H   0  0  0  0  0  0
    3.7167   -1.4406   19.7450 H   0  0  0  0  0  0
    2.7113   -2.1523   17.4466 H   0  0  0  0  0  0
    2.4560   -4.8537   17.4381 H   0  0  0  0  0  0
  1  2  1  0  0  0
  1 33  1  0  0  0
  1 34  1  0  0  0
  2  3  1  0  0  0
  2  7  1  0  0  0
  2 35  1  0  0  0
  3  4  1  0  0  0
  3 36  1  0  0  0
  3 37  1  0  0  0
  4  5  1  0  0  0
  4 38  1  0  0  0
  4 39  1  0  0  0
  5  6  1  0  0  0
  5 40  1  0  0  0
  5 41  1  0  0  0
  6  7  1  0  0  0
  6  8  1  0  0  0
  7 42  1  0  0  0
  7 43  1  0  0  0
  8  9  2  0  0  0
  8 10  1  0  0  0
 10 11  1  0  0  0
 10 14  1  0  0  0
 10 44  1  0  0  0
 11 12  1  0  0  0
 11 45  1  0  0  0
 11 46  1  0  0  0
 12 13  1  0  0  0
 12 47  1  0  0  0
 12 48  1  0  0  0
 13 14  1  0  0  0
 13 49  1  0  0  0
 13 50  1  0  0  0
 14 15  1  0  0  0
 15 16  1  0  0  0
 15 32  2  0  0  0
 16 17  2  0  0  0
 17 18  1  0  0  0
 17 27  1  0  0  0
 18 19  1  0  0  0
 18 51  1  0  0  0
 19 20  1  0  0  0
 19 23  2  0  0  0
 20 21  2  0  0  0
 20 52  1  0  0  0
 21 22  1  0  0  0
 21 24  1  0  0  0
 22 23  1  0  0  0
 22 53  1  0  0  0
 24 25  1  0  0  0
 24 26  1  0  0  0
 24 54  1  0  0  0
 25 26  1  0  0  0
 25 55  1  0  0  0
 25 56  1  0  0  0
 26 57  1  0  0  0
 26 58  1  0  0  0
 27 28  2  0  0  0
 27 31  1  0  0  0
 28 29  1  0  0  0
 28 59  1  0  0  0
 29 30  2  0  0  0
 29 60  1  0  0  0
 30 31  1  0  0  0
 30 61  1  0  0  0
 31 32  1  0  0  0
M  END
> <s_m_entry_id>
5836

> <s_m_entry_name>
dock_pv.231

> <s_m_Source_Path>
/home/csk/Desktop/cluster/DUD-E-result/igf1r

> <s_m_Source_File>
dock_pv.maegz

> <i_m_Source_File_Index>
231

> <chembl_id>
CHEMBL3655727

> <chembl_pref_name>
None

> <i_lp_mmshare_version>
53161

> <r_lp_tautomer_probability>
0.842599999161192

> <s_lp_Force_Field>
OPLS_2005

> <r_lp_Energy>
61.872114

> <b_lp_Chiralities_Consistent>
1

> <s_lp_Variant>
CHEMBL1957_lig2000-1

> <s_i_glide_gridfile>
glide-grid_2oj9

> <i_i_glide_lignum>
2907

> <i_i_glide_rotatable_bonds>
6

> <r_i_docking_score>
-7.04009504217786

> <r_i_glide_ligand_efficiency>
-0.220002970068058

> <r_i_glide_ligand_efficiency_sa>
-0.698465891437428

> <r_i_glide_ligand_efficiency_ln>
-1.57646918568655

> <r_i_glide_gscore>
-7.04009504217786

> <r_i_glide_lipo>
-2.97118698275193

> <r_i_glide_hbond>
-0.502600139048399

> <r_i_glide_metal>
0

> <r_i_glide_rewards>
-1.85133680518833

> <r_i_glide_evdw>
-28.1102180480957

> <r_i_glide_ecoul>
-6.26484107971191

> <r_i_glide_erotb>
0.630265949172371

> <r_i_glide_esite>
0

> <r_i_glide_emodel>
-31.9819814318917

> <r_i_glide_energy>
-34.3750591278076

> <r_i_glide_einternal>
7.89567899703979

> <i_i_glide_confnum>
82

> <i_i_glide_posenum>
32

> <r_i_glide_eff_state_penalty>
0

> <s_user_duplicate_titles>
CHEMBL1957_lig2000

> <i_f3d_flags>
0

> <s_m_subgroup_title>
dock_pv

> <s_m_subgroupid>
dock_pv

> <b_m_subgroup_collapsed>
1

$$$$
CHEMBL1957_lig2105
                    3D
 Schrodinger Suite 2021-1.
 50 54  0  0  1  0            999 V2000
    9.2381   -4.1614   20.6545 C   0  0  0  0  0  0
    8.1238   -3.9807   21.4777 O   0  0  0  0  0  0
    7.9082   -4.8461   22.5353 C   0  0  0  0  0  0
    8.7098   -5.9597   22.8319 C   0  0  0  0  0  0
    8.3698   -6.8042   23.8861 C   0  0  0  0  0  0
    7.2243   -6.5508   24.6382 C   0  0  0  0  0  0
    6.4387   -5.4298   24.3748 C   0  0  0  0  0  0
    6.7920   -4.5701   23.3348 C   0  0  0  0  0  0
    6.0467   -3.3511   22.9283 C   0  0  0  0  0  0
    5.1727   -3.1955   21.8678 C   0  0  0  0  0  0
    5.2654   -1.8347   21.5379 C   0  0  0  0  0  0
    4.6730   -1.2927   20.2394 C   0  0  0  0  0  0
    3.3978   -2.1042   19.9075 C   0  0  0  0  0  0
    3.6447   -3.6127   19.9942 C   0  0  0  0  0  0
    3.1353   -4.5203   19.0683 C   0  0  0  0  0  0
    3.2888   -5.8607   19.1771 N   0  0  0  0  0  0
    4.0381   -6.3071   20.2175 C   0  0  0  0  0  0
    4.3503   -7.6668   20.1197 N   0  0  0  0  0  0
    5.0905   -8.5948   20.8616 C   0  0  0  0  0  0
    5.6384   -8.3341   22.1197 C   0  0  0  0  0  0
    6.3191   -9.3418   22.8008 C   0  0  0  0  0  0
    6.4623  -10.5988   22.2196 C   0  0  0  0  0  0
    5.9254  -10.8620   20.9633 C   0  0  0  0  0  0
    5.2380   -9.8580   20.2887 C   0  0  0  0  0  0
    4.6067   -5.5155   21.1689 N   0  0  0  0  0  0
    4.4338   -4.1676   21.0231 C   0  0  0  0  0  0
    5.9682   -1.1502   22.4107 N   0  0  0  0  0  0
    6.4294   -2.0712   23.2662 N   0  0  0  0  0  0
    7.4560   -1.6692   24.2130 C   0  0  0  0  0  0
    9.2439   -3.4342   19.8439 H   0  0  0  0  0  0
   10.1299   -4.0168   21.2640 H   0  0  0  0  0  0
    9.2378   -5.1612   20.2218 H   0  0  0  0  0  0
    9.5931   -6.1892   22.2534 H   0  0  0  0  0  0
    8.9857   -7.6642   24.1056 H   0  0  0  0  0  0
    6.9474   -7.2186   25.4397 H   0  0  0  0  0  0
    5.5649   -5.2531   24.9812 H   0  0  0  0  0  0
    5.4017   -1.4042   19.4359 H   0  0  0  0  0  0
    4.4578   -0.2249   20.2701 H   0  0  0  0  0  0
    3.0282   -1.8292   18.9178 H   0  0  0  0  0  0
    2.6058   -1.8385   20.6093 H   0  0  0  0  0  0
    2.5437   -4.1761   18.2309 H   0  0  0  0  0  0
    4.0131   -8.0467   19.2466 H   0  0  0  0  0  0
    5.5197   -7.3722   22.5886 H   0  0  0  0  0  0
    6.7260   -9.1592   23.7835 H   0  0  0  0  0  0
    6.9868  -11.3783   22.7531 H   0  0  0  0  0  0
    6.0327  -11.8391   20.5152 H   0  0  0  0  0  0
    4.8143  -10.0651   19.3179 H   0  0  0  0  0  0
    7.4959   -2.3791   25.0363 H   0  0  0  0  0  0
    8.4237   -1.6602   23.7099 H   0  0  0  0  0  0
    7.2370   -0.6763   24.6080 H   0  0  0  0  0  0
  1  2  1  0  0  0
  1 30  1  0  0  0
  1 31  1  0  0  0
  1 32  1  0  0  0
  2  3  1  0  0  0
  3  4  2  0  0  0
  3  8  1  0  0  0
  4  5  1  0  0  0
  4 33  1  0  0  0
  5  6  2  0  0  0
  5 34  1  0  0  0
  6  7  1  0  0  0
  6 35  1  0  0  0
  7  8  2  0  0  0
  7 36  1  0  0  0
  8  9  1  0  0  0
  9 10  2  0  0  0
  9 28  1  0  0  0
 10 11  1  0  0  0
 10 26  1  0  0  0
 11 12  1  0  0  0
 11 27  2  0  0  0
 12 13  1  0  0  0
 12 37  1  0  0  0
 12 38  1  0  0  0
 13 14  1  0  0  0
 13 39  1  0  0  0
 13 40  1  0  0  0
 14 15  2  0  0  0
 14 26  1  0  0  0
 15 16  1  0  0  0
 15 41  1  0  0  0
 16 17  2  0  0  0
 17 18  1  0  0  0
 17 25  1  0  0  0
 18 19  1  0  0  0
 18 42  1  0  0  0
 19 20  2  0  0  0
 19 24  1  0  0  0
 20 21  1  0  0  0
 20 43  1  0  0  0
 21 22  2  0  0  0
 21 44  1  0  0  0
 22 23  1  0  0  0
 22 45  1  0  0  0
 23 24  2  0  0  0
 23 46  1  0  0  0
 24 47  1  0  0  0
 25 26  2  0  0  0
 27 28  1  0  0  0
 28 29  1  0  0  0
 29 48  1  0  0  0
 29 49  1  0  0  0
 29 50  1  0  0  0
M  END
> <s_m_entry_id>
5837

> <s_m_entry_name>
dock_pv.232

> <s_m_Source_Path>
/home/csk/Desktop/cluster/DUD-E-result/igf1r

> <s_m_Source_File>
dock_pv.maegz

> <i_m_Source_File_Index>
232

> <chembl_id>
CHEMBL3656548

> <chembl_pref_name>
None

> <i_lp_mmshare_version>
53161

> <r_lp_tautomer_probability>
0.999999987636

> <s_lp_Force_Field>
OPLS_2005

> <r_lp_Energy>
18.212563

> <b_lp_Chiralities_Consistent>
1

> <s_lp_Variant>
CHEMBL1957_lig2105-1

> <s_i_glide_gridfile>
glide-grid_2oj9

> <i_i_glide_lignum>
3076

> <i_i_glide_rotatable_bonds>
4

> <r_i_docking_score>
-7.03566972867514

> <r_i_glide_ligand_efficiency>
-0.242609300988798

> <r_i_glide_ligand_efficiency_sa>
-0.745372636659136

> <r_i_glide_ligand_efficiency_ln>
-1.61098995867585

> <r_i_glide_gscore>
-7.03566972867514

> <r_i_glide_lipo>
-3.31032898798601

> <r_i_glide_hbond>
-0.152932823479016

> <r_i_glide_metal>
0

> <r_i_glide_rewards>
-1.46701661460285

> <r_i_glide_evdw>
-40.2589263916016

> <r_i_glide_ecoul>
-3.25958752632141

> <r_i_glide_erotb>
0.396493145921033

> <r_i_glide_esite>
0

> <r_i_glide_emodel>
-58.621715016497

> <r_i_glide_energy>
-43.518513917923

> <r_i_glide_einternal>
3.62047863006592

> <i_i_glide_confnum>
11

> <i_i_glide_posenum>
27

> <r_i_glide_eff_state_penalty>
0

> <s_user_duplicate_titles>
CHEMBL1957_lig2105

> <i_f3d_flags>
0

> <s_m_subgroup_title>
dock_pv

> <s_m_subgroupid>
dock_pv

> <b_m_subgroup_collapsed>
1

$$$$
CHEMBL1957_lig3192
                    3D
 Schrodinger Suite 2021-1.
 53 57  0  0  1  0            999 V2000
    3.2854   -2.5862   19.4131 O   0  0  0  0  0  0
    7.2488   -9.0333   24.2785 N   0  0  0  0  0  0
    7.4539  -10.1653   23.5830 N   0  0  0  0  0  0
    6.7702   -2.2850   24.6379 N   0  0  0  0  0  0
    3.0443   -6.0531   18.4750 N   0  0  0  0  0  0
    5.4510   -0.5293   19.0095 N   0  0  0  0  0  0
    6.1792   -8.7693   22.3599 C   0  0  0  0  0  0
    6.4511   -8.1437   23.5940 C   0  0  0  0  0  0
    4.9252   -6.7972   21.6804 C   0  0  0  0  0  0
    5.4148   -8.0874   21.4055 C   0  0  0  0  0  0
    6.8226  -10.0447   22.4414 C   0  0  0  0  0  0
    4.1678   -6.0252   20.6377 C   0  0  0  0  0  0
    7.1850   -2.8594   22.5160 C   0  0  0  0  0  0
    6.3948   -1.6480   22.5125 C   0  0  0  0  0  0
    5.9562   -6.8810   23.9148 C   0  0  0  0  0  0
    7.4258   -3.2213   23.8729 C   0  0  0  0  0  0
    5.2042   -6.2376   22.9319 C   0  0  0  0  0  0
    4.0381   -4.6188   20.6381 C   0  0  0  0  0  0
    3.4557   -3.9435   19.5476 C   0  0  0  0  0  0
    6.1495   -1.3658   23.8399 C   0  0  0  0  0  0
    3.6381   -6.6750   19.5150 C   0  0  0  0  0  0
    6.0426   -0.7679   21.3316 C   0  0  0  0  0  0
    7.7572   -3.6543   21.5134 C   0  0  0  0  0  0
    8.2179   -4.3208   24.2322 C   0  0  0  0  0  0
    5.3089   -1.4294   20.1495 C   0  0  1  0  0  0
    3.0086   -4.7081   18.4825 C   0  0  0  0  0  0
    6.8296  -11.1675   21.4262 C   0  0  0  0  0  0
    8.5238   -4.7646   21.8569 C   0  0  0  0  0  0
    3.8126   -1.7093   20.3889 C   0  0  0  0  0  0
    8.7539   -5.0823   23.1916 C   0  0  0  0  0  0
    7.6598   -8.9153   25.1928 H   0  0  0  0  0  0
    6.7499   -2.2307   25.6420 H   0  0  0  0  0  0
    4.8317   -0.8100   18.2610 H   0  0  0  0  0  0
    5.2407    0.4328   19.2391 H   0  0  0  0  0  0
    5.2413   -8.5689   20.4569 H   0  0  0  0  0  0
    6.1610   -6.4076   24.8644 H   0  0  0  0  0  0
    4.8403   -5.2544   23.1528 H   0  0  0  0  0  0
    4.4552   -4.0468   21.4493 H   0  0  0  0  0  0
    5.6367   -0.5328   24.2947 H   0  0  0  0  0  0
    3.6423   -7.7496   19.4370 H   0  0  0  0  0  0
    5.5404    0.1475   21.6407 H   0  0  0  0  0  0
    7.0073   -0.4457   20.9717 H   0  0  0  0  0  0
    7.6401   -3.3656   20.4879 H   0  0  0  0  0  0
    8.4308   -4.5755   25.2599 H   0  0  0  0  0  0
    5.8023   -2.3666   19.8997 H   0  0  0  0  0  0
    2.5740   -4.2330   17.6182 H   0  0  0  0  0  0
    7.2351  -10.8507   20.4662 H   0  0  0  0  0  0
    7.4203  -12.0246   21.7510 H   0  0  0  0  0  0
    5.8198  -11.5334   21.2376 H   0  0  0  0  0  0
    8.9698   -5.3716   21.0807 H   0  0  0  0  0  0
    3.6004   -2.0578   21.4016 H   0  0  0  0  0  0
    3.2409   -0.8021   20.2379 H   0  0  0  0  0  0
    9.3761   -5.9359   23.4237 H   0  0  0  0  0  0
  1 19  1  0  0  0
  1 29  1  0  0  0
  2  3  1  0  0  0
  2  8  1  0  0  0
  2 31  1  0  0  0
  3 11  2  0  0  0
  4 16  1  0  0  0
  4 20  1  0  0  0
  4 32  1  0  0  0
  5 21  1  0  0  0
  5 26  2  0  0  0
  6 25  1  0  0  0
  6 33  1  0  0  0
  6 34  1  0  0  0
  7  8  1  0  0  0
  7 10  2  0  0  0
  7 11  1  0  0  0
  8 15  2  0  0  0
  9 10  1  0  0  0
  9 12  1  0  0  0
  9 17  2  0  0  0
 10 35  1  0  0  0
 11 27  1  0  0  0
 12 18  1  0  0  0
 12 21  2  0  0  0
 13 14  1  0  0  0
 13 16  1  0  0  0
 13 23  2  0  0  0
 14 20  2  0  0  0
 14 22  1  0  0  0
 15 17  1  0  0  0
 15 36  1  0  0  0
 16 24  2  0  0  0
 17 37  1  0  0  0
 18 19  2  0  0  0
 18 38  1  0  0  0
 19 26  1  0  0  0
 20 39  1  0  0  0
 21 40  1  0  0  0
 22 25  1  0  0  0
 22 41  1  0  0  0
 22 42  1  0  0  0
 23 28  1  0  0  0
 23 43  1  0  0  0
 24 30  1  0  0  0
 24 44  1  0  0  0
 25 29  1  0  0  0
 25 45  1  0  0  0
 26 46  1  0  0  0
 27 47  1  0  0  0
 27 48  1  0  0  0
 27 49  1  0  0  0
 28 30  2  0  0  0
 28 50  1  0  0  0
 29 51  1  0  0  0
 29 52  1  0  0  0
 30 53  1  0  0  0
M  END
> <s_m_entry_id>
5838

> <s_m_entry_name>
dock_pv.233

> <s_m_Source_Path>
/home/csk/Desktop/cluster/DUD-E-result/igf1r

> <s_m_Source_File>
dock_pv.maegz

> <i_m_Source_File_Index>
233

> <chembl_id>
CHEMBL1970903

> <chembl_pref_name>
None

> <i_lp_mmshare_version>
53161

> <r_lp_tautomer_probability>
0.980392156862745

> <s_lp_Force_Field>
OPLS_2005

> <r_lp_Energy>
23.29063

> <b_lp_Chiralities_Consistent>
1

> <s_lp_Variant>
CHEMBL1957_lig3192-2

> <s_i_glide_gridfile>
glide-grid_2oj9

> <i_i_glide_lignum>
4440

> <i_i_glide_rotatable_bonds>
6

> <r_i_docking_score>
-7.03319519780615

> <r_i_glide_ligand_efficiency>
-0.234439839926872

> <r_i_glide_ligand_efficiency_sa>
-0.728459090485517

> <r_i_glide_ligand_efficiency_ln>
-1.59801858174104

> <r_i_glide_gscore>
-7.03319519780615

> <r_i_glide_lipo>
-4.31233731495493

> <r_i_glide_hbond>
-0.309516621129091

> <r_i_glide_metal>
0

> <r_i_glide_rewards>
-1.44889792935693

> <r_i_glide_evdw>
-36.1771583557129

> <r_i_glide_ecoul>
1.52248024940491

> <r_i_glide_erotb>
0.619527056367689

> <r_i_glide_esite>
-0.00148450835797639

> <r_i_glide_emodel>
-41.9627014383092

> <r_i_glide_energy>
-34.654678106308

> <r_i_glide_einternal>
5.67309474945068

> <i_i_glide_confnum>
22

> <i_i_glide_posenum>
356

> <r_i_glide_eff_state_penalty>
0

> <s_user_duplicate_titles>
CHEMBL1957_lig3192

> <i_f3d_flags>
0

> <s_m_subgroup_title>
dock_pv

> <s_m_subgroupid>
dock_pv

> <b_m_subgroup_collapsed>
1

$$$$
CHEMBL1957_lig1062
                    3D
 Schrodinger Suite 2021-1.
 52 55  0  0  1  0            999 V2000
    5.8881   -9.0236   22.0152 C   0  0  0  0  0  0
    6.5547   -7.7625   22.5878 C   0  0  0  0  0  0
    5.0710   -8.5875   20.7918 C   0  0  0  0  0  0
    6.0447   -0.1843   20.2858 C   0  0  0  0  0  0
    4.0352   -4.9855   20.6381 C   0  0  0  0  0  0
    5.8555   -2.2585   23.4812 C   0  0  0  0  0  0
    5.6875   -5.2541   22.2836 C   0  0  0  0  0  0
    4.0362   -6.3117   20.3294 N   0  0  0  0  0  0
    4.6480   -2.0283   20.0474 C   0  0  0  0  0  0
    4.7837   -0.6135   19.7038 N   0  0  0  0  0  0
    6.4596   -1.1850   24.1001 C   0  0  0  0  0  0
    5.6987   -6.6368   22.0434 C   0  0  0  0  0  0
    4.8650   -0.4632   18.2523 C   0  0  0  0  0  0
    6.5861   -4.6762   23.1989 N   0  0  0  0  0  0
    3.2422   -4.1050   19.8220 N   0  0  0  0  0  0
    4.8640   -7.1116   21.0444 C   0  0  0  0  0  0
    6.7239   -3.3630   23.5949 C   0  0  0  0  0  0
    2.8714   -4.5613   18.4802 C   0  0  0  0  0  0
    7.6377   -1.7134   24.5376 N   0  0  0  0  0  0
    3.2362   -2.6421   20.0240 C   0  0  0  0  0  0
    7.8101   -3.0068   24.2365 N   0  0  0  0  0  0
    6.0374    0.2507   24.3241 C   0  0  0  0  0  0
    4.8282   -4.4484   21.6019 N   0  0  0  0  0  0
    5.3923    0.6531   25.6327 C   0  0  0  0  0  0
    6.7830    1.1498   25.2830 C   0  0  0  0  0  0
    5.2249   -9.4578   22.7609 H   0  0  0  0  0  0
    6.6144   -9.7982   21.7624 H   0  0  0  0  0  0
    7.5779   -7.6831   22.2189 H   0  0  0  0  0  0
    6.5926   -7.8015   23.6756 H   0  0  0  0  0  0
    4.1283   -9.1336   20.6848 H   0  0  0  0  0  0
    5.6385   -8.7533   19.8761 H   0  0  0  0  0  0
    5.9528   -0.0487   21.3642 H   0  0  0  0  0  0
    6.4258    0.7426   19.8761 H   0  0  0  0  0  0
    6.8373   -0.9260   20.1226 H   0  0  0  0  0  0
    4.8708   -2.2539   23.0447 H   0  0  0  0  0  0
    5.3111   -2.6370   19.4376 H   0  0  0  0  0  0
    5.0156   -2.1387   21.0574 H   0  0  0  0  0  0
    3.8754   -0.5930   17.8163 H   0  0  0  0  0  0
    5.2471    0.5243   17.9746 H   0  0  0  0  0  0
    5.5475   -1.1916   17.8228 H   0  0  0  0  0  0
    7.2027   -5.3650   23.6004 H   0  0  0  0  0  0
    2.5212   -5.5932   18.4751 H   0  0  0  0  0  0
    2.0922   -3.9433   18.0318 H   0  0  0  0  0  0
    3.7436   -4.5183   17.8258 H   0  0  0  0  0  0
    8.3542   -1.1761   25.0253 H   0  0  0  0  0  0
    2.7484   -2.4366   20.9726 H   0  0  0  0  0  0
    2.6267   -2.1651   19.2565 H   0  0  0  0  0  0
    5.6352    0.7349   23.4352 H   0  0  0  0  0  0
    4.5647    1.3592   25.6164 H   0  0  0  0  0  0
    5.2725   -0.1033   26.4050 H   0  0  0  0  0  0
    7.6351    0.7459   25.8243 H   0  0  0  0  0  0
    6.9287    2.2007   25.0223 H   0  0  0  0  0  0
  1  3  1  0  0  0
  1  2  1  0  0  0
  1 26  1  0  0  0
  1 27  1  0  0  0
  2 12  1  0  0  0
  2 28  1  0  0  0
  2 29  1  0  0  0
  3 16  1  0  0  0
  3 30  1  0  0  0
  3 31  1  0  0  0
  4 10  1  0  0  0
  4 32  1  0  0  0
  4 33  1  0  0  0
  4 34  1  0  0  0
  5  8  1  0  0  0
  5 15  1  0  0  0
  5 23  2  0  0  0
  6 11  2  0  0  0
  6 17  1  0  0  0
  6 35  1  0  0  0
  7 12  2  0  0  0
  7 14  1  0  0  0
  7 23  1  0  0  0
  8 16  2  0  0  0
  9 10  1  0  0  0
  9 20  1  0  0  0
  9 36  1  0  0  0
  9 37  1  0  0  0
 10 13  1  0  0  0
 11 22  1  0  0  0
 11 19  1  0  0  0
 12 16  1  0  0  0
 13 38  1  0  0  0
 13 39  1  0  0  0
 13 40  1  0  0  0
 14 17  1  0  0  0
 14 41  1  0  0  0
 15 18  1  0  0  0
 15 20  1  0  0  0
 17 21  2  0  0  0
 18 42  1  0  0  0
 18 43  1  0  0  0
 18 44  1  0  0  0
 19 21  1  0  0  0
 19 45  1  0  0  0
 20 46  1  0  0  0
 20 47  1  0  0  0
 22 24  1  0  0  0
 22 25  1  0  0  0
 22 48  1  0  0  0
 24 25  1  0  0  0
 24 49  1  0  0  0
 24 50  1  0  0  0
 25 51  1  0  0  0
 25 52  1  0  0  0
M  END
> <s_m_entry_id>
5839

> <s_m_entry_name>
dock_pv.234

> <s_m_Source_Path>
/home/csk/Desktop/cluster/DUD-E-result/igf1r

> <s_m_Source_File>
dock_pv.maegz

> <i_m_Source_File_Index>
234

> <chembl_id>
CHEMBL3409711

> <chembl_pref_name>
None

> <i_lp_mmshare_version>
53161

> <r_lp_tautomer_probability>
0.842599982216935

> <s_lp_Force_Field>
OPLS_2005

> <r_lp_Energy>
30.244971

> <b_lp_Chiralities_Consistent>
1

> <s_lp_Variant>
CHEMBL1957_lig1062-1

> <s_i_glide_gridfile>
glide-grid_2oj9

> <i_i_glide_lignum>
1377

> <i_i_glide_rotatable_bonds>
7

> <r_i_docking_score>
-7.03301851617239

> <r_i_glide_ligand_efficiency>
-0.281320740646895

> <r_i_glide_ligand_efficiency_sa>
-0.822586834896102

> <r_i_glide_ligand_efficiency_ln>
-1.66703615089029

> <r_i_glide_gscore>
-7.03301851617239

> <r_i_glide_lipo>
-3.0518473241463

> <r_i_glide_hbond>
-0.313689782685657

> <r_i_glide_metal>
0

> <r_i_glide_rewards>
-2.39227282430473

> <r_i_glide_evdw>
-33.2374954223633

> <r_i_glide_ecoul>
-3.71983242034912

> <r_i_glide_erotb>
0.975214038498571

> <r_i_glide_esite>
-0.0305729893637456

> <r_i_glide_emodel>
-43.7445834204344

> <r_i_glide_energy>
-36.9573278427124

> <r_i_glide_einternal>
14.8060731887817

> <i_i_glide_confnum>
63

> <i_i_glide_posenum>
79

> <r_i_glide_eff_state_penalty>
0

> <s_user_duplicate_titles>
CHEMBL1957_lig1062

> <i_f3d_flags>
0

> <s_m_subgroup_title>
dock_pv

> <s_m_subgroupid>
dock_pv

> <b_m_subgroup_collapsed>
1

$$$$
CHEMBL1957_lig2280
                    3D
 Schrodinger Suite 2021-1.
 64 68  0  0  1  0            999 V2000
    9.2368   -3.6542   20.3150 C   0  0  0  0  0  0
    8.3044   -3.8898   21.3605 O   0  0  0  0  0  0
    8.7096   -4.5413   22.5080 C   0  0  0  0  0  0
   10.0350   -4.9189   22.7438 C   0  0  0  0  0  0
   10.3999   -5.6081   23.8947 C   0  0  0  0  0  0
    9.4405   -5.9335   24.8413 C   0  0  0  0  0  0
    8.1236   -5.5483   24.6310 C   0  0  0  0  0  0
    7.7531   -4.8253   23.4972 C   0  0  0  0  0  0
    6.2971   -4.3930   23.3946 C   0  0  0  0  0  0
    6.0354   -3.0617   22.7153 C   0  0  0  0  0  0
    5.2622   -2.7220   21.6095 C   0  0  0  0  0  0
    5.6111   -1.3891   21.3368 C   0  0  0  0  0  0
    5.0751   -0.6645   20.1091 C   0  0  0  0  0  0
    3.6621   -1.2310   19.8035 C   0  0  0  0  0  0
    3.6777   -2.7503   19.7232 C   0  0  0  0  0  0
    3.0837   -3.4969   18.7015 C   0  0  0  0  0  0
    3.0835   -4.8551   18.6900 N   0  0  0  0  0  0
    3.6380   -5.4760   19.7591 C   0  0  0  0  0  0
    3.8051   -6.8558   19.5964 N   0  0  0  0  0  0
    4.4849   -7.7628   20.3773 C   0  0  0  0  0  0
    4.8380   -9.0772   20.0333 C   0  0  0  0  0  0
    5.5182   -9.7130   20.9621 N   0  0  0  0  0  0
    5.6479   -8.8209   21.9503 N   0  0  0  0  0  0
    6.2935   -9.1769   23.2168 C   0  0  0  0  0  0
    7.4934  -10.1530   23.1057 C   0  0  0  0  0  0
    8.5862   -9.7069   22.2365 N   0  0  0  0  0  0
    9.2010   -8.4570   22.6717 C   0  0  0  0  0  0
    9.6134  -10.7400   22.1398 C   0  0  0  0  0  0
    4.9665   -7.6643   21.6717 C   0  0  0  0  0  0
    4.2438   -4.8381   20.7989 N   0  0  0  0  0  0
    4.3348   -3.4868   20.7191 C   0  0  0  0  0  0
    6.3540   -0.8618   22.2715 N   0  0  0  0  0  0
    6.6068   -1.8710   23.1091 N   0  0  0  0  0  0
    7.4979   -1.6284   24.2304 C   0  0  0  0  0  0
    8.7162   -3.2526   19.4587 H   0  0  0  0  0  0
   10.0437   -2.9808   20.6088 H   0  0  0  0  0  0
    9.6380   -4.5729   19.9243 H   0  0  0  0  0  0
   10.8211   -4.6734   22.0494 H   0  0  0  0  0  0
   11.4322   -5.8935   24.0400 H   0  0  0  0  0  0
    9.7103   -6.4809   25.7319 H   0  0  0  0  0  0
    7.3800   -5.8101   25.3646 H   0  0  0  0  0  0
    5.8659   -4.4425   24.3922 H   0  0  0  0  0  0
    5.8086   -5.1665   22.8247 H   0  0  0  0  0  0
    5.7400   -0.8168   19.2579 H   0  0  0  0  0  0
    5.0368    0.4142   20.2612 H   0  0  0  0  0  0
    3.2663   -0.8166   18.8745 H   0  0  0  0  0  0
    2.9827   -0.9508   20.6231 H   0  0  0  0  0  0
    2.5885   -3.0120   17.8711 H   0  0  0  0  0  0
    3.4838   -7.1609   18.6895 H   0  0  0  0  0  0
    4.6079   -9.5566   19.0925 H   0  0  0  0  0  0
    5.5405   -9.6374   23.8431 H   0  0  0  0  0  0
    6.5957   -8.2569   23.7150 H   0  0  0  0  0  0
    7.1215  -11.1170   22.7522 H   0  0  0  0  0  0
    7.8874  -10.3398   24.1069 H   0  0  0  0  0  0
   10.0324   -8.1849   22.0206 H   0  0  0  0  0  0
    8.4842   -7.6366   22.6285 H   0  0  0  0  0  0
    9.5851   -8.5308   23.6892 H   0  0  0  0  0  0
   10.3983  -10.4350   21.4472 H   0  0  0  0  0  0
   10.0805  -10.9410   23.1074 H   0  0  0  0  0  0
    9.1912  -11.6740   21.7626 H   0  0  0  0  0  0
    4.8754   -6.8959   22.4138 H   0  0  0  0  0  0
    8.4676   -2.0833   24.0306 H   0  0  0  0  0  0
    7.6356   -0.5590   24.3884 H   0  0  0  0  0  0
    7.0670   -2.0548   25.1306 H   0  0  0  0  0  0
  1  2  1  0  0  0
  1 35  1  0  0  0
  1 36  1  0  0  0
  1 37  1  0  0  0
  2  3  1  0  0  0
  3  4  2  0  0  0
  3  8  1  0  0  0
  4  5  1  0  0  0
  4 38  1  0  0  0
  5  6  2  0  0  0
  5 39  1  0  0  0
  6  7  1  0  0  0
  6 40  1  0  0  0
  7  8  2  0  0  0
  7 41  1  0  0  0
  8  9  1  0  0  0
  9 10  1  0  0  0
  9 42  1  0  0  0
  9 43  1  0  0  0
 10 11  2  0  0  0
 10 33  1  0  0  0
 11 12  1  0  0  0
 11 31  1  0  0  0
 12 13  1  0  0  0
 12 32  2  0  0  0
 13 14  1  0  0  0
 13 44  1  0  0  0
 13 45  1  0  0  0
 14 15  1  0  0  0
 14 46  1  0  0  0
 14 47  1  0  0  0
 15 16  2  0  0  0
 15 31  1  0  0  0
 16 17  1  0  0  0
 16 48  1  0  0  0
 17 18  2  0  0  0
 18 19  1  0  0  0
 18 30  1  0  0  0
 19 20  1  0  0  0
 19 49  1  0  0  0
 20 21  1  0  0  0
 20 29  2  0  0  0
 21 22  2  0  0  0
 21 50  1  0  0  0
 22 23  1  0  0  0
 23 24  1  0  0  0
 23 29  1  0  0  0
 24 25  1  0  0  0
 24 51  1  0  0  0
 24 52  1  0  0  0
 25 26  1  0  0  0
 25 53  1  0  0  0
 25 54  1  0  0  0
 26 27  1  0  0  0
 26 28  1  0  0  0
 27 55  1  0  0  0
 27 56  1  0  0  0
 27 57  1  0  0  0
 28 58  1  0  0  0
 28 59  1  0  0  0
 28 60  1  0  0  0
 29 61  1  0  0  0
 30 31  2  0  0  0
 32 33  1  0  0  0
 33 34  1  0  0  0
 34 62  1  0  0  0
 34 63  1  0  0  0
 34 64  1  0  0  0
M  END
> <s_m_entry_id>
5840

> <s_m_entry_name>
dock_pv.235

> <s_m_Source_Path>
/home/csk/Desktop/cluster/DUD-E-result/igf1r

> <s_m_Source_File>
dock_pv.maegz

> <i_m_Source_File_Index>
235

> <chembl_id>
CHEMBL3656722

> <chembl_pref_name>
None

> <i_lp_mmshare_version>
53161

> <r_lp_tautomer_probability>
0.999999987636

> <s_lp_Force_Field>
OPLS_2005

> <r_lp_Energy>
15.941252

> <b_lp_Chiralities_Consistent>
1

> <s_lp_Variant>
CHEMBL1957_lig2280-1

> <s_i_glide_gridfile>
glide-grid_2oj9

> <i_i_glide_lignum>
3260

> <i_i_glide_rotatable_bonds>
8

> <r_i_docking_score>
-7.03206779760018

> <r_i_glide_ligand_efficiency>
-0.206825523458829

> <r_i_glide_ligand_efficiency_sa>
-0.67003440581502

> <r_i_glide_ligand_efficiency_ln>
-1.55358101931054

> <r_i_glide_gscore>
-7.03206779760018

> <r_i_glide_lipo>
-3.30558293744392

> <r_i_glide_hbond>
-0.165988063792519

> <r_i_glide_metal>
0

> <r_i_glide_rewards>
-1.69258372694153

> <r_i_glide_evdw>
-31.3087043762207

> <r_i_glide_ecoul>
-5.8426718711853

> <r_i_glide_erotb>
0.573922930066622

> <r_i_glide_esite>
0

> <r_i_glide_emodel>
-46.7151483018253

> <r_i_glide_energy>
-37.151376247406

> <r_i_glide_einternal>
2.87837672233582

> <i_i_glide_confnum>
1

> <i_i_glide_posenum>
9

> <r_i_glide_eff_state_penalty>
0

> <s_user_duplicate_titles>
CHEMBL1957_lig2280

> <i_f3d_flags>
0

> <s_m_subgroup_title>
dock_pv

> <s_m_subgroupid>
dock_pv

> <b_m_subgroup_collapsed>
1

$$$$
CHEMBL1957_lig28
                    3D
 Schrodinger Suite 2021-1.
 57 59  0  0  1  0            999 V2000
    4.8380   -5.7987   21.0702 C   0  0  0  0  0  0
    4.8334   -4.3430   21.3639 C   0  0  0  0  0  0
    4.0380   -6.3909   20.1246 C   0  0  0  0  0  0
    5.6840   -3.7802   22.1599 N   0  0  0  0  0  0
    3.3090   -4.1006   19.2733 C   0  0  0  0  0  0
    3.2380   -5.6248   19.1495 C   0  0  0  0  0  0
    3.7700   -3.5742   20.6348 C   0  0  0  0  0  0
    5.6133   -2.3935   22.7327 C   0  0  2  0  0  0
    5.9361   -6.6814   21.6942 C   0  0  0  0  0  0
    5.9699   -1.2115   21.7762 C   0  0  0  0  0  0
    5.5405   -7.4473   22.9827 C   0  0  1  0  0  0
    6.4461   -8.6703   23.3463 C   0  0  2  0  0  0
    4.0807   -7.7262   19.8380 O   0  0  0  0  0  0
    3.2629   -2.5463   21.0810 O   0  0  0  0  0  0
    6.0380   -0.0540   22.1885 O   0  0  0  0  0  0
    6.5267   -2.3306   24.0020 C   0  0  2  0  0  0
    7.8926   -8.2084   23.7040 C   0  0  1  0  0  0
    2.5975   -6.1464   18.2385 O   0  0  0  0  0  0
    6.0380   -1.5611   20.4632 O   0  0  0  0  0  0
    6.3065   -1.1693   24.7862 O   0  0  0  0  0  0
    5.5085   -6.4960   24.1935 C   0  0  0  0  0  0
    6.9133   -5.9922   24.5769 C   0  0  0  0  0  0
    6.4835   -9.7599   22.2396 C   0  0  0  0  0  0
    7.8532   -7.1790   24.8632 C   0  0  0  0  0  0
    8.7632   -9.4277   24.0976 C   0  0  0  0  0  0
    8.0390   -2.4757   23.7515 C   0  0  0  0  0  0
    7.3548  -10.9645   22.6393 C   0  0  0  0  0  0
    8.7839  -10.5165   23.0080 C   0  0  0  0  0  0
    2.3643   -3.6463   18.9943 H   0  0  0  0  0  0
    4.6073   -2.1952   23.1048 H   0  0  0  0  0  0
    6.2415   -7.3931   20.9356 H   0  0  0  0  0  0
    6.8531   -6.1097   21.8272 H   0  0  0  0  0  0
    4.5288   -7.8339   22.8550 H   0  0  0  0  0  0
    6.0299   -9.1452   24.2360 H   0  0  0  0  0  0
    3.7062   -7.8739   18.9598 H   0  0  0  0  0  0
    4.0355   -3.7587   18.5362 H   0  0  0  0  0  0
    6.2305   -3.1583   24.6449 H   0  0  0  0  0  0
    8.3197   -7.7389   22.8160 H   0  0  0  0  0  0
    5.9968   -2.5125   20.3545 H   0  0  0  0  0  0
    6.5639   -0.4047   24.2599 H   0  0  0  0  0  0
    4.8511   -5.6540   23.9969 H   0  0  0  0  0  0
    5.0822   -7.0198   25.0380 H   0  0  0  0  0  0
    7.3402   -5.3782   23.7890 H   0  0  0  0  0  0
    6.8382   -5.3322   25.4380 H   0  0  0  0  0  0
    5.4676  -10.0856   22.0111 H   0  0  0  0  0  0
    6.8644   -9.3622   21.3016 H   0  0  0  0  0  0
    8.8596   -6.8373   25.1095 H   0  0  0  0  0  0
    7.5022   -7.6756   25.7697 H   0  0  0  0  0  0
    9.7753   -9.1043   24.3461 H   0  0  0  0  0  0
    8.3769   -9.8636   25.0208 H   0  0  0  0  0  0
    8.2729   -3.3935   23.2135 H   0  0  0  0  0  0
    8.5932   -2.4997   24.6905 H   0  0  0  0  0  0
    8.4379   -1.6540   23.1619 H   0  0  0  0  0  0
    7.3892  -11.6873   21.8231 H   0  0  0  0  0  0
    6.8986  -11.4805   23.4859 H   0  0  0  0  0  0
    9.2926  -10.1352   22.1210 H   0  0  0  0  0  0
    9.3674  -11.3729   23.3484 H   0  0  0  0  0  0
  1  2  1  0  0  0
  1  3  2  0  0  0
  1  9  1  0  0  0
  2  4  2  0  0  0
  2  7  1  0  0  0
  3 13  1  0  0  0
  3  6  1  0  0  0
  4  8  1  0  0  0
  5  7  1  0  0  0
  5  6  1  0  0  0
  5 29  1  0  0  0
  5 36  1  0  0  0
  6 18  2  0  0  0
  7 14  2  0  0  0
  8 10  1  0  0  0
  8 16  1  0  0  0
  8 30  1  0  0  0
  9 11  1  0  0  0
  9 31  1  0  0  0
  9 32  1  0  0  0
 10 15  2  0  0  0
 10 19  1  0  0  0
 11 12  1  0  0  0
 11 21  1  0  0  0
 11 33  1  0  0  0
 12 17  1  0  0  0
 12 23  1  0  0  0
 12 34  1  0  0  0
 13 35  1  0  0  0
 16 20  1  0  0  0
 16 26  1  0  0  0
 16 37  1  0  0  0
 17 25  1  0  0  0
 17 24  1  0  0  0
 17 38  1  0  0  0
 19 39  1  0  0  0
 20 40  1  0  0  0
 21 22  1  0  0  0
 21 41  1  0  0  0
 21 42  1  0  0  0
 22 24  1  0  0  0
 22 43  1  0  0  0
 22 44  1  0  0  0
 23 27  1  0  0  0
 23 45  1  0  0  0
 23 46  1  0  0  0
 24 47  1  0  0  0
 24 48  1  0  0  0
 25 28  1  0  0  0
 25 49  1  0  0  0
 25 50  1  0  0  0
 26 51  1  0  0  0
 26 52  1  0  0  0
 26 53  1  0  0  0
 27 28  1  0  0  0
 27 54  1  0  0  0
 27 55  1  0  0  0
 28 56  1  0  0  0
 28 57  1  0  0  0
M  END
> <s_m_entry_id>
5842

> <s_m_entry_name>
dock_pv.237

> <s_m_Source_Path>
/home/csk/Desktop/cluster/DUD-E-result/igf1r

> <s_m_Source_File>
dock_pv.maegz

> <i_m_Source_File_Index>
237

> <chembl_id>
CHEMBL442388

> <chembl_pref_name>
None

> <i_lp_mmshare_version>
53161

> <r_lp_tautomer_probability>
0.818181818181818

> <s_lp_Force_Field>
OPLS_2005

> <r_lp_Energy>
38.787177

> <b_lp_Chiralities_Consistent>
1

> <s_lp_Variant>
CHEMBL1957_lig28-3

> <s_i_glide_gridfile>
glide-grid_2oj9

> <i_i_glide_lignum>
56

> <i_i_glide_rotatable_bonds>
8

> <r_i_docking_score>
-7.02738208548492

> <r_i_glide_ligand_efficiency>
-0.250977931624461

> <r_i_glide_ligand_efficiency_sa>
-0.762116818508494

> <r_i_glide_ligand_efficiency_ln>
-1.62212611823367

> <r_i_glide_gscore>
-7.02738208548492

> <r_i_glide_lipo>
-2.22194579553109

> <r_i_glide_hbond>
-0.309315972338825

> <r_i_glide_metal>
0

> <r_i_glide_rewards>
-2.43020058238632

> <r_i_glide_evdw>
-29.9592189788818

> <r_i_glide_ecoul>
-8.03134727478027

> <r_i_glide_erotb>
0.636743304932449

> <r_i_glide_esite>
0

> <r_i_glide_emodel>
-46.8389644377081

> <r_i_glide_energy>
-37.9905662536621

> <r_i_glide_einternal>
7.23170280456543

> <i_i_glide_confnum>
37

> <i_i_glide_posenum>
276

> <r_i_glide_eff_state_penalty>
0

> <s_user_duplicate_titles>
CHEMBL1957_lig28

> <i_f3d_flags>
0

> <s_m_subgroup_title>
dock_pv

> <s_m_subgroupid>
dock_pv

> <b_m_subgroup_collapsed>
1

$$$$
CHEMBL1957_lig1315
                    3D
 Schrodinger Suite 2021-1.
 42 45  0  0  1  0            999 V2000
    8.0361   -3.3732   24.2449 C   0  0  0  0  0  0
    7.5996   -2.0538   24.2153 C   0  0  0  0  0  0
    6.5976   -1.6390   23.4094 N   0  0  0  0  0  0
    6.0345   -2.5763   22.6141 C   0  0  0  0  0  0
    6.3699   -3.8959   22.5863 N   0  0  0  0  0  0
    7.3762   -4.2900   23.4208 C   0  0  0  0  0  0
    7.7255   -5.6442   23.5209 N   0  0  0  0  0  0
    5.0562   -2.0540   21.7723 N   0  0  0  0  0  0
    7.0293   -6.7121   23.0291 C   0  0  0  0  0  0
    7.3979   -7.7727   22.2328 C   0  0  0  0  0  0
    6.2485   -8.5533   22.0445 C   0  0  0  0  0  0
    5.2380   -8.0534   22.7269 N   0  0  0  0  0  0
    5.7177   -6.9599   23.3259 N   0  0  0  0  0  0
    9.4205   -3.8739   25.4538 Br  0  0  0  0  0  0
    4.3724   -2.5407   20.6522 C   0  0  0  0  0  0
    4.0380   -3.8901   20.5308 C   0  0  0  0  0  0
    3.4623   -4.3870   19.3517 C   0  0  0  0  0  0
    3.1893   -3.4925   18.3131 C   0  0  0  0  0  0
    3.4636   -2.1359   18.4463 C   0  0  0  0  0  0
    4.0628   -1.6564   19.6073 C   0  0  0  0  0  0
    6.1024   -9.7755   21.1542 C   0  0  0  0  0  0
    5.1173  -10.8923   21.3929 C   0  0  0  0  0  0
    4.9053   -9.9161   20.2536 C   0  0  0  0  0  0
    4.4389    0.0335   19.7094 Cl  0  0  0  0  0  0
    3.2384   -5.8653   19.1462 C   0  0  0  0  0  0
    2.4519   -6.2984   18.3105 O   0  0  0  0  0  0
    4.0379   -6.6828   19.8377 N   0  0  0  0  0  0
    8.0352   -1.3060   24.8578 H   0  0  0  0  0  0
    8.5558   -5.7937   24.0754 H   0  0  0  0  0  0
    5.0262   -1.0496   21.8411 H   0  0  0  0  0  0
    8.3767   -7.9444   21.8110 H   0  0  0  0  0  0
    5.1539   -6.3860   23.9361 H   0  0  0  0  0  0
    4.2671   -4.5592   21.3466 H   0  0  0  0  0  0
    2.7720   -3.8518   17.3848 H   0  0  0  0  0  0
    3.2382   -1.4628   17.6327 H   0  0  0  0  0  0
    7.0502  -10.1171   20.7442 H   0  0  0  0  0  0
    5.4215  -11.9139   21.1604 H   0  0  0  0  0  0
    4.4387  -10.8464   22.2380 H   0  0  0  0  0  0
    4.0664   -9.2282   20.3453 H   0  0  0  0  0  0
    5.1019  -10.2004   19.2238 H   0  0  0  0  0  0
    4.0039   -7.6692   19.6318 H   0  0  0  0  0  0
    4.7047   -6.3268   20.5058 H   0  0  0  0  0  0
  1  2  2  0  0  0
  1  6  1  0  0  0
  1 14  1  0  0  0
  2  3  1  0  0  0
  2 28  1  0  0  0
  3  4  2  0  0  0
  4  5  1  0  0  0
  4  8  1  0  0  0
  5  6  2  0  0  0
  6  7  1  0  0  0
  7  9  1  0  0  0
  7 29  1  0  0  0
  8 15  1  0  0  0
  8 30  1  0  0  0
  9 10  2  0  0  0
  9 13  1  0  0  0
 10 11  1  0  0  0
 10 31  1  0  0  0
 11 12  2  0  0  0
 11 21  1  0  0  0
 12 13  1  0  0  0
 13 32  1  0  0  0
 15 16  2  0  0  0
 15 20  1  0  0  0
 16 17  1  0  0  0
 16 33  1  0  0  0
 17 18  2  0  0  0
 17 25  1  0  0  0
 18 19  1  0  0  0
 18 34  1  0  0  0
 19 20  2  0  0  0
 19 35  1  0  0  0
 20 24  1  0  0  0
 21 22  1  0  0  0
 21 23  1  0  0  0
 21 36  1  0  0  0
 22 23  1  0  0  0
 22 37  1  0  0  0
 22 38  1  0  0  0
 23 39  1  0  0  0
 23 40  1  0  0  0
 25 26  2  0  0  0
 25 27  1  0  0  0
 27 41  1  0  0  0
 27 42  1  0  0  0
M  END
> <s_m_entry_id>
5843

> <s_m_entry_name>
dock_pv.238

> <s_m_Source_Path>
/home/csk/Desktop/cluster/DUD-E-result/igf1r

> <s_m_Source_File>
dock_pv.maegz

> <i_m_Source_File_Index>
238

> <chembl_id>
CHEMBL3916535

> <chembl_pref_name>
None

> <i_lp_mmshare_version>
53161

> <r_lp_tautomer_probability>
0.157399990546105

> <s_lp_Force_Field>
OPLS_2005

> <r_lp_Energy>
8.784783

> <b_lp_Chiralities_Consistent>
1

> <s_lp_Variant>
CHEMBL1957_lig1315-2

> <s_i_glide_gridfile>
glide-grid_2oj9

> <i_i_glide_lignum>
1766

> <i_i_glide_rotatable_bonds>
6

> <r_i_docking_score>
-7.02632672769286

> <r_i_glide_ligand_efficiency>
-0.260234323247884

> <r_i_glide_ligand_efficiency_sa>
-0.780702968885961

> <r_i_glide_ligand_efficiency_ln>
-1.63561302415756

> <r_i_glide_gscore>
-7.02632672769286

> <r_i_glide_lipo>
-2.9532730588304

> <r_i_glide_hbond>
-0.32

> <r_i_glide_metal>
0

> <r_i_glide_rewards>
-1.42538630332221

> <r_i_glide_evdw>
-40.7699851989746

> <r_i_glide_ecoul>
-5.24479722976685

> <r_i_glide_erotb>
0.497551478873516

> <r_i_glide_esite>
0

> <r_i_glide_emodel>
-62.5857417489476

> <r_i_glide_energy>
-46.0147824287415

> <r_i_glide_einternal>
3.82069516181946

> <i_i_glide_confnum>
24

> <i_i_glide_posenum>
39

> <r_i_glide_eff_state_penalty>
0

> <s_user_duplicate_titles>
CHEMBL1957_lig1315

> <i_f3d_flags>
0

> <s_m_subgroup_title>
dock_pv

> <s_m_subgroupid>
dock_pv

> <b_m_subgroup_collapsed>
1

$$$$
CHEMBL1957_lig2856
                    3D
 Schrodinger Suite 2021-1.
 39 41  0  0  1  0            999 V2000
    8.4243   -4.1423   24.6380 N   0  0  0  0  0  0
    7.5229   -4.7324   23.8170 C   0  0  0  0  0  0
    6.6660   -4.0653   23.0021 N   0  0  0  0  0  0
    6.7154   -2.7136   22.9835 C   0  0  0  0  0  0
    7.5882   -2.0254   23.8285 C   0  0  0  0  0  0
    8.4380   -2.7862   24.6379 C   0  0  0  0  0  0
    5.9411   -1.9914   22.0569 N   0  0  0  0  0  0
    5.0427   -2.3599   21.0256 C   0  0  0  0  0  0
    4.7771   -1.4804   19.9427 C   0  0  0  0  0  0
    3.9007   -1.8851   18.9219 C   0  0  0  0  0  0
    3.2851   -3.1311   18.9581 C   0  0  0  0  0  0
    3.5381   -3.9921   20.0187 C   0  0  0  0  0  0
    4.4053   -3.6078   21.0380 C   0  0  0  0  0  0
    5.3815   -0.1011   19.8576 C   0  0  0  0  0  0
    5.6380    0.3460   18.5950 O   0  0  0  0  0  0
    5.6380    0.5525   20.8667 O   0  0  0  0  0  0
    7.4944   -6.1315   23.8504 N   0  0  0  0  0  0
    6.8329   -7.0700   23.0425 C   0  0  0  0  0  0
    6.7292   -8.3826   23.5026 C   0  0  0  0  0  0
    6.0998   -9.3518   22.7236 C   0  0  0  0  0  0
    5.5541   -9.0121   21.4783 C   0  0  0  0  0  0
    5.6380   -7.6899   21.0380 C   0  0  0  0  0  0
    6.3023   -6.7407   21.7924 C   0  0  0  0  0  0
    4.9006  -10.0257   20.6232 N   0  3  0  0  0  0
    4.4492   -9.6540   19.5427 O   0  0  0  0  0  0
    4.8381  -11.1829   21.0269 O   0  5  0  0  0  0
    7.6381   -0.9475   23.8380 H   0  0  0  0  0  0
    9.1625   -2.3121   25.2846 H   0  0  0  0  0  0
    6.1706   -1.0077   22.0243 H   0  0  0  0  0  0
    3.6798   -1.2334   18.0872 H   0  0  0  0  0  0
    2.6135   -3.4247   18.1632 H   0  0  0  0  0  0
    3.0569   -4.9585   20.0563 H   0  0  0  0  0  0
    4.5430   -4.2976   21.8529 H   0  0  0  0  0  0
    6.0489    1.2294   18.6380 H   0  0  0  0  0  0
    8.1016   -6.5196   24.5561 H   0  0  0  0  0  0
    7.1401   -8.6589   24.4627 H   0  0  0  0  0  0
    6.0373  -10.3659   23.0954 H   0  0  0  0  0  0
    5.2353   -7.3966   20.0781 H   0  0  0  0  0  0
    6.4061   -5.7608   21.3613 H   0  0  0  0  0  0
  1  2  2  0  0  0
  1  6  1  0  0  0
  2 17  1  0  0  0
  2  3  1  0  0  0
  3  4  2  0  0  0
  4  7  1  0  0  0
  4  5  1  0  0  0
  5  6  2  0  0  0
  5 27  1  0  0  0
  6 28  1  0  0  0
  7  8  1  0  0  0
  7 29  1  0  0  0
  8 13  1  0  0  0
  8  9  2  0  0  0
  9 14  1  0  0  0
  9 10  1  0  0  0
 10 11  2  0  0  0
 10 30  1  0  0  0
 11 12  1  0  0  0
 11 31  1  0  0  0
 12 13  2  0  0  0
 12 32  1  0  0  0
 13 33  1  0  0  0
 14 15  1  0  0  0
 14 16  2  0  0  0
 15 34  1  0  0  0
 17 18  1  0  0  0
 17 35  1  0  0  0
 18 19  2  0  0  0
 18 23  1  0  0  0
 19 20  1  0  0  0
 19 36  1  0  0  0
 20 21  2  0  0  0
 20 37  1  0  0  0
 21 22  1  0  0  0
 21 24  1  0  0  0
 22 23  2  0  0  0
 22 38  1  0  0  0
 23 39  1  0  0  0
 24 25  2  0  0  0
 24 26  1  0  0  0
M  CHG  2  24   1  26  -1
M  END
> <s_m_entry_id>
5844

> <s_m_entry_name>
dock_pv.239

> <s_m_Source_Path>
/home/csk/Desktop/cluster/DUD-E-result/igf1r

> <s_m_Source_File>
dock_pv.maegz

> <i_m_Source_File_Index>
239

> <chembl_id>
CHEMBL242865

> <chembl_pref_name>
None

> <i_lp_mmshare_version>
53161

> <r_lp_tautomer_probability>
0.999999624730965

> <s_lp_Force_Field>
OPLS_2005

> <r_lp_Energy>
17.09567

> <b_lp_Chiralities_Consistent>
1

> <s_lp_Variant>
CHEMBL1957_lig2856-1

> <s_i_glide_gridfile>
glide-grid_2oj9

> <i_i_glide_lignum>
3954

> <i_i_glide_rotatable_bonds>
7

> <r_i_docking_score>
-7.0261028647259

> <r_i_glide_ligand_efficiency>
-0.270234725566381

> <r_i_glide_ligand_efficiency_sa>
-0.800569311168103

> <r_i_glide_ligand_efficiency_ln>
-1.65005720325697

> <r_i_glide_gscore>
-7.0261028647259

> <r_i_glide_lipo>
-2.99045442385733

> <r_i_glide_hbond>
-0.149722670481368

> <r_i_glide_metal>
0

> <r_i_glide_rewards>
-1.6879027839463

> <r_i_glide_evdw>
-40.9251556396484

> <r_i_glide_ecoul>
-6.16246128082275

> <r_i_glide_erotb>
0.772603987664932

> <r_i_glide_esite>
0

> <r_i_glide_emodel>
-64.2143700020477

> <r_i_glide_energy>
-47.0876169204712

> <r_i_glide_einternal>
8.07924175262451

> <i_i_glide_confnum>
29

> <i_i_glide_posenum>
231

> <r_i_glide_eff_state_penalty>
0

> <s_user_duplicate_titles>
CHEMBL1957_lig2856

> <i_f3d_flags>
0

> <s_m_subgroup_title>
dock_pv

> <s_m_subgroupid>
dock_pv

> <b_m_subgroup_collapsed>
1

$$$$
CHEMBL1957_lig3419
                    3D
 Schrodinger Suite 2021-1.
 46 50  0  0  1  0            999 V2000
    4.2672   -7.6214   19.4380 F   0  0  0  0  0  0
    6.1183  -10.6056   22.5802 F   0  0  0  0  0  0
    3.0072   -3.0573   19.0777 O   0  0  0  0  0  0
    9.6361   -8.4537   21.9442 O   0  0  0  0  0  0
    4.5965   -3.2354   20.6665 N   0  0  0  0  0  0
    8.0790   -4.6267   23.6659 N   0  0  0  0  0  0
    3.5220   -5.1590   20.2385 N   0  0  0  0  0  0
    7.1417   -4.8996   22.7337 N   0  0  0  0  0  0
    9.6379   -4.7937   25.2030 N   0  0  0  0  0  0
    9.2379   -3.4744   25.2183 N   0  0  0  0  0  0
    5.1678   -4.1918   21.4962 C   0  0  0  0  0  0
    4.4736   -5.3842   21.1419 C   0  0  0  0  0  0
    6.2957   -3.8747   22.4344 C   0  0  0  0  0  0
    3.6329   -3.8908   19.9599 C   0  0  0  0  0  0
    9.0441   -5.4560   24.2337 C   0  0  0  0  0  0
    4.7707   -6.7913   21.5912 C   0  0  0  0  0  0
    8.2623   -3.3831   24.2939 C   0  0  0  0  0  0
    9.3120   -6.9513   23.9407 C   0  0  0  0  0  0
    6.4234   -2.5935   22.9852 C   0  0  0  0  0  0
    4.6189   -1.9131   20.2348 C   0  0  0  0  0  0
    7.4272   -2.3254   23.9138 C   0  0  0  0  0  0
    4.7643   -7.8351   20.6572 C   0  0  0  0  0  0
    3.6383   -1.8545   19.2515 C   0  0  0  0  0  0
    5.1211   -7.1019   22.9081 C   0  0  0  0  0  0
    5.2350   -9.1076   20.9684 C   0  0  0  0  0  0
    9.0992   -7.2285   22.4125 C   0  0  0  0  0  0
    5.5515   -8.3894   23.2315 C   0  0  0  0  0  0
    5.6491   -9.3799   22.2615 C   0  0  0  0  0  0
   10.7587   -7.3627   24.3813 C   0  0  0  0  0  0
    8.3232   -7.7730   24.7928 C   0  0  0  0  0  0
   10.5978   -8.3318   21.9393 H   0  0  0  0  0  0
    5.7260   -1.8105   22.7333 H   0  0  0  0  0  0
    5.3167   -1.1716   20.5919 H   0  0  0  0  0  0
    7.5324   -1.3502   24.3655 H   0  0  0  0  0  0
    3.3056   -1.0681   18.5914 H   0  0  0  0  0  0
    5.0955   -6.3430   23.6767 H   0  0  0  0  0  0
    5.2488   -9.8851   20.2189 H   0  0  0  0  0  0
    9.5675   -6.4379   21.8234 H   0  0  0  0  0  0
    8.0421   -7.2221   22.1516 H   0  0  0  0  0  0
    5.8242   -8.6331   24.2374 H   0  0  0  0  0  0
   11.1421   -8.2355   23.8545 H   0  0  0  0  0  0
   11.4818   -6.5627   24.2177 H   0  0  0  0  0  0
   10.8191   -7.6438   25.4341 H   0  0  0  0  0  0
    8.2229   -8.7982   24.4333 H   0  0  0  0  0  0
    8.6186   -7.8151   25.8413 H   0  0  0  0  0  0
    7.3451   -7.2994   24.8022 H   0  0  0  0  0  0
  1 22  1  0  0  0
  2 28  1  0  0  0
  3 14  1  0  0  0
  3 23  1  0  0  0
  4 26  1  0  0  0
  4 31  1  0  0  0
  5 11  1  0  0  0
  5 14  1  0  0  0
  5 20  1  0  0  0
  6  8  1  0  0  0
  6 15  1  0  0  0
  6 17  1  0  0  0
  7 12  1  0  0  0
  7 14  2  0  0  0
  8 13  2  0  0  0
  9 10  1  0  0  0
  9 15  2  0  0  0
 10 17  2  0  0  0
 11 12  2  0  0  0
 11 13  1  0  0  0
 12 16  1  0  0  0
 13 19  1  0  0  0
 15 18  1  0  0  0
 16 22  1  0  0  0
 16 24  2  0  0  0
 17 21  1  0  0  0
 18 26  1  0  0  0
 18 29  1  0  0  0
 18 30  1  0  0  0
 19 21  2  0  0  0
 19 32  1  0  0  0
 20 23  2  0  0  0
 20 33  1  0  0  0
 21 34  1  0  0  0
 22 25  2  0  0  0
 23 35  1  0  0  0
 24 27  1  0  0  0
 24 36  1  0  0  0
 25 28  1  0  0  0
 25 37  1  0  0  0
 26 38  1  0  0  0
 26 39  1  0  0  0
 27 28  2  0  0  0
 27 40  1  0  0  0
 29 41  1  0  0  0
 29 42  1  0  0  0
 29 43  1  0  0  0
 30 44  1  0  0  0
 30 45  1  0  0  0
 30 46  1  0  0  0
M  END
> <s_m_entry_id>
5845

> <s_m_entry_name>
dock_pv.240

> <s_m_Source_Path>
/home/csk/Desktop/cluster/DUD-E-result/igf1r

> <s_m_Source_File>
dock_pv.maegz

> <i_m_Source_File_Index>
240

> <chembl_id>
CHEMBL1972849

> <chembl_pref_name>
None

> <i_lp_mmshare_version>
53161

> <r_lp_tautomer_probability>
1

> <s_lp_Force_Field>
OPLS_2005

> <r_lp_Energy>
51.320929

> <b_lp_Chiralities_Consistent>
1

> <s_lp_Variant>
CHEMBL1957_lig3419-1

> <s_i_glide_gridfile>
glide-grid_2oj9

> <i_i_glide_lignum>
4818

> <i_i_glide_rotatable_bonds>
5

> <r_i_docking_score>
-7.02131672302716

> <r_i_glide_ligand_efficiency>
-0.234043890767572

> <r_i_glide_ligand_efficiency_sa>
-0.727228784388431

> <r_i_glide_ligand_efficiency_ln>
-1.59531966284491

> <r_i_glide_gscore>
-7.02131672302716

> <r_i_glide_lipo>
-2.9322602159765

> <r_i_glide_hbond>
-0.344438480143207

> <r_i_glide_metal>
0

> <r_i_glide_rewards>
-1.84209166821349

> <r_i_glide_evdw>
-41.1149711608887

> <r_i_glide_ecoul>
-2.00783920288086

> <r_i_glide_erotb>
0.467899156865927

> <r_i_glide_esite>
-0.0135010770833197

> <r_i_glide_emodel>
-57.3842009806781

> <r_i_glide_energy>
-43.1228103637695

> <r_i_glide_einternal>
3.57412958145142

> <i_i_glide_confnum>
84

> <i_i_glide_posenum>
379

> <r_i_glide_eff_state_penalty>
0

> <s_user_duplicate_titles>
CHEMBL1957_lig3419

> <i_f3d_flags>
0

> <s_m_subgroup_title>
dock_pv

> <s_m_subgroupid>
dock_pv

> <b_m_subgroup_collapsed>
1

$$$$
CHEMBL1957_lig2885
                    3D
 Schrodinger Suite 2021-1.
 28 30  0  0  1  0            999 V2000
    4.1253   -2.4204   20.0958 C   0  0  0  0  0  0
    5.0491   -1.4509   20.4761 C   0  0  0  0  0  0
    6.0084   -1.7452   21.4428 C   0  0  0  0  0  0
    4.2009   -3.6992   20.6380 C   0  0  0  0  0  0
    5.2000   -4.0402   21.5628 C   0  0  0  0  0  0
    6.0959   -3.0290   22.0025 C   0  0  0  0  0  0
    7.0317   -3.3408   22.9966 N   0  0  0  0  0  0
    5.2950   -5.4729   22.0377 C   0  0  0  0  0  0
    8.0378   -2.4588   23.3089 O   0  0  0  0  0  0
    4.5104   -6.3470   21.6664 O   0  0  0  0  0  0
    2.8943   -2.0544   18.9432 Cl  0  0  0  0  0  0
    6.9706   -6.8666   23.4957 C   0  0  0  0  0  0
    6.4255   -5.6915   22.9428 C   0  0  0  0  0  0
    7.2206   -4.6432   23.3845 C   0  0  0  0  0  0
    8.1574   -5.2448   24.1991 N   0  0  0  0  0  0
    8.0206   -6.5777   24.2374 N   0  0  0  0  0  0
    9.2618   -4.6444   24.9338 C   0  0  0  0  0  0
    6.5524   -8.3155   23.2910 C   0  0  0  0  0  0
    5.2380   -8.4561   23.4365 F   0  0  0  0  0  0
    7.1385   -9.1424   24.1596 F   0  0  0  0  0  0
    6.8723   -8.7307   22.0654 F   0  0  0  0  0  0
    5.0070   -0.4618   20.0427 H   0  0  0  0  0  0
    6.6819   -0.9640   21.7587 H   0  0  0  0  0  0
    3.4912   -4.4413   20.2972 H   0  0  0  0  0  0
    8.7700   -2.8120   22.7916 H   0  0  0  0  0  0
    8.9167   -3.7444   25.4404 H   0  0  0  0  0  0
    9.6448   -5.3357   25.6867 H   0  0  0  0  0  0
   10.0589   -4.3882   24.2371 H   0  0  0  0  0  0
  1  4  1  0  0  0
  1 11  1  0  0  0
  1  2  2  0  0  0
  2  3  1  0  0  0
  2 22  1  0  0  0
  3  6  2  0  0  0
  3 23  1  0  0  0
  4  5  2  0  0  0
  4 24  1  0  0  0
  5  6  1  0  0  0
  5  8  1  0  0  0
  6  7  1  0  0  0
  7 14  1  0  0  0
  7  9  1  0  0  0
  8 10  2  0  0  0
  8 13  1  0  0  0
  9 25  1  0  0  0
 12 13  1  0  0  0
 12 16  2  0  0  0
 12 18  1  0  0  0
 13 14  2  0  0  0
 14 15  1  0  0  0
 15 16  1  0  0  0
 15 17  1  0  0  0
 17 26  1  0  0  0
 17 27  1  0  0  0
 17 28  1  0  0  0
 18 19  1  0  0  0
 18 20  1  0  0  0
 18 21  1  0  0  0
M  END
> <s_m_entry_id>
5846

> <s_m_entry_name>
dock_pv.241

> <s_m_Source_Path>
/home/csk/Desktop/cluster/DUD-E-result/igf1r

> <s_m_Source_File>
dock_pv.maegz

> <i_m_Source_File_Index>
241

> <chembl_id>
CHEMBL207400

> <chembl_pref_name>
None

> <i_lp_mmshare_version>
53161

> <r_lp_tautomer_probability>
1

> <s_lp_Force_Field>
OPLS_2005

> <r_lp_Energy>
16.297072

> <b_lp_Chiralities_Consistent>
1

> <s_lp_Variant>
CHEMBL1957_lig2885-1

> <s_i_glide_gridfile>
glide-grid_2oj9

> <i_i_glide_lignum>
3992

> <i_i_glide_rotatable_bonds>
2

> <r_i_docking_score>
-7.02096761567399

> <r_i_glide_ligand_efficiency>
-0.334331791222571

> <r_i_glide_ligand_efficiency_sa>
-0.922396060800671

> <r_i_glide_ligand_efficiency_ln>
-1.73592005577448

> <r_i_glide_gscore>
-7.02096761567399

> <r_i_glide_lipo>
-2.41835695171793

> <r_i_glide_hbond>
-0.118349646503127

> <r_i_glide_metal>
0

> <r_i_glide_rewards>
-2.5378788524978

> <r_i_glide_evdw>
-32.4907379150391

> <r_i_glide_ecoul>
-2.14563512802124

> <r_i_glide_erotb>
0

> <r_i_glide_esite>
0

> <r_i_glide_emodel>
-48.8236646135427

> <r_i_glide_energy>
-34.6363730430603

> <r_i_glide_einternal>
0.679778397083282

> <i_i_glide_confnum>
1

> <i_i_glide_posenum>
295

> <r_i_glide_eff_state_penalty>
0

> <s_user_duplicate_titles>
CHEMBL1957_lig2885

> <i_f3d_flags>
0

> <s_m_subgroup_title>
dock_pv

> <s_m_subgroupid>
dock_pv

> <b_m_subgroup_collapsed>
1

$$$$
CHEMBL1957_lig2066
                    3D
 Schrodinger Suite 2021-1.
 53 57  0  0  1  0            999 V2000
    2.4953   -2.0547   20.8543 C   0  0  0  0  0  0
    3.7357   -2.3474   20.0301 C   0  0  1  0  0  0
    4.9836   -1.5196   20.4665 C   0  0  0  0  0  0
    5.6251   -2.1221   21.7032 C   0  0  0  0  0  0
    6.3014   -1.4693   22.6196 N   0  0  0  0  0  0
    6.8867   -2.4300   23.3462 N   0  0  0  0  0  0
    7.8840   -2.0512   24.3315 C   0  0  0  0  0  0
    6.6025   -3.6910   22.8812 C   0  0  0  0  0  0
    7.3577   -4.9127   23.2516 C   0  0  0  0  0  0
    7.1056   -5.6208   24.4240 C   0  0  0  0  0  0
    7.7378   -6.8483   24.6397 C   0  0  0  0  0  0
    8.6329   -7.3632   23.7082 C   0  0  0  0  0  0
    8.9272   -6.6254   22.5689 C   0  0  0  0  0  0
    8.3283   -5.3869   22.3624 C   0  0  0  0  0  0
    8.8516   -4.4227   21.0369 Cl  0  0  0  0  0  0
    5.6238   -3.5044   21.9074 C   0  0  0  0  0  0
    4.8158   -4.4306   21.0576 C   0  0  0  0  0  0
    4.9417   -5.7822   21.1961 N   0  0  0  0  0  0
    4.2162   -6.5343   20.3286 C   0  0  0  0  0  0
    4.4382   -7.9334   20.2326 N   0  0  0  0  0  0
    5.1447   -8.8250   20.9781 C   0  0  0  0  0  0
    5.3583   -8.7879   22.3525 N   0  3  0  0  0  0
    4.8714   -7.8783   23.3790 C   0  0  0  0  0  0
    6.0731   -9.8718   22.6801 N   0  0  0  0  0  0
    6.2649  -10.6883   21.5956 C   0  0  0  0  0  0
    5.6418  -10.0515   20.5317 C   0  0  0  0  0  0
    6.9940  -12.0019   21.7078 C   0  0  0  0  0  0
    3.3668   -6.0743   19.3749 N   0  0  0  0  0  0
    3.2379   -4.7315   19.2896 C   0  0  0  0  0  0
    3.9454   -3.8483   20.1114 C   0  0  0  0  0  0
    1.5893   -2.3806   20.3548 H   0  0  0  0  0  0
    2.5479   -2.5234   21.8351 H   0  0  0  0  0  0
    2.4097   -0.9935   20.9929 H   0  0  0  0  0  0
    3.5273   -2.0735   18.9937 H   0  0  0  0  0  0
    4.7651   -0.4593   20.5822 H   0  0  0  0  0  0
    5.7253   -1.5498   19.6678 H   0  0  0  0  0  0
    8.0855   -2.8820   25.0056 H   0  0  0  0  0  0
    8.8049   -1.7916   23.8168 H   0  0  0  0  0  0
    7.5444   -1.1912   24.9085 H   0  0  0  0  0  0
    6.3837   -5.2547   25.1405 H   0  0  0  0  0  0
    7.5238   -7.4076   25.5381 H   0  0  0  0  0  0
    9.1171   -8.3139   23.8775 H   0  0  0  0  0  0
    9.6421   -7.0007   21.8560 H   0  0  0  0  0  0
    3.9518   -8.3400   19.4462 H   0  0  0  0  0  0
    3.8170   -7.6540   23.2448 H   0  0  0  0  0  0
    5.0298   -8.2949   24.3704 H   0  0  0  0  0  0
    5.4065   -6.9490   23.3025 H   0  0  0  0  0  0
    6.2879  -10.0576   23.6492 H   0  0  0  0  0  0
    5.5778  -10.4386   19.5260 H   0  0  0  0  0  0
    7.0934  -12.4906   20.7388 H   0  0  0  0  0  0
    8.0005  -11.8737   22.1067 H   0  0  0  0  0  0
    6.4701  -12.6958   22.3660 H   0  0  0  0  0  0
    2.5562   -4.3610   18.5373 H   0  0  0  0  0  0
  1  2  1  0  0  0
  1 31  1  0  0  0
  1 32  1  0  0  0
  1 33  1  0  0  0
  2  3  1  0  0  0
  2 30  1  0  0  0
  2 34  1  0  0  0
  3  4  1  0  0  0
  3 35  1  0  0  0
  3 36  1  0  0  0
  4  5  2  0  0  0
  4 16  1  0  0  0
  5  6  1  0  0  0
  6  7  1  0  0  0
  6  8  1  0  0  0
  7 37  1  0  0  0
  7 38  1  0  0  0
  7 39  1  0  0  0
  8  9  1  0  0  0
  8 16  2  0  0  0
  9 10  2  0  0  0
  9 14  1  0  0  0
 10 11  1  0  0  0
 10 40  1  0  0  0
 11 12  2  0  0  0
 11 41  1  0  0  0
 12 13  1  0  0  0
 12 42  1  0  0  0
 13 14  2  0  0  0
 13 43  1  0  0  0
 14 15  1  0  0  0
 16 17  1  0  0  0
 17 18  2  0  0  0
 17 30  1  0  0  0
 18 19  1  0  0  0
 19 20  1  0  0  0
 19 28  2  0  0  0
 20 21  1  0  0  0
 20 44  1  0  0  0
 21 22  2  0  0  0
 21 26  1  0  0  0
 22 23  1  0  0  0
 22 24  1  0  0  0
 23 45  1  0  0  0
 23 46  1  0  0  0
 23 47  1  0  0  0
 24 25  1  0  0  0
 24 48  1  0  0  0
 25 26  2  0  0  0
 25 27  1  0  0  0
 26 49  1  0  0  0
 27 50  1  0  0  0
 27 51  1  0  0  0
 27 52  1  0  0  0
 28 29  1  0  0  0
 29 30  2  0  0  0
 29 53  1  0  0  0
M  CHG  1  22   1
M  END
> <s_m_entry_id>
5847

> <s_m_entry_name>
dock_pv.242

> <s_m_Source_Path>
/home/csk/Desktop/cluster/DUD-E-result/igf1r

> <s_m_Source_File>
dock_pv.maegz

> <i_m_Source_File_Index>
242

> <chembl_id>
CHEMBL4108861

> <chembl_pref_name>
None

> <i_lp_mmshare_version>
53161

> <r_lp_tautomer_probability>
0.999999987636

> <s_lp_Force_Field>
OPLS_2005

> <r_lp_Energy>
24.781536

> <b_lp_Chiralities_Consistent>
1

> <s_lp_Variant>
CHEMBL1957_lig2066-2

> <s_i_glide_gridfile>
glide-grid_2oj9

> <i_i_glide_lignum>
3028

> <i_i_glide_rotatable_bonds>
3

> <r_i_docking_score>
-7.01811004273705

> <r_i_glide_ligand_efficiency>
-0.233937001424568

> <r_i_glide_ligand_efficiency_sa>
-0.726896654347687

> <r_i_glide_ligand_efficiency_ln>
-1.59459107014342

> <r_i_glide_gscore>
-7.01811004273705

> <r_i_glide_lipo>
-3.16072536295574

> <r_i_glide_hbond>
-0.00737739980525463

> <r_i_glide_metal>
0

> <r_i_glide_rewards>
-1.69291177695476

> <r_i_glide_evdw>
-32.4173812866211

> <r_i_glide_ecoul>
-5.80959796905518

> <r_i_glide_erotb>
0.335213256668031

> <r_i_glide_esite>
0

> <r_i_glide_emodel>
-44.9413341003497

> <r_i_glide_energy>
-38.2269792556763

> <r_i_glide_einternal>
6.82739448547363

> <i_i_glide_confnum>
12

> <i_i_glide_posenum>
389

> <r_i_glide_eff_state_penalty>
0

> <s_user_duplicate_titles>
CHEMBL1957_lig2066

> <i_f3d_flags>
0

> <s_m_subgroup_title>
dock_pv

> <s_m_subgroupid>
dock_pv

> <b_m_subgroup_collapsed>
1

$$$$
CHEMBL1957_lig2011
                    3D
 Schrodinger Suite 2021-1.
 57 62  0  0  1  0            999 V2000
    9.6381   -7.0258   23.2270 C   0  0  0  0  0  0
    8.3840   -6.5541   23.9694 C   0  0  1  0  0  0
    8.6554   -5.1874   24.6388 C   0  0  0  0  0  0
    7.3264   -4.4786   24.5199 C   0  0  0  0  0  0
    6.8403   -4.9271   23.1567 C   0  0  0  0  0  0
    7.2878   -6.3154   22.9994 N   0  0  0  0  0  0
    6.6603   -7.2646   22.1795 C   0  0  0  0  0  0
    5.6541   -6.8175   21.4002 N   0  0  0  0  0  0
    4.9863   -7.7223   20.6533 C   0  0  0  0  0  0
    4.0376   -7.2816   19.7333 N   0  0  0  0  0  0
    3.5892   -6.0103   19.4589 C   0  0  0  0  0  0
    3.6384   -4.8508   20.2378 C   0  0  0  0  0  0
    3.2484   -3.8004   19.4393 C   0  0  0  0  0  0
    2.8673   -4.4125   18.2759 N   0  0  0  0  0  0
    3.0279   -5.7414   18.3002 N   0  0  0  0  0  0
    3.2527   -2.3096   19.6436 C   0  0  0  0  0  0
    4.5522   -1.6336   20.0132 C   0  0  0  0  0  0
    3.9648   -1.4525   18.6381 C   0  0  0  0  0  0
    5.2786   -9.0955   20.7325 C   0  0  0  0  0  0
    4.8390  -10.3122   20.1714 C   0  0  0  0  0  0
    5.6288  -11.3257   20.6910 C   0  0  0  0  0  0
    6.5664  -10.7652   21.5439 C   0  0  0  0  0  0
    6.3621   -9.4100   21.5682 N   0  0  0  0  0  0
    7.1003   -8.5446   22.2494 N   0  0  0  0  0  0
    7.9989   -7.6354   25.0366 C   0  0  0  0  0  0
    6.8382   -8.0435   25.0979 O   0  0  0  0  0  0
    8.9699   -8.0536   25.8790 N   0  0  0  0  0  0
    8.8747   -9.0670   26.8420 C   0  0  0  0  0  0
    8.0934  -10.2210   26.6638 C   0  0  0  0  0  0
    8.0687  -11.1423   27.7138 C   0  0  0  0  0  0
    8.7708  -10.9584   28.8620 N   0  0  0  0  0  0
    9.5187   -9.8273   28.9272 C   0  0  0  0  0  0
    9.6126   -8.8727   27.9659 N   0  0  0  0  0  0
   10.5254   -7.0023   23.8584 H   0  0  0  0  0  0
    9.5613   -8.0382   22.8288 H   0  0  0  0  0  0
    9.8441   -6.3675   22.3827 H   0  0  0  0  0  0
    9.0239   -5.2431   25.6635 H   0  0  0  0  0  0
    9.4072   -4.6224   24.0808 H   0  0  0  0  0  0
    6.6222   -4.8109   25.2872 H   0  0  0  0  0  0
    7.4186   -3.3948   24.5962 H   0  0  0  0  0  0
    5.7500   -4.8877   23.1677 H   0  0  0  0  0  0
    7.2348   -4.2909   22.3627 H   0  0  0  0  0  0
    3.7478   -8.0283   19.1179 H   0  0  0  0  0  0
    4.0606   -4.7733   21.2247 H   0  0  0  0  0  0
    2.4992   -3.9259   17.4673 H   0  0  0  0  0  0
    2.3359   -1.9133   20.0839 H   0  0  0  0  0  0
    4.5735   -0.7484   20.6380 H   0  0  0  0  0  0
    5.4466   -2.2470   20.1339 H   0  0  0  0  0  0
    4.4520   -1.9568   17.8094 H   0  0  0  0  0  0
    3.5405   -0.4886   18.3572 H   0  0  0  0  0  0
    4.0568  -10.4500   19.4387 H   0  0  0  0  0  0
    5.5405  -12.3767   20.4517 H   0  0  0  0  0  0
    7.3550  -11.2230   22.1211 H   0  0  0  0  0  0
    9.8233   -7.5191   25.8977 H   0  0  0  0  0  0
    7.5522  -10.4078   25.7483 H   0  0  0  0  0  0
    7.4871  -12.0501   27.6410 H   0  0  0  0  0  0
   10.0923   -9.6698   29.8288 H   0  0  0  0  0  0
  1  2  1  0  0  0
  1 34  1  0  0  0
  1 35  1  0  0  0
  1 36  1  0  0  0
  2  3  1  0  0  0
  2  6  1  0  0  0
  2 25  1  0  0  0
  3  4  1  0  0  0
  3 37  1  0  0  0
  3 38  1  0  0  0
  4  5  1  0  0  0
  4 39  1  0  0  0
  4 40  1  0  0  0
  5  6  1  0  0  0
  5 41  1  0  0  0
  5 42  1  0  0  0
  6  7  1  0  0  0
  7  8  1  0  0  0
  7 24  2  0  0  0
  8  9  2  0  0  0
  9 10  1  0  0  0
  9 19  1  0  0  0
 10 11  1  0  0  0
 10 43  1  0  0  0
 11 12  1  0  0  0
 11 15  2  0  0  0
 12 13  2  0  0  0
 12 44  1  0  0  0
 13 14  1  0  0  0
 13 16  1  0  0  0
 14 15  1  0  0  0
 14 45  1  0  0  0
 16 17  1  0  0  0
 16 18  1  0  0  0
 16 46  1  0  0  0
 17 18  1  0  0  0
 17 47  1  0  0  0
 17 48  1  0  0  0
 18 49  1  0  0  0
 18 50  1  0  0  0
 19 20  2  0  0  0
 19 23  1  0  0  0
 20 21  1  0  0  0
 20 51  1  0  0  0
 21 22  2  0  0  0
 21 52  1  0  0  0
 22 23  1  0  0  0
 22 53  1  0  0  0
 23 24  1  0  0  0
 25 26  2  0  0  0
 25 27  1  0  0  0
 27 28  1  0  0  0
 27 54  1  0  0  0
 28 29  2  0  0  0
 28 33  1  0  0  0
 29 30  1  0  0  0
 29 55  1  0  0  0
 30 31  2  0  0  0
 30 56  1  0  0  0
 31 32  1  0  0  0
 32 33  2  0  0  0
 32 57  1  0  0  0
M  END
> <s_m_entry_id>
5848

> <s_m_entry_name>
dock_pv.243

> <s_m_Source_Path>
/home/csk/Desktop/cluster/DUD-E-result/igf1r

> <s_m_Source_File>
dock_pv.maegz

> <i_m_Source_File_Index>
243

> <chembl_id>
CHEMBL3655739

> <chembl_pref_name>
None

> <i_lp_mmshare_version>
53161

> <r_lp_tautomer_probability>
0.842599999161192

> <s_lp_Force_Field>
OPLS_2005

> <r_lp_Energy>
50.22441

> <b_lp_Chiralities_Consistent>
1

> <s_lp_Variant>
CHEMBL1957_lig2011-1

> <s_i_glide_gridfile>
glide-grid_2oj9

> <i_i_glide_lignum>
2939

> <i_i_glide_rotatable_bonds>
7

> <r_i_docking_score>
-7.01586566789989

> <r_i_glide_ligand_efficiency>
-0.21260198993636

> <r_i_glide_ligand_efficiency_sa>
-0.681928180551514

> <r_i_glide_ligand_efficiency_ln>
-1.56029219833264

> <r_i_glide_gscore>
-7.01586566789989

> <r_i_glide_lipo>
-2.81115740936413

> <r_i_glide_hbond>
-0.583921644782726

> <r_i_glide_metal>
0

> <r_i_glide_rewards>
-1.52553918779629

> <r_i_glide_evdw>
-35.3730850219727

> <r_i_glide_ecoul>
-5.39534282684326

> <r_i_glide_erotb>
0.496027864028345

> <r_i_glide_esite>
-0.013319614859975

> <r_i_glide_emodel>
-49.7405721194937

> <r_i_glide_energy>
-40.7684278488159

> <r_i_glide_einternal>
10.0839262008667

> <i_i_glide_confnum>
15

> <i_i_glide_posenum>
63

> <r_i_glide_eff_state_penalty>
0

> <s_user_duplicate_titles>
CHEMBL1957_lig2011

> <i_f3d_flags>
0

> <s_m_subgroup_title>
dock_pv

> <s_m_subgroupid>
dock_pv

> <b_m_subgroup_collapsed>
1

$$$$
CHEMBL1957_lig3289
                    3D
 Schrodinger Suite 2021-1.
 42 45  0  0  1  0            999 V2000
    9.3960   -9.8548   22.9474 O   0  0  0  0  0  0
    6.1201   -4.0392   22.5235 N   0  0  0  0  0  0
    4.6031   -4.9115   21.1638 N   0  0  0  0  0  0
    6.8379   -1.4096   23.1584 N   0  0  0  0  0  0
    8.4612   -2.4540   24.6380 N   0  0  0  0  0  0
    7.8467   -8.3368   22.2711 N   0  0  0  0  0  0
   12.0744   -8.4539   24.7240 N   0  0  0  0  0  0
    5.5723   -5.2035   22.0173 C   0  0  0  0  0  0
    7.1400   -3.8105   23.4763 C   0  0  0  0  0  0
    5.4674   -2.9815   21.8795 C   0  0  0  0  0  0
    6.0396   -6.6254   22.3639 C   0  0  1  0  0  0
    7.4346   -2.4603   23.7252 C   0  0  0  0  0  0
    4.5279   -3.6066   21.0379 C   0  0  0  0  0  0
    5.8978   -1.6880   22.2155 C   0  0  0  0  0  0
    5.0511   -7.7400   21.9135 C   0  0  2  0  0  0
    7.9721   -4.6232   24.3078 C   0  0  0  0  0  0
    7.4906   -6.9431   21.8690 C   0  0  0  0  0  0
    8.8346   -3.7463   24.9482 C   0  0  0  0  0  0
    5.5810   -9.0800   22.4573 C   0  0  0  0  0  0
    6.9355   -9.4237   21.8381 C   0  0  0  0  0  0
    9.0223   -8.6830   22.8661 C   0  0  0  0  0  0
    4.7517   -7.8280   20.3921 C   0  0  0  0  0  0
    9.8276   -7.6301   23.6341 C   0  0  0  0  0  0
   11.0890   -8.0904   24.2380 C   0  0  0  0  0  0
    8.9328   -1.6281   24.9978 H   0  0  0  0  0  0
    6.0609   -6.6742   23.4541 H   0  0  0  0  0  0
    3.8176   -3.1487   20.3648 H   0  0  0  0  0  0
    5.4922   -0.8308   21.7055 H   0  0  0  0  0  0
    4.1025   -7.5425   22.4156 H   0  0  0  0  0  0
    7.9568   -5.6911   24.4250 H   0  0  0  0  0  0
    8.1863   -6.2099   22.2674 H   0  0  0  0  0  0
    7.5163   -6.8995   20.7814 H   0  0  0  0  0  0
    9.6376   -3.9255   25.6480 H   0  0  0  0  0  0
    4.8783   -9.8779   22.2048 H   0  0  0  0  0  0
    5.6428   -9.0758   23.5472 H   0  0  0  0  0  0
    6.8395   -9.4523   20.7542 H   0  0  0  0  0  0
    7.2336  -10.4172   22.1787 H   0  0  0  0  0  0
    5.6335   -7.6397   19.7866 H   0  0  0  0  0  0
    4.3630   -8.8073   20.1133 H   0  0  0  0  0  0
    3.9945   -7.1136   20.0769 H   0  0  0  0  0  0
    9.2285   -7.3208   24.4851 H   0  0  0  0  0  0
   10.0380   -6.7538   23.0263 H   0  0  0  0  0  0
  1 21  2  0  0  0
  2  8  1  0  0  0
  2  9  1  0  0  0
  2 10  1  0  0  0
  3  8  2  0  0  0
  3 13  1  0  0  0
  4 12  1  0  0  0
  4 14  2  0  0  0
  5 12  1  0  0  0
  5 18  1  0  0  0
  5 25  1  0  0  0
  6 17  1  0  0  0
  6 20  1  0  0  0
  6 21  1  0  0  0
  7 24  3  0  0  0
  8 11  1  0  0  0
  9 12  2  0  0  0
  9 16  1  0  0  0
 10 13  2  0  0  0
 10 14  1  0  0  0
 11 15  1  0  0  0
 11 17  1  0  0  0
 11 26  1  0  0  0
 13 27  1  0  0  0
 14 28  1  0  0  0
 15 19  1  0  0  0
 15 22  1  0  0  0
 15 29  1  0  0  0
 16 18  2  0  0  0
 16 30  1  0  0  0
 17 31  1  0  0  0
 17 32  1  0  0  0
 18 33  1  0  0  0
 19 20  1  0  0  0
 19 34  1  0  0  0
 19 35  1  0  0  0
 20 36  1  0  0  0
 20 37  1  0  0  0
 21 23  1  0  0  0
 22 38  1  0  0  0
 22 39  1  0  0  0
 22 40  1  0  0  0
 23 24  1  0  0  0
 23 41  1  0  0  0
 23 42  1  0  0  0
M  END
> <s_m_entry_id>
5849

> <s_m_entry_name>
dock_pv.244

> <s_m_Source_Path>
/home/csk/Desktop/cluster/DUD-E-result/igf1r

> <s_m_Source_File>
dock_pv.maegz

> <i_m_Source_File_Index>
244

> <chembl_id>
CHEMBL1966175

> <chembl_pref_name>
None

> <i_lp_mmshare_version>
53161

> <r_lp_tautomer_probability>
1

> <s_lp_Force_Field>
OPLS_2005

> <r_lp_Energy>
64.408161

> <b_lp_Chiralities_Consistent>
1

> <s_lp_Variant>
CHEMBL1957_lig3289-2

> <s_i_glide_gridfile>
glide-grid_2oj9

> <i_i_glide_lignum>
4617

> <i_i_glide_rotatable_bonds>
3

> <r_i_docking_score>
-7.01233092098962

> <r_i_glide_ligand_efficiency>
-0.292180455041234

> <r_i_glide_ligand_efficiency_sa>
-0.842794270578071

> <r_i_glide_ligand_efficiency_ln>
-1.67837256429165

> <r_i_glide_gscore>
-7.01233092098962

> <r_i_glide_lipo>
-2.10839018555471

> <r_i_glide_hbond>
-0.32

> <r_i_glide_metal>
0

> <r_i_glide_rewards>
-2.80125413882146

> <r_i_glide_evdw>
-31.6763553619385

> <r_i_glide_ecoul>
-2.91429615020752

> <r_i_glide_erotb>
0.3598832651684

> <r_i_glide_esite>
-0.121607671153796

> <r_i_glide_emodel>
-46.0557478990164

> <r_i_glide_energy>
-34.590651512146

> <r_i_glide_einternal>
4.08022832870483

> <i_i_glide_confnum>
4

> <i_i_glide_posenum>
149

> <r_i_glide_eff_state_penalty>
0

> <s_user_duplicate_titles>
CHEMBL1957_lig3289

> <i_f3d_flags>
0

> <s_m_subgroup_title>
dock_pv

> <s_m_subgroupid>
dock_pv

> <b_m_subgroup_collapsed>
1

$$$$
CHEMBL1957_lig844
                    3D
 Schrodinger Suite 2021-1.
 52 56  0  0  1  0            999 V2000
    7.1685   -8.6094   23.9440 C   0  0  0  0  0  0
    6.9007   -9.3825   22.8103 C   0  0  0  0  0  0
    5.9408   -8.9954   21.8598 C   0  0  0  0  0  0
    5.2708   -7.7720   22.0279 C   0  0  0  0  0  0
    5.4654   -7.0454   23.2082 C   0  0  0  0  0  0
    6.4139   -7.4487   24.1458 C   0  0  0  0  0  0
    5.6367   -9.7562   20.7424 O   0  0  0  0  0  0
    6.1262  -11.0912   20.6613 C   0  0  0  0  0  0
    4.4194   -7.3199   20.9994 N   0  0  0  0  0  0
    4.0381   -6.0361   20.5782 C   0  0  0  0  0  0
    3.3057   -5.9709   19.4381 N   0  0  0  0  0  0
    3.1294   -4.7343   18.9058 C   0  0  0  0  0  0
    3.6381   -3.5702   19.4838 C   0  0  0  0  0  0
    4.4380   -3.7238   20.6377 C   0  0  0  0  0  0
    4.5841   -4.9578   21.1939 N   0  0  0  0  0  0
    5.2616   -2.6402   21.2983 C   0  0  0  0  0  0
    5.3506   -1.2664   21.0322 C   0  0  0  0  0  0
    6.0309   -0.5718   21.9145 N   0  0  0  0  0  0
    6.1768   -2.8061   22.3347 N   0  0  0  0  0  0
    6.4878   -1.5058   22.7706 C   0  0  0  0  0  0
    7.2383   -1.3371   23.9406 C   0  0  0  0  0  0
    7.8167   -2.4540   24.5398 C   0  0  0  0  0  0
    7.5895   -3.7300   24.0397 C   0  0  0  0  0  0
    6.7514   -3.8994   22.9431 C   0  0  0  0  0  0
    3.3079   -2.0632   18.7027 Cl  0  0  0  0  0  0
    8.1636   -9.0119   24.8297 N   0  0  0  0  0  0
    9.5272   -9.2625   24.3385 C   0  0  0  0  0  0
   10.3971  -10.1746   25.2474 C   0  0  0  0  0  0
    9.9147  -10.2813   26.6352 N   0  0  0  0  0  0
    8.8133   -9.6793   27.1209 C   0  0  0  0  0  0
    8.2339   -8.5611   26.2299 C   0  0  0  0  0  0
    8.3077  -10.0306   28.1845 O   0  0  0  0  0  0
    7.4550  -10.2986   22.6795 H   0  0  0  0  0  0
    4.8996   -6.1479   23.4045 H   0  0  0  0  0  0
    6.5687   -6.8359   25.0219 H   0  0  0  0  0  0
    5.6374  -11.6056   19.8388 H   0  0  0  0  0  0
    7.2016  -11.1121   20.4767 H   0  0  0  0  0  0
    5.9051  -11.6618   21.5651 H   0  0  0  0  0  0
    4.1832   -8.0421   20.3332 H   0  0  0  0  0  0
    2.5435   -4.6766   17.9998 H   0  0  0  0  0  0
    4.8544   -0.7331   20.2369 H   0  0  0  0  0  0
    7.4703   -0.3473   24.3042 H   0  0  0  0  0  0
    8.4731   -2.3229   25.3888 H   0  0  0  0  0  0
    8.0667   -4.5839   24.5020 H   0  0  0  0  0  0
    6.5889   -4.8649   22.5051 H   0  0  0  0  0  0
   10.0002   -8.2785   24.3266 H   0  0  0  0  0  0
    9.5403   -9.6225   23.3090 H   0  0  0  0  0  0
   11.4541   -9.9128   25.1869 H   0  0  0  0  0  0
   10.2660  -11.1866   24.8621 H   0  0  0  0  0  0
   10.2919  -11.0184   27.2110 H   0  0  0  0  0  0
    7.2398   -8.3523   26.6152 H   0  0  0  0  0  0
    8.8263   -7.6514   26.3333 H   0  0  0  0  0  0
  1  6  1  0  0  0
  1  2  2  0  0  0
  1 26  1  0  0  0
  2  3  1  0  0  0
  2 33  1  0  0  0
  3  7  1  0  0  0
  3  4  2  0  0  0
  4  9  1  0  0  0
  4  5  1  0  0  0
  5  6  2  0  0  0
  5 34  1  0  0  0
  6 35  1  0  0  0
  7  8  1  0  0  0
  8 36  1  0  0  0
  8 37  1  0  0  0
  8 38  1  0  0  0
  9 10  1  0  0  0
  9 39  1  0  0  0
 10 11  2  0  0  0
 10 15  1  0  0  0
 11 12  1  0  0  0
 12 13  2  0  0  0
 12 40  1  0  0  0
 13 25  1  0  0  0
 13 14  1  0  0  0
 14 16  1  0  0  0
 14 15  2  0  0  0
 16 17  2  0  0  0
 16 19  1  0  0  0
 17 18  1  0  0  0
 17 41  1  0  0  0
 18 20  2  0  0  0
 19 20  1  0  0  0
 19 24  1  0  0  0
 20 21  1  0  0  0
 21 22  2  0  0  0
 21 42  1  0  0  0
 22 23  1  0  0  0
 22 43  1  0  0  0
 23 24  2  0  0  0
 23 44  1  0  0  0
 24 45  1  0  0  0
 26 27  1  0  0  0
 26 31  1  0  0  0
 27 28  1  0  0  0
 27 46  1  0  0  0
 27 47  1  0  0  0
 28 29  1  0  0  0
 28 48  1  0  0  0
 28 49  1  0  0  0
 29 30  1  0  0  0
 29 50  1  0  0  0
 30 31  1  0  0  0
 30 32  2  0  0  0
 31 51  1  0  0  0
 31 52  1  0  0  0
M  END
> <s_m_entry_id>
5850

> <s_m_entry_name>
dock_pv.245

> <s_m_Source_Path>
/home/csk/Desktop/cluster/DUD-E-result/igf1r

> <s_m_Source_File>
dock_pv.maegz

> <i_m_Source_File_Index>
245

> <chembl_id>
CHEMBL1809047

> <chembl_pref_name>
None

> <i_lp_mmshare_version>
53161

> <r_lp_tautomer_probability>
0.999999987636

> <s_lp_Force_Field>
OPLS_2005

> <r_lp_Energy>
34.414359

> <b_lp_Chiralities_Consistent>
1

> <s_lp_Variant>
CHEMBL1957_lig844-1

> <s_i_glide_gridfile>
glide-grid_2oj9

> <i_i_glide_lignum>
1075

> <i_i_glide_rotatable_bonds>
5

> <r_i_docking_score>
-7.01049037960718

> <r_i_glide_ligand_efficiency>
-0.219077824362724

> <r_i_glide_ligand_efficiency_sa>
-0.69552873690908

> <r_i_glide_ligand_efficiency_ln>
-1.56983989474435

> <r_i_glide_gscore>
-7.01049037960718

> <r_i_glide_lipo>
-3.20937580564467

> <r_i_glide_hbond>
0

> <r_i_glide_metal>
0

> <r_i_glide_rewards>
-1.35900950199593

> <r_i_glide_evdw>
-41.8657264709473

> <r_i_glide_ecoul>
-4.9663348197937

> <r_i_glide_erotb>
0.396131474549839

> <r_i_glide_esite>
0

> <r_i_glide_emodel>
-62.6267013714565

> <r_i_glide_energy>
-46.832061290741

> <r_i_glide_einternal>
2.95674681663513

> <i_i_glide_confnum>
19

> <i_i_glide_posenum>
181

> <r_i_glide_eff_state_penalty>
0

> <s_user_duplicate_titles>
CHEMBL1957_lig844

> <i_f3d_flags>
0

> <s_m_subgroup_title>
dock_pv

> <s_m_subgroupid>
dock_pv

> <b_m_subgroup_collapsed>
1

$$$$
CHEMBL1957_lig1439
                    3D
 Schrodinger Suite 2021-1.
 49 53  0  0  1  0            999 V2000
    5.1877   -9.0559   20.7813 C   0  0  0  0  0  0
    4.4381   -8.2613   19.9182 C   0  0  0  0  0  0
    4.2614   -6.9302   20.1178 N   0  0  0  0  0  0
    4.8491   -6.3928   21.2161 C   0  0  0  0  0  0
    5.5762   -7.0941   22.1172 N   0  0  0  0  0  0
    5.7477   -8.4280   21.8984 C   0  0  0  0  0  0
    6.5411   -9.1963   22.7629 N   0  0  0  0  0  0
    4.8387   -5.0081   21.4382 N   0  0  0  0  0  0
    7.3006   -8.7946   23.8314 C   0  0  0  0  0  0
    8.4029   -9.4774   24.3534 C   0  0  0  0  0  0
    8.8848   -8.7204   25.4050 C   0  0  0  0  0  0
    8.0313   -7.6542   25.4380 N   0  0  0  0  0  0
    7.0744   -7.6939   24.5133 N   0  0  0  0  0  0
    4.4339   -3.8754   20.6988 C   0  0  0  0  0  0
    4.9439   -2.5978   21.0381 C   0  0  0  0  0  0
    4.6219   -1.4995   20.2371 C   0  0  0  0  0  0
    3.7839   -1.6355   19.1334 C   0  0  0  0  0  0
    3.2385   -2.8762   18.8257 C   0  0  0  0  0  0
    3.5603   -3.9851   19.6051 C   0  0  0  0  0  0
   10.0425   -8.8791   26.3606 C   0  0  0  0  0  0
   10.5623  -10.2528   26.7085 C   0  0  0  0  0  0
   11.3843   -9.3257   25.8346 C   0  0  0  0  0  0
    5.7306   -2.3321   22.1493 O   0  0  0  0  0  0
    5.4194  -10.9122   20.4165 Br  0  0  0  0  0  0
    6.8101   -3.1224   22.4806 C   0  0  0  0  0  0
    7.6549   -3.6541   21.5023 C   0  0  0  0  0  0
    8.6577   -4.5471   21.8579 C   0  0  0  0  0  0
    8.8568   -4.8614   23.2000 C   0  0  0  0  0  0
    8.0568   -4.2906   24.1879 C   0  0  0  0  0  0
    7.0301   -3.4208   23.8260 C   0  0  0  0  0  0
    3.9691   -8.6913   19.0443 H   0  0  0  0  0  0
    6.5954  -10.1561   22.4604 H   0  0  0  0  0  0
    5.4023   -4.7666   22.2411 H   0  0  0  0  0  0
    8.8134  -10.4091   23.9945 H   0  0  0  0  0  0
    8.0626   -6.9112   26.1305 H   0  0  0  0  0  0
    5.0305   -0.5274   20.4739 H   0  0  0  0  0  0
    3.5521   -0.7778   18.5197 H   0  0  0  0  0  0
    2.5787   -2.9819   17.9757 H   0  0  0  0  0  0
    3.1202   -4.9283   19.3294 H   0  0  0  0  0  0
   10.0528   -8.1425   27.1645 H   0  0  0  0  0  0
   10.0885  -11.1247   26.2564 H   0  0  0  0  0  0
   10.8823  -10.4400   27.7340 H   0  0  0  0  0  0
   12.2819   -8.8573   26.2363 H   0  0  0  0  0  0
   11.4814   -9.5416   24.7692 H   0  0  0  0  0  0
    7.4997   -3.4045   20.4644 H   0  0  0  0  0  0
    9.2615   -5.0028   21.0914 H   0  0  0  0  0  0
    9.6401   -5.5539   23.4739 H   0  0  0  0  0  0
    8.2208   -4.5420   25.2253 H   0  0  0  0  0  0
    6.3858   -3.0029   24.5847 H   0  0  0  0  0  0
  1  2  2  0  0  0
  1  6  1  0  0  0
  1 24  1  0  0  0
  2  3  1  0  0  0
  2 31  1  0  0  0
  3  4  2  0  0  0
  4  5  1  0  0  0
  4  8  1  0  0  0
  5  6  2  0  0  0
  6  7  1  0  0  0
  7  9  1  0  0  0
  7 32  1  0  0  0
  8 14  1  0  0  0
  8 33  1  0  0  0
  9 10  1  0  0  0
  9 13  2  0  0  0
 10 11  2  0  0  0
 10 34  1  0  0  0
 11 12  1  0  0  0
 11 20  1  0  0  0
 12 13  1  0  0  0
 12 35  1  0  0  0
 14 15  2  0  0  0
 14 19  1  0  0  0
 15 16  1  0  0  0
 15 23  1  0  0  0
 16 17  2  0  0  0
 16 36  1  0  0  0
 17 18  1  0  0  0
 17 37  1  0  0  0
 18 19  2  0  0  0
 18 38  1  0  0  0
 19 39  1  0  0  0
 20 21  1  0  0  0
 20 22  1  0  0  0
 20 40  1  0  0  0
 21 22  1  0  0  0
 21 41  1  0  0  0
 21 42  1  0  0  0
 22 43  1  0  0  0
 22 44  1  0  0  0
 23 25  1  0  0  0
 25 26  2  0  0  0
 25 30  1  0  0  0
 26 27  1  0  0  0
 26 45  1  0  0  0
 27 28  2  0  0  0
 27 46  1  0  0  0
 28 29  1  0  0  0
 28 47  1  0  0  0
 29 30  2  0  0  0
 29 48  1  0  0  0
 30 49  1  0  0  0
M  END
> <s_m_entry_id>
5851

> <s_m_entry_name>
dock_pv.246

> <s_m_Source_Path>
/home/csk/Desktop/cluster/DUD-E-result/igf1r

> <s_m_Source_File>
dock_pv.maegz

> <i_m_Source_File_Index>
246

> <chembl_id>
CHEMBL3963506

> <chembl_pref_name>
None

> <i_lp_mmshare_version>
53161

> <r_lp_tautomer_probability>
0.842599732729633

> <s_lp_Force_Field>
OPLS_2005

> <r_lp_Energy>
18.319139

> <b_lp_Chiralities_Consistent>
1

> <s_lp_Variant>
CHEMBL1957_lig1439-1

> <s_i_glide_gridfile>
glide-grid_2oj9

> <i_i_glide_lignum>
2012

> <i_i_glide_rotatable_bonds>
7

> <r_i_docking_score>
-7.00621377433917

> <r_i_glide_ligand_efficiency>
-0.233540459144639

> <r_i_glide_ligand_efficiency_sa>
-0.725664505286902

> <r_i_glide_ligand_efficiency_ln>
-1.59188810834319

> <r_i_glide_gscore>
-7.00621377433917

> <r_i_glide_lipo>
-3.48326058148726

> <r_i_glide_hbond>
-0.32

> <r_i_glide_metal>
0

> <r_i_glide_rewards>
-0.843757492860958

> <r_i_glide_evdw>
-43.1310043334961

> <r_i_glide_ecoul>
-5.57238149642944

> <r_i_glide_erotb>
0.65706912759883

> <r_i_glide_esite>
-0.023857386450554

> <r_i_glide_emodel>
-64.6865200700371

> <r_i_glide_energy>
-48.7033858299255

> <r_i_glide_einternal>
6.47671937942505

> <i_i_glide_confnum>
18

> <i_i_glide_posenum>
253

> <r_i_glide_eff_state_penalty>
0

> <s_user_duplicate_titles>
CHEMBL1957_lig1439

> <i_f3d_flags>
0

> <s_m_subgroup_title>
dock_pv

> <s_m_subgroupid>
dock_pv

> <b_m_subgroup_collapsed>
1

$$$$
CHEMBL1957_lig2678
                    3D
 Schrodinger Suite 2021-1.
 35 38  0  0  1  0            999 V2000
    7.0710   -4.3930   23.6838 C   0  0  0  0  0  0
    7.8119   -3.2246   23.8926 C   0  0  0  0  0  0
    7.6290   -2.0656   23.2150 N   0  0  0  0  0  0
    6.0675   -4.4209   22.6978 C   0  0  0  0  0  0
    5.2876   -5.5509   22.3997 N   0  0  0  0  0  0
    5.8587   -3.2266   21.9770 C   0  0  0  0  0  0
    6.6726   -2.1153   22.2909 C   0  0  0  0  0  0
    6.3887   -1.0445   21.4863 O   0  0  0  0  0  0
    5.0103   -2.7961   20.9435 C   0  0  0  0  0  0
    5.3976   -1.4674   20.6387 C   0  0  0  0  0  0
    4.8268   -0.7258   19.6003 C   0  0  0  0  0  0
    3.8213   -1.3519   18.8630 C   0  0  0  0  0  0
    3.3901   -2.6457   19.1652 C   0  0  0  0  0  0
    3.9679   -3.3804   20.2045 C   0  0  0  0  0  0
    5.3633   -6.8273   23.1124 C   0  0  0  0  0  0
    5.4459   -8.0304   22.1736 C   0  0  0  0  0  0
    6.0467   -9.2003   22.6462 C   0  0  0  0  0  0
    6.0615  -10.3580   21.8667 C   0  0  0  0  0  0
    5.4504  -10.3618   20.6157 C   0  0  0  0  0  0
    4.8381   -9.2054   20.1376 C   0  0  0  0  0  0
    4.8380   -8.0430   20.9088 C   0  0  0  0  0  0
    6.8229  -11.7886   22.4597 Cl  0  0  0  0  0  0
    7.3116   -5.2479   24.2899 H   0  0  0  0  0  0
    8.5984   -3.2079   24.6354 H   0  0  0  0  0  0
    4.5753   -5.4529   21.6933 H   0  0  0  0  0  0
    5.1561    0.2804   19.3745 H   0  0  0  0  0  0
    3.3556   -0.8238   18.0430 H   0  0  0  0  0  0
    2.6051   -3.0891   18.5698 H   0  0  0  0  0  0
    3.6330   -4.3872   20.4013 H   0  0  0  0  0  0
    4.4597   -6.9381   23.7176 H   0  0  0  0  0  0
    6.2021   -6.8804   23.8014 H   0  0  0  0  0  0
    6.4980   -9.2238   23.6279 H   0  0  0  0  0  0
    5.4541  -11.2582   20.0115 H   0  0  0  0  0  0
    4.3609   -9.2142   19.1677 H   0  0  0  0  0  0
    4.3410   -7.1648   20.5223 H   0  0  0  0  0  0
  1  2  2  0  0  0
  1  4  1  0  0  0
  1 23  1  0  0  0
  2  3  1  0  0  0
  2 24  1  0  0  0
  3  7  2  0  0  0
  4  5  1  0  0  0
  4  6  2  0  0  0
  5 15  1  0  0  0
  5 25  1  0  0  0
  6  7  1  0  0  0
  6  9  1  0  0  0
  7  8  1  0  0  0
  8 10  1  0  0  0
  9 14  1  0  0  0
  9 10  2  0  0  0
 10 11  1  0  0  0
 11 12  2  0  0  0
 11 26  1  0  0  0
 12 13  1  0  0  0
 12 27  1  0  0  0
 13 14  2  0  0  0
 13 28  1  0  0  0
 14 29  1  0  0  0
 15 16  1  0  0  0
 15 30  1  0  0  0
 15 31  1  0  0  0
 16 17  2  0  0  0
 16 21  1  0  0  0
 17 18  1  0  0  0
 17 32  1  0  0  0
 18 19  2  0  0  0
 18 22  1  0  0  0
 19 20  1  0  0  0
 19 33  1  0  0  0
 20 21  2  0  0  0
 20 34  1  0  0  0
 21 35  1  0  0  0
M  END
> <s_m_entry_id>
5852

> <s_m_entry_name>
dock_pv.247

> <s_m_Source_Path>
/home/csk/Desktop/cluster/DUD-E-result/igf1r

> <s_m_Source_File>
dock_pv.maegz

> <i_m_Source_File_Index>
247

> <chembl_id>
CHEMBL1290073

> <chembl_pref_name>
None

> <i_lp_mmshare_version>
53161

> <r_lp_tautomer_probability>
1

> <s_lp_Force_Field>
OPLS_2005

> <r_lp_Energy>
13.258114

> <b_lp_Chiralities_Consistent>
1

> <s_lp_Variant>
CHEMBL1957_lig2678-1

> <s_i_glide_gridfile>
glide-grid_2oj9

> <i_i_glide_lignum>
3704

> <i_i_glide_rotatable_bonds>
3

> <r_i_docking_score>
-7.00408608053353

> <r_i_glide_ligand_efficiency>
-0.31836754911516

> <r_i_glide_ligand_efficiency_sa>
-0.892078393305889

> <r_i_glide_ligand_efficiency_ln>
-1.71205411832965

> <r_i_glide_gscore>
-7.00408608053353

> <r_i_glide_lipo>
-3.97844523305566

> <r_i_glide_hbond>
0

> <r_i_glide_metal>
0

> <r_i_glide_rewards>
-1.47056675757576

> <r_i_glide_evdw>
-37.3313255310059

> <r_i_glide_ecoul>
-1.80581331253052

> <r_i_glide_erotb>
0.582364183527754

> <r_i_glide_esite>
0

> <r_i_glide_emodel>
-54.0882340694052

> <r_i_glide_energy>
-39.1371388435364

> <r_i_glide_einternal>
2.79136490821838

> <i_i_glide_confnum>
15

> <i_i_glide_posenum>
255

> <r_i_glide_eff_state_penalty>
0

> <s_user_duplicate_titles>
CHEMBL1957_lig2678

> <i_f3d_flags>
0

> <s_m_subgroup_title>
dock_pv

> <s_m_subgroupid>
dock_pv

> <b_m_subgroup_collapsed>
1

$$$$
CHEMBL1957_lig66
                    3D
 Schrodinger Suite 2021-1.
 62 66  0  0  1  0            999 V2000
    5.7905   -2.7114   22.6786 C   0  0  0  0  0  0
    4.8484   -2.7736   21.6421 C   0  0  0  0  0  0
    4.4871   -3.9820   21.0380 C   0  0  0  0  0  0
    6.4380   -3.8662   23.1421 C   0  0  0  0  0  0
    6.0640   -5.0716   22.5474 C   0  0  0  0  0  0
    5.1088   -5.1527   21.5131 C   0  0  0  0  0  0
    4.9523   -6.4540   21.1064 N   0  0  0  0  0  0
    5.8034   -7.1746   21.8108 C   0  0  0  0  0  0
    6.4452   -6.3748   22.7318 N   0  0  0  0  0  0
    6.0704   -8.6370   21.6290 C   0  0  0  0  0  0
    7.0816   -9.2968   22.2915 C   0  0  0  0  0  0
    7.2316  -10.7357   22.1264 C   0  0  0  0  0  0
    6.3588  -11.3747   21.3346 C   0  0  0  0  0  0
    5.3866  -10.7310   20.6380 N   0  0  0  0  0  0
    5.2273   -9.3843   20.6623 C   0  0  0  0  0  0
    4.4510   -8.9129   19.8380 O   0  0  0  0  0  0
    6.0449   -1.4760   23.3132 N   0  0  0  0  0  0
    6.0380   -0.2108   22.7733 C   0  0  0  0  0  0
    6.2678    0.7465   23.6433 N   0  0  0  0  0  0
    6.4380    0.1259   24.7905 C   0  0  0  0  0  0
    6.3263   -1.2438   24.6380 C   0  0  0  0  0  0
    3.4643   -3.9767   19.9153 C   0  0  0  0  0  0
    7.9176   -8.7182   23.2108 N   0  0  0  0  0  0
    9.1179   -7.9407   22.8954 C   0  0  0  0  0  0
    9.7211   -7.2463   24.1392 C   0  0  2  0  0  0
   10.2027   -8.2790   25.1606 C   0  0  0  0  0  0
    9.4673   -8.5995   26.3104 C   0  0  0  0  0  0
    9.9185   -9.5965   27.1774 C   0  0  0  0  0  0
   11.1066  -10.2778   26.9064 C   0  0  0  0  0  0
   11.8537   -9.9561   25.7705 C   0  0  0  0  0  0
   11.3943   -8.9638   24.9045 C   0  0  0  0  0  0
    8.7726   -6.3204   24.6466 O   0  0  0  0  0  0
   13.0307  -10.6323   25.4380 N   0  0  0  0  0  0
   14.4179  -10.6999   26.5309 S   0  0  0  0  0  0
   14.8136   -8.8867   26.8036 C   0  0  0  0  0  0
   15.5178  -11.3038   25.7725 O   0  0  0  0  0  0
   13.9597  -11.2775   27.7980 O   0  0  0  0  0  0
    4.3702   -1.8681   21.3013 H   0  0  0  0  0  0
    7.1743   -3.8375   23.9324 H   0  0  0  0  0  0
    7.1445   -6.7463   23.3689 H   0  0  0  0  0  0
    8.0210  -11.2744   22.6290 H   0  0  0  0  0  0
    6.3938  -12.4340   21.1167 H   0  0  0  0  0  0
    4.8360  -11.1977   19.9312 H   0  0  0  0  0  0
    5.8745   -0.0801   21.7137 H   0  0  0  0  0  0
    6.6669    0.6619   25.7014 H   0  0  0  0  0  0
    6.4170   -2.0540   25.3373 H   0  0  0  0  0  0
    2.8081   -3.1075   19.9688 H   0  0  0  0  0  0
    3.9626   -3.9802   18.9453 H   0  0  0  0  0  0
    2.8367   -4.8660   19.9756 H   0  0  0  0  0  0
    8.0863   -9.2678   24.0412 H   0  0  0  0  0  0
    8.8928   -7.1915   22.1350 H   0  0  0  0  0  0
    9.8598   -8.5995   22.4397 H   0  0  0  0  0  0
   10.5849   -6.6516   23.8380 H   0  0  0  0  0  0
    8.5383   -8.0907   26.5281 H   0  0  0  0  0  0
    9.3441   -9.8459   28.0573 H   0  0  0  0  0  0
   11.4381  -11.0580   27.5755 H   0  0  0  0  0  0
   11.9596   -8.7276   24.0125 H   0  0  0  0  0  0
    9.0910   -5.9773   25.4872 H   0  0  0  0  0  0
   13.2868  -10.5802   24.4605 H   0  0  0  0  0  0
   15.7784   -8.8059   27.3010 H   0  0  0  0  0  0
   14.0380   -8.4567   27.4320 H   0  0  0  0  0  0
   14.8380   -8.3877   25.8380 H   0  0  0  0  0  0
  1  4  1  0  0  0
  1 17  1  0  0  0
  1  2  2  0  0  0
  2  3  1  0  0  0
  2 38  1  0  0  0
  3 22  1  0  0  0
  3  6  2  0  0  0
  4  5  2  0  0  0
  4 39  1  0  0  0
  5  9  1  0  0  0
  5  6  1  0  0  0
  6  7  1  0  0  0
  7  8  2  0  0  0
  8  9  1  0  0  0
  8 10  1  0  0  0
  9 40  1  0  0  0
 10 11  2  0  0  0
 10 15  1  0  0  0
 11 23  1  0  0  0
 11 12  1  0  0  0
 12 13  2  0  0  0
 12 41  1  0  0  0
 13 14  1  0  0  0
 13 42  1  0  0  0
 14 15  1  0  0  0
 14 43  1  0  0  0
 15 16  2  0  0  0
 17 21  1  0  0  0
 17 18  1  0  0  0
 18 19  2  0  0  0
 18 44  1  0  0  0
 19 20  1  0  0  0
 20 21  2  0  0  0
 20 45  1  0  0  0
 21 46  1  0  0  0
 22 47  1  0  0  0
 22 48  1  0  0  0
 22 49  1  0  0  0
 23 24  1  0  0  0
 23 50  1  0  0  0
 24 25  1  0  0  0
 24 51  1  0  0  0
 24 52  1  0  0  0
 25 26  1  0  0  0
 25 32  1  0  0  0
 25 53  1  0  0  0
 26 27  2  0  0  0
 26 31  1  0  0  0
 27 28  1  0  0  0
 27 54  1  0  0  0
 28 29  2  0  0  0
 28 55  1  0  0  0
 29 30  1  0  0  0
 29 56  1  0  0  0
 30 31  2  0  0  0
 30 33  1  0  0  0
 31 57  1  0  0  0
 32 58  1  0  0  0
 33 34  1  0  0  0
 33 59  1  0  0  0
 34 35  1  0  0  0
 34 36  2  0  0  0
 34 37  2  0  0  0
 35 60  1  0  0  0
 35 61  1  0  0  0
 35 62  1  0  0  0
M  END
> <s_m_entry_id>
5853

> <s_m_entry_name>
dock_pv.248

> <s_m_Source_Path>
/home/csk/Desktop/cluster/DUD-E-result/igf1r

> <s_m_Source_File>
dock_pv.maegz

> <i_m_Source_File_Index>
248

> <chembl_id>
CHEMBL388206

> <chembl_pref_name>
None

> <i_lp_mmshare_version>
53161

> <r_lp_tautomer_probability>
0.999206294981429

> <s_lp_Force_Field>
OPLS_2005

> <r_lp_Energy>
33.425444

> <b_lp_Chiralities_Consistent>
1

> <s_lp_Variant>
CHEMBL1957_lig66-1

> <s_i_glide_gridfile>
glide-grid_2oj9

> <i_i_glide_lignum>
201

> <i_i_glide_rotatable_bonds>
9

> <r_i_docking_score>
-7.00126191327122

> <r_i_glide_ligand_efficiency>
-0.189223294953276

> <r_i_glide_ligand_efficiency_sa>
-0.630533997524819

> <r_i_glide_ligand_efficiency_ln>
-1.51840957612195

> <r_i_glide_gscore>
-7.00126191327122

> <r_i_glide_lipo>
-2.90343917368685

> <r_i_glide_hbond>
-0.467964668829484

> <r_i_glide_metal>
0

> <r_i_glide_rewards>
-0.742332585482691

> <r_i_glide_evdw>
-48.0329666137695

> <r_i_glide_ecoul>
-6.54264736175537

> <r_i_glide_erotb>
0.532745374038619

> <r_i_glide_esite>
-0.0372254243590362

> <r_i_glide_emodel>
-72.4883782644967

> <r_i_glide_energy>
-54.5756139755249

> <r_i_glide_einternal>
7.70970487594604

> <i_i_glide_confnum>
5

> <i_i_glide_posenum>
13

> <r_i_glide_eff_state_penalty>
0

> <s_user_duplicate_titles>
CHEMBL1957_lig66,383653

> <i_f3d_flags>
0

> <s_m_subgroup_title>
dock_pv

> <s_m_subgroupid>
dock_pv

> <b_m_subgroup_collapsed>
1

$$$$
CHEMBL1957_lig2749
                    3D
 Schrodinger Suite 2021-1.
 41 44  0  0  1  0            999 V2000
    6.5505   -3.5968   22.8213 N   0  0  0  0  0  0
    7.4658   -7.9170   24.1110 N   0  0  0  0  0  0
    7.2683   -3.6702   23.9474 N   0  0  0  0  0  0
    6.9115  -10.0878   23.1544 N   0  0  0  0  0  0
    5.4929   -9.9735   21.1913 N   0  0  0  0  0  0
    6.6974   -0.6151   25.4268 N   0  0  0  0  0  0
    6.7468   -7.2717   23.1514 C   0  0  0  0  0  0
    6.0585   -8.0070   22.1574 C   0  0  0  0  0  0
    6.7830   -5.7776   23.2276 C   0  0  0  0  0  0
    6.2016   -9.4244   22.2369 C   0  0  0  0  0  0
    6.2443   -4.8525   22.3519 C   0  0  0  0  0  0
    6.2708   -2.2713   22.2330 C   0  0  1  0  0  0
    7.4008   -4.9551   24.1847 C   0  0  0  0  0  0
    5.2138   -7.7475   21.0212 C   0  0  0  0  0  0
    5.5979   -2.3635   20.8233 C   0  0  0  0  0  0
    7.5104   -9.2710   24.0583 C   0  0  0  0  0  0
    4.9030   -8.9723   20.4577 C   0  0  0  0  0  0
    5.4873   -1.3696   23.2186 C   0  0  0  0  0  0
    4.1164   -2.8131   20.7940 C   0  0  0  0  0  0
    5.6226   -1.0365   20.0255 C   0  0  0  0  0  0
    3.5463   -2.2036   19.5164 C   0  0  0  0  0  0
    4.2162   -0.8378   19.4388 C   0  0  0  0  0  0
    6.1715   -0.9523   24.4534 C   0  0  0  0  0  0
    5.3989  -10.9534   20.9664 H   0  0  0  0  0  0
    5.7005   -4.9875   21.4380 H   0  0  0  0  0  0
    7.2518   -1.8188   22.0791 H   0  0  0  0  0  0
    7.9610   -5.3045   25.0376 H   0  0  0  0  0  0
    4.8664   -6.8014   20.6372 H   0  0  0  0  0  0
    6.1762   -3.0806   20.2396 H   0  0  0  0  0  0
    8.0955   -9.7562   24.8265 H   0  0  0  0  0  0
    4.3124   -9.2182   19.5860 H   0  0  0  0  0  0
    5.2381   -0.4359   22.7219 H   0  0  0  0  0  0
    4.5498   -1.8359   23.5163 H   0  0  0  0  0  0
    3.5626   -2.4514   21.6585 H   0  0  0  0  0  0
    3.9924   -3.8957   20.7719 H   0  0  0  0  0  0
    6.3528   -1.1055   19.2181 H   0  0  0  0  0  0
    5.9238   -0.1739   20.6205 H   0  0  0  0  0  0
    2.4576   -2.1368   19.5339 H   0  0  0  0  0  0
    3.8280   -2.8077   18.6527 H   0  0  0  0  0  0
    3.6501   -0.1265   20.0382 H   0  0  0  0  0  0
    4.2466   -0.4590   18.4168 H   0  0  0  0  0  0
  1  3  1  0  0  0
  1 11  1  0  0  0
  1 12  1  0  0  0
  2  7  2  0  0  0
  2 16  1  0  0  0
  3 13  2  0  0  0
  4 10  1  0  0  0
  4 16  2  0  0  0
  5 10  1  0  0  0
  5 17  1  0  0  0
  5 24  1  0  0  0
  6 23  3  0  0  0
  7  8  1  0  0  0
  7  9  1  0  0  0
  8 10  2  0  0  0
  8 14  1  0  0  0
  9 11  2  0  0  0
  9 13  1  0  0  0
 11 25  1  0  0  0
 12 15  1  0  0  0
 12 18  1  0  0  0
 12 26  1  0  0  0
 13 27  1  0  0  0
 14 17  2  0  0  0
 14 28  1  0  0  0
 15 19  1  0  0  0
 15 20  1  0  0  0
 15 29  1  0  0  0
 16 30  1  0  0  0
 17 31  1  0  0  0
 18 23  1  0  0  0
 18 32  1  0  0  0
 18 33  1  0  0  0
 19 21  1  0  0  0
 19 34  1  0  0  0
 19 35  1  0  0  0
 20 22  1  0  0  0
 20 36  1  0  0  0
 20 37  1  0  0  0
 21 22  1  0  0  0
 21 38  1  0  0  0
 21 39  1  0  0  0
 22 40  1  0  0  0
 22 41  1  0  0  0
M  END
> <s_m_entry_id>
5854

> <s_m_entry_name>
dock_pv.249

> <s_m_Source_Path>
/home/csk/Desktop/cluster/DUD-E-result/igf1r

> <s_m_Source_File>
dock_pv.maegz

> <i_m_Source_File_Index>
249

> <chembl_id>
CHEMBL2002099

> <chembl_pref_name>
None

> <i_lp_mmshare_version>
53161

> <r_lp_tautomer_probability>
0.999998369746258

> <s_lp_Force_Field>
OPLS_2005

> <r_lp_Energy>
27.709066

> <b_lp_Chiralities_Consistent>
1

> <s_lp_Variant>
CHEMBL1957_lig2749-2

> <s_i_glide_gridfile>
glide-grid_2oj9

> <i_i_glide_lignum>
3802

> <i_i_glide_rotatable_bonds>
4

> <r_i_docking_score>
-7.00049092919341

> <r_i_glide_ligand_efficiency>
-0.304369170834496

> <r_i_glide_ligand_efficiency_sa>
-0.865585433716345

> <r_i_glide_ligand_efficiency_ln>
-1.69278218362121

> <r_i_glide_gscore>
-7.00049092919341

> <r_i_glide_lipo>
-2.80178290983222

> <r_i_glide_hbond>
-0.32

> <r_i_glide_metal>
0

> <r_i_glide_rewards>
-2.52426867368466

> <r_i_glide_evdw>
-35.4524955749512

> <r_i_glide_ecoul>
-1.14796566963196

> <r_i_glide_erotb>
0.590380283515821

> <r_i_glide_esite>
0

> <r_i_glide_emodel>
-49.4847831610051

> <r_i_glide_energy>
-36.6004612445831

> <r_i_glide_einternal>
6.14644861221313

> <i_i_glide_confnum>
11

> <i_i_glide_posenum>
341

> <r_i_glide_eff_state_penalty>
0

> <s_user_duplicate_titles>
CHEMBL1957_lig2749

> <i_f3d_flags>
0

> <s_m_subgroup_title>
dock_pv

> <s_m_subgroupid>
dock_pv

> <b_m_subgroup_collapsed>
1

$$$$
CHEMBL1957_lig599
                    3D
 Schrodinger Suite 2021-1.
 35 37  0  0  1  0            999 V2000
    6.5852   -1.2729   23.0682 O   0  0  0  0  0  0
    6.6958   -2.3943   23.9582 C   0  0  0  0  0  0
    7.3765   -3.6288   23.3389 C   0  0  0  0  0  0
    7.1413   -4.9241   23.8296 C   0  0  0  0  0  0
    8.5926   -5.8766   22.1675 C   0  0  0  0  0  0
    8.8377   -4.6017   21.6569 C   0  0  0  0  0  0
    7.7675   -6.0297   23.2683 C   0  0  0  0  0  0
    8.2404   -3.4894   22.2482 C   0  0  0  0  0  0
    5.9787   -5.2541   25.0381 Cl  0  0  0  0  0  0
    9.2378   -7.2932   21.4386 Cl  0  0  0  0  0  0
    4.0388   -7.3018   19.8373 N   0  0  0  0  0  0
    3.5211   -6.1431   19.4001 C   0  0  0  0  0  0
    3.9597   -5.0572   20.2382 C   0  0  0  0  0  0
    4.8872   -5.7327   21.5868 S   0  0  0  0  0  0
    4.8029   -7.3743   20.9202 C   0  0  0  0  0  0
    3.7675   -3.7782   19.8249 C   0  0  0  0  0  0
    2.8342   -6.0543   18.3841 O   0  0  0  0  0  0
    5.3505   -8.3661   21.3930 O   0  0  0  0  0  0
    4.3673   -2.5333   20.3484 C   0  0  0  0  0  0
    4.4356   -1.4322   19.4856 C   0  0  0  0  0  0
    5.1683   -0.3013   19.8337 C   0  0  0  0  0  0
    5.8589   -0.2745   21.0408 C   0  0  0  0  0  0
    5.8120   -1.3535   21.9234 C   0  0  0  0  0  0
    5.0136   -2.4541   21.5872 C   0  0  0  0  0  0
    7.2836   -2.0816   24.8216 H   0  0  0  0  0  0
    5.7001   -2.6233   24.3372 H   0  0  0  0  0  0
    9.4823   -4.4545   20.8057 H   0  0  0  0  0  0
    7.5570   -7.0197   23.6458 H   0  0  0  0  0  0
    8.4562   -2.5100   21.8520 H   0  0  0  0  0  0
    3.8705   -8.1367   19.2966 H   0  0  0  0  0  0
    3.1330   -3.6174   18.9610 H   0  0  0  0  0  0
    3.9619   -1.4634   18.5138 H   0  0  0  0  0  0
    5.2375    0.5389   19.1558 H   0  0  0  0  0  0
    6.4378    0.5961   21.2908 H   0  0  0  0  0  0
    4.9418   -3.2667   22.2828 H   0  0  0  0  0  0
  1  2  1  0  0  0
  1 23  1  0  0  0
  2  3  1  0  0  0
  2 25  1  0  0  0
  2 26  1  0  0  0
  3  8  1  0  0  0
  3  4  2  0  0  0
  4  7  1  0  0  0
  4  9  1  0  0  0
  5  7  2  0  0  0
  5  6  1  0  0  0
  5 10  1  0  0  0
  6  8  2  0  0  0
  6 27  1  0  0  0
  7 28  1  0  0  0
  8 29  1  0  0  0
 11 15  1  0  0  0
 11 12  1  0  0  0
 11 30  1  0  0  0
 12 13  1  0  0  0
 12 17  2  0  0  0
 13 14  1  0  0  0
 13 16  2  0  0  0
 14 15  1  0  0  0
 15 18  2  0  0  0
 16 19  1  0  0  0
 16 31  1  0  0  0
 19 20  2  0  0  0
 19 24  1  0  0  0
 20 21  1  0  0  0
 20 32  1  0  0  0
 21 22  2  0  0  0
 21 33  1  0  0  0
 22 23  1  0  0  0
 22 34  1  0  0  0
 23 24  2  0  0  0
 24 35  1  0  0  0
M  END
> <s_m_entry_id>
5855

> <s_m_entry_name>
dock_pv.250

> <s_m_Source_Path>
/home/csk/Desktop/cluster/DUD-E-result/igf1r

> <s_m_Source_File>
dock_pv.maegz

> <i_m_Source_File_Index>
250

> <chembl_id>
CHEMBL602738

> <chembl_pref_name>
None

> <i_lp_mmshare_version>
53161

> <r_lp_tautomer_probability>
1

> <s_lp_Force_Field>
OPLS_2005

> <r_lp_Energy>
22.789206

> <b_lp_Chiralities_Consistent>
1

> <s_lp_Variant>
CHEMBL1957_lig599-1

> <s_i_glide_gridfile>
glide-grid_2oj9

> <i_i_glide_lignum>
811

> <i_i_glide_rotatable_bonds>
4

> <r_i_docking_score>
-6.99882149931744

> <r_i_glide_ligand_efficiency>
-0.29161756247156

> <r_i_glide_ligand_efficiency_sa>
-0.841170607446307

> <r_i_glide_ligand_efficiency_ln>
-1.67513913977853

> <r_i_glide_gscore>
-6.99882149931744

> <r_i_glide_lipo>
-2.39319763916509

> <r_i_glide_hbond>
-0.360336083515148

> <r_i_glide_metal>
0

> <r_i_glide_rewards>
-2.50768429645997

> <r_i_glide_evdw>
-33.1537475585938

> <r_i_glide_ecoul>
-4.11050224304199

> <r_i_glide_erotb>
0.536659234208754

> <r_i_glide_esite>
0

> <r_i_glide_emodel>
-52.1020998565732

> <r_i_glide_energy>
-37.2642498016357

> <r_i_glide_einternal>
2.1227822303772

> <i_i_glide_confnum>
41

> <i_i_glide_posenum>
201

> <r_i_glide_eff_state_penalty>
0

> <s_user_duplicate_titles>
CHEMBL1957_lig599

> <i_f3d_flags>
0

> <s_m_subgroup_title>
dock_pv

> <s_m_subgroupid>
dock_pv

> <b_m_subgroup_collapsed>
1

$$$$
CHEMBL1957_lig51
                    3D
 Schrodinger Suite 2021-1.
 54 58  0  0  1  0            999 V2000
    5.8158   -2.7654   22.6600 C   0  0  0  0  0  0
    4.8603   -2.8418   21.6375 C   0  0  0  0  0  0
    4.5051   -4.0537   21.0381 C   0  0  0  0  0  0
    6.4830   -3.9137   23.1169 C   0  0  0  0  0  0
    6.1223   -5.1277   22.5232 C   0  0  0  0  0  0
    5.1478   -5.2163   21.5073 C   0  0  0  0  0  0
    4.9866   -6.5184   21.1115 N   0  0  0  0  0  0
    5.8385   -7.2441   21.8092 C   0  0  0  0  0  0
    6.5235   -6.4326   22.6955 N   0  0  0  0  0  0
    6.0364   -8.7264   21.6516 C   0  0  0  0  0  0
    6.9644   -9.4440   22.3677 C   0  0  0  0  0  0
    7.0748  -10.8845   22.1898 C   0  0  0  0  0  0
    6.2161  -11.4817   21.3534 C   0  0  0  0  0  0
    5.2975  -10.7926   20.6305 N   0  0  0  0  0  0
    5.1900   -9.4407   20.6628 C   0  0  0  0  0  0
    4.4383   -8.9383   19.8380 O   0  0  0  0  0  0
    6.0615   -1.5182   23.2802 N   0  0  0  0  0  0
    6.0380   -0.2597   22.7224 C   0  0  0  0  0  0
    6.2525    0.7159   23.5765 N   0  0  0  0  0  0
    6.4385    0.1131   24.7321 C   0  0  0  0  0  0
    6.3394   -1.2616   24.6019 C   0  0  0  0  0  0
    3.4590   -4.0580   19.9378 C   0  0  0  0  0  0
    7.8117   -8.8937   23.2845 N   0  0  0  0  0  0
    7.5015   -8.8730   24.7049 C   0  0  0  0  0  0
    8.4969   -8.0555   25.5410 C   0  0  1  0  0  0
    9.8718   -8.7156   25.6432 C   0  0  0  0  0  0
   10.9624   -8.2641   24.8893 C   0  0  0  0  0  0
   12.2146   -8.8585   25.0381 C   0  0  0  0  0  0
   12.3825   -9.9362   25.9046 C   0  0  0  0  0  0
   11.2976  -10.4103   26.6388 C   0  0  0  0  0  0
   10.0498   -9.7999   26.5125 C   0  0  0  0  0  0
    8.5201   -6.7272   25.0379 O   0  0  0  0  0  0
   11.4567  -11.4555   27.4809 F   0  0  0  0  0  0
    4.3629   -1.9437   21.3044 H   0  0  0  0  0  0
    7.2293   -3.8685   23.8966 H   0  0  0  0  0  0
    7.2085   -6.7944   23.3482 H   0  0  0  0  0  0
    7.8223  -11.4507   22.7258 H   0  0  0  0  0  0
    6.2166  -12.5403   21.1285 H   0  0  0  0  0  0
    4.7378  -11.2337   19.9142 H   0  0  0  0  0  0
    5.8681   -0.1468   21.6615 H   0  0  0  0  0  0
    6.6613    0.6666   25.6337 H   0  0  0  0  0  0
    6.4357   -2.0626   25.3119 H   0  0  0  0  0  0
    2.7976   -3.1940   20.0051 H   0  0  0  0  0  0
    3.9371   -4.0537   18.9578 H   0  0  0  0  0  0
    2.8369   -4.9510   20.0096 H   0  0  0  0  0  0
    8.4679   -8.1770   23.0039 H   0  0  0  0  0  0
    7.4504   -9.8992   25.0737 H   0  0  0  0  0  0
    6.5015   -8.4538   24.8322 H   0  0  0  0  0  0
    8.1034   -8.0052   26.5570 H   0  0  0  0  0  0
   10.8542   -7.4377   24.1995 H   0  0  0  0  0  0
   13.0511   -8.4860   24.4667 H   0  0  0  0  0  0
   13.3507  -10.4019   26.0070 H   0  0  0  0  0  0
    9.2226  -10.1726   27.0979 H   0  0  0  0  0  0
    8.3001   -6.1367   25.7688 H   0  0  0  0  0  0
  1  4  1  0  0  0
  1 17  1  0  0  0
  1  2  2  0  0  0
  2  3  1  0  0  0
  2 34  1  0  0  0
  3 22  1  0  0  0
  3  6  2  0  0  0
  4  5  2  0  0  0
  4 35  1  0  0  0
  5  9  1  0  0  0
  5  6  1  0  0  0
  6  7  1  0  0  0
  7  8  2  0  0  0
  8  9  1  0  0  0
  8 10  1  0  0  0
  9 36  1  0  0  0
 10 11  2  0  0  0
 10 15  1  0  0  0
 11 23  1  0  0  0
 11 12  1  0  0  0
 12 13  2  0  0  0
 12 37  1  0  0  0
 13 14  1  0  0  0
 13 38  1  0  0  0
 14 15  1  0  0  0
 14 39  1  0  0  0
 15 16  2  0  0  0
 17 18  1  0  0  0
 17 21  1  0  0  0
 18 19  2  0  0  0
 18 40  1  0  0  0
 19 20  1  0  0  0
 20 21  2  0  0  0
 20 41  1  0  0  0
 21 42  1  0  0  0
 22 43  1  0  0  0
 22 44  1  0  0  0
 22 45  1  0  0  0
 23 24  1  0  0  0
 23 46  1  0  0  0
 24 25  1  0  0  0
 24 47  1  0  0  0
 24 48  1  0  0  0
 25 26  1  0  0  0
 25 32  1  0  0  0
 25 49  1  0  0  0
 26 27  2  0  0  0
 26 31  1  0  0  0
 27 28  1  0  0  0
 27 50  1  0  0  0
 28 29  2  0  0  0
 28 51  1  0  0  0
 29 30  1  0  0  0
 29 52  1  0  0  0
 30 31  2  0  0  0
 30 33  1  0  0  0
 31 53  1  0  0  0
 32 54  1  0  0  0
M  END
> <s_m_entry_id>
5856

> <s_m_entry_name>
dock_pv.251

> <s_m_Source_Path>
/home/csk/Desktop/cluster/DUD-E-result/igf1r

> <s_m_Source_File>
dock_pv.maegz

> <i_m_Source_File_Index>
251

> <chembl_id>
CHEMBL231305

> <chembl_pref_name>
None

> <i_lp_mmshare_version>
53161

> <r_lp_tautomer_probability>
0.999206294981429

> <s_lp_Force_Field>
OPLS_2005

> <r_lp_Energy>
42.11382

> <b_lp_Chiralities_Consistent>
1

> <s_lp_Variant>
CHEMBL1957_lig51-2

> <s_i_glide_gridfile>
glide-grid_2oj9

> <i_i_glide_lignum>
174

> <i_i_glide_rotatable_bonds>
7

> <r_i_docking_score>
-6.99405960862941

> <r_i_glide_ligand_efficiency>
-0.211941200261497

> <r_i_glide_ligand_efficiency_sa>
-0.679808674986954

> <r_i_glide_ligand_efficiency_ln>
-1.55544264365662

> <r_i_glide_gscore>
-6.99405960862941

> <r_i_glide_lipo>
-2.82065693681346

> <r_i_glide_hbond>
-0.479314015731908

> <r_i_glide_metal>
0

> <r_i_glide_rewards>
-1.07534800946509

> <r_i_glide_evdw>
-41.7435989379883

> <r_i_glide_ecoul>
-6.81796503067017

> <r_i_glide_erotb>
0.50621586771461

> <r_i_glide_esite>
-0.0150818128336261

> <r_i_glide_emodel>
-63.9482357657422

> <r_i_glide_energy>
-48.5615639686584

> <r_i_glide_einternal>
6.71697807312012

> <i_i_glide_confnum>
25

> <i_i_glide_posenum>
320

> <r_i_glide_eff_state_penalty>
0

> <s_user_duplicate_titles>
CHEMBL1957_lig51,383644

> <i_f3d_flags>
0

> <s_m_subgroup_title>
dock_pv

> <s_m_subgroupid>
dock_pv

> <b_m_subgroup_collapsed>
1

$$$$
CHEMBL1957_lig3392
                    3D
 Schrodinger Suite 2021-1.
 41 44  0  0  1  0            999 V2000
    2.8380   -4.7356   18.5715 F   0  0  0  0  0  0
    6.0381   -0.4396   22.4305 O   0  0  0  0  0  0
    4.9513   -8.5776   20.2973 N   0  0  0  0  0  0
    4.8384   -9.9144   20.2378 N   0  0  0  0  0  0
    6.9781   -2.1262   23.5357 N   0  0  0  0  0  0
    5.5110   -2.5685   21.8209 N   0  0  0  0  0  0
    6.8501   -7.1581   23.1801 C   0  0  0  0  0  0
    5.6567   -8.3844   21.4540 C   0  0  0  0  0  0
    5.9282   -9.6076   22.1361 C   0  0  0  0  0  0
    7.4306   -5.8825   23.7146 C   0  0  0  0  0  0
    6.1230   -7.1685   21.9771 C   0  0  0  0  0  0
    7.0570   -8.3699   23.8540 C   0  0  0  0  0  0
    6.6164   -9.5921   23.3527 C   0  0  0  0  0  0
    6.8388   -4.6396   23.4415 C   0  0  0  0  0  0
    7.4338   -3.4289   23.8488 C   0  0  0  0  0  0
    5.3673  -10.6022   21.2988 C   0  0  0  0  0  0
    8.6051   -5.8902   24.4797 C   0  0  0  0  0  0
    8.5856   -3.4840   24.6365 C   0  0  0  0  0  0
    6.1513   -1.6547   22.5749 C   0  0  0  0  0  0
    9.1596   -4.7081   24.9586 C   0  0  0  0  0  0
    4.7457   -2.4273   20.6558 C   0  0  0  0  0  0
    4.0390   -3.5649   20.2488 C   0  0  0  0  0  0
    3.3822   -3.5852   19.0224 C   0  0  0  0  0  0
    4.7402   -1.2834   19.8419 C   0  0  0  0  0  0
    3.3526   -2.4416   18.2338 C   0  0  0  0  0  0
    4.0372   -1.2975   18.6381 C   0  0  0  0  0  0
    4.3807  -10.3642   19.4562 H   0  0  0  0  0  0
    7.4565   -1.3995   24.0476 H   0  0  0  0  0  0
    5.6205   -3.5194   22.1245 H   0  0  0  0  0  0
    5.9513   -6.2581   21.4243 H   0  0  0  0  0  0
    7.5853   -8.3810   24.7955 H   0  0  0  0  0  0
    6.8066  -10.5085   23.8913 H   0  0  0  0  0  0
    5.9029   -4.6601   22.9167 H   0  0  0  0  0  0
    5.3037  -11.6797   21.3456 H   0  0  0  0  0  0
    9.1077   -6.8156   24.7160 H   0  0  0  0  0  0
    9.0602   -2.5776   24.9873 H   0  0  0  0  0  0
   10.0379   -4.7488   25.5783 H   0  0  0  0  0  0
    4.0599   -4.4699   20.8377 H   0  0  0  0  0  0
    5.3060   -0.4011   20.1004 H   0  0  0  0  0  0
    2.8418   -2.4549   17.2832 H   0  0  0  0  0  0
    4.0546   -0.4440   17.9842 H   0  0  0  0  0  0
  1 23  1  0  0  0
  2 19  2  0  0  0
  3  4  1  0  0  0
  3  8  2  0  0  0
  4 27  1  0  0  0
  4 16  1  0  0  0
  5 15  1  0  0  0
  5 19  1  0  0  0
  5 28  1  0  0  0
  6 19  1  0  0  0
  6 21  1  0  0  0
  6 29  1  0  0  0
  7 11  2  0  0  0
  7 10  1  0  0  0
  7 12  1  0  0  0
  8 11  1  0  0  0
  8  9  1  0  0  0
  9 13  1  0  0  0
  9 16  2  0  0  0
 10 14  2  0  0  0
 10 17  1  0  0  0
 11 30  1  0  0  0
 12 31  1  0  0  0
 12 13  2  0  0  0
 13 32  1  0  0  0
 14 15  1  0  0  0
 14 33  1  0  0  0
 15 18  2  0  0  0
 16 34  1  0  0  0
 17 20  2  0  0  0
 17 35  1  0  0  0
 18 20  1  0  0  0
 18 36  1  0  0  0
 20 37  1  0  0  0
 21 22  2  0  0  0
 21 24  1  0  0  0
 22 23  1  0  0  0
 22 38  1  0  0  0
 23 25  2  0  0  0
 24 26  2  0  0  0
 24 39  1  0  0  0
 25 26  1  0  0  0
 25 40  1  0  0  0
 26 41  1  0  0  0
M  END
> <s_m_entry_id>
5857

> <s_m_entry_name>
dock_pv.252

> <s_m_Source_Path>
/home/csk/Desktop/cluster/DUD-E-result/igf1r

> <s_m_Source_File>
dock_pv.maegz

> <i_m_Source_File_Index>
252

> <chembl_id>
CHEMBL1983393

> <chembl_pref_name>
None

> <i_lp_mmshare_version>
53161

> <r_lp_tautomer_probability>
0.0196078431372549

> <s_lp_Force_Field>
OPLS_2005

> <r_lp_Energy>
42.204514

> <b_lp_Chiralities_Consistent>
1

> <s_lp_Variant>
CHEMBL1957_lig3392-2

> <s_i_glide_gridfile>
glide-grid_2oj9

> <i_i_glide_lignum>
4776

> <i_i_glide_rotatable_bonds>
5

> <r_i_docking_score>
-6.99068832891684

> <r_i_glide_ligand_efficiency>
-0.268872628035263

> <r_i_glide_ligand_efficiency_sa>
-0.796534102591763

> <r_i_glide_ligand_efficiency_ln>
-1.64174021572678

> <r_i_glide_gscore>
-6.99068832891684

> <r_i_glide_lipo>
-3.47195474190985

> <r_i_glide_hbond>
-0.102926556166098

> <r_i_glide_metal>
0

> <r_i_glide_rewards>
-1.15419743551776

> <r_i_glide_evdw>
-43.891731262207

> <r_i_glide_ecoul>
-4.67279529571533

> <r_i_glide_erotb>
0.63389626214452

> <r_i_glide_esite>
0

> <r_i_glide_emodel>
-60.2838949797053

> <r_i_glide_energy>
-48.5645265579224

> <r_i_glide_einternal>
10.1025609970093

> <i_i_glide_confnum>
3

> <i_i_glide_posenum>
341

> <r_i_glide_eff_state_penalty>
0

> <s_user_duplicate_titles>
CHEMBL1957_lig3392

> <i_f3d_flags>
0

> <s_m_subgroup_title>
dock_pv

> <s_m_subgroupid>
dock_pv

> <b_m_subgroup_collapsed>
1

$$$$
CHEMBL1957_lig28
                    3D
 Schrodinger Suite 2021-1.
 57 59  0  0  1  0            999 V2000
    5.2411   -5.0986   21.4381 C   0  0  0  0  0  0
    6.2267   -4.1364   21.9573 C   0  0  0  0  0  0
    4.1272   -4.6833   20.7476 C   0  0  0  0  0  0
    7.2001   -4.6048   22.6497 N   0  0  0  0  0  0
    4.8667   -2.3621   20.8878 C   0  0  0  0  0  0
    3.8163   -3.2617   20.4406 C   0  0  0  0  0  0
    5.9698   -2.7376   21.5689 C   0  0  0  0  0  0
    8.4155   -3.8737   23.0909 C   0  0  1  0  0  0
    5.6366   -6.6024   21.3768 C   0  0  0  0  0  0
    8.1207   -2.9588   24.3196 C   0  0  0  0  0  0
    5.0395   -7.5664   22.4371 C   0  0  1  0  0  0
    5.4116   -9.0778   22.2310 C   0  0  2  0  0  0
    3.2381   -5.5497   20.1816 O   0  0  0  0  0  0
    6.8374   -1.7314   21.8434 O   0  0  0  0  0  0
    6.9996   -2.5323   24.6012 O   0  0  0  0  0  0
    9.5773   -4.9162   23.4043 C   0  0  2  0  0  0
    6.9150   -9.3851   22.5149 C   0  0  1  0  0  0
    2.8378   -2.8299   19.8393 O   0  0  0  0  0  0
    9.2380   -2.6697   25.0380 O   0  0  0  0  0  0
    9.6380   -5.9235   22.4043 O   0  0  0  0  0  0
    5.3854   -7.1982   23.8962 C   0  0  0  0  0  0
    6.8507   -7.5049   24.2523 C   0  0  0  0  0  0
    5.0627   -9.6156   20.8268 C   0  0  0  0  0  0
    7.3034   -8.9348   23.9363 C   0  0  0  0  0  0
    7.2225  -10.9006   22.3582 C   0  0  0  0  0  0
    9.5552   -5.6099   24.7889 C   0  0  0  0  0  0
    5.2433  -11.1406   20.7874 C   0  0  0  0  0  0
    6.7168  -11.5059   21.0355 C   0  0  0  0  0  0
    4.7603   -1.3224   20.6161 H   0  0  0  0  0  0
    8.7985   -3.2540   22.2786 H   0  0  0  0  0  0
    5.3505   -6.9582   20.3881 H   0  0  0  0  0  0
    6.7215   -6.7110   21.3543 H   0  0  0  0  0  0
    3.9602   -7.4737   22.3597 H   0  0  0  0  0  0
    4.8381   -9.6531   22.9556 H   0  0  0  0  0  0
    3.5006   -6.4502   20.3811 H   0  0  0  0  0  0
    6.4999   -0.9144   21.4720 H   0  0  0  0  0  0
   10.5569   -4.4540   23.3200 H   0  0  0  0  0  0
    7.4988   -8.8223   21.7849 H   0  0  0  0  0  0
   10.0301   -2.8539   24.5206 H   0  0  0  0  0  0
   10.5467   -6.2710   22.3284 H   0  0  0  0  0  0
    5.1726   -6.1456   24.0867 H   0  0  0  0  0  0
    4.7340   -7.7470   24.5736 H   0  0  0  0  0  0
    7.4897   -6.8585   23.6675 H   0  0  0  0  0  0
    7.0221   -7.2875   25.3064 H   0  0  0  0  0  0
    4.0380   -9.3599   20.5895 H   0  0  0  0  0  0
    5.6379   -9.1274   20.0424 H   0  0  0  0  0  0
    8.3740   -9.0647   24.1030 H   0  0  0  0  0  0
    6.8380   -9.6021   24.6550 H   0  0  0  0  0  0
    8.2844  -11.0986   22.5119 H   0  0  0  0  0  0
    6.7194  -11.4394   23.1641 H   0  0  0  0  0  0
   10.0380   -5.0094   25.5543 H   0  0  0  0  0  0
   10.0545   -6.5797   24.7782 H   0  0  0  0  0  0
    8.5453   -5.7399   25.1592 H   0  0  0  0  0  0
    4.9111  -11.5391   19.8381 H   0  0  0  0  0  0
    4.6102  -11.6119   21.5415 H   0  0  0  0  0  0
    7.3276  -11.1485   20.2066 H   0  0  0  0  0  0
    6.8354  -12.5902   21.0518 H   0  0  0  0  0  0
  1  2  1  0  0  0
  1  3  2  0  0  0
  1  9  1  0  0  0
  2  4  2  0  0  0
  2  7  1  0  0  0
  3  6  1  0  0  0
  3 13  1  0  0  0
  4  8  1  0  0  0
  5  6  1  0  0  0
  5  7  2  0  0  0
  5 29  1  0  0  0
  6 18  2  0  0  0
  7 14  1  0  0  0
  8 10  1  0  0  0
  8 16  1  0  0  0
  8 30  1  0  0  0
  9 11  1  0  0  0
  9 31  1  0  0  0
  9 32  1  0  0  0
 10 15  2  0  0  0
 10 19  1  0  0  0
 11 12  1  0  0  0
 11 21  1  0  0  0
 11 33  1  0  0  0
 12 17  1  0  0  0
 12 23  1  0  0  0
 12 34  1  0  0  0
 13 35  1  0  0  0
 14 36  1  0  0  0
 16 20  1  0  0  0
 16 26  1  0  0  0
 16 37  1  0  0  0
 17 25  1  0  0  0
 17 24  1  0  0  0
 17 38  1  0  0  0
 19 39  1  0  0  0
 20 40  1  0  0  0
 21 22  1  0  0  0
 21 41  1  0  0  0
 21 42  1  0  0  0
 22 24  1  0  0  0
 22 43  1  0  0  0
 22 44  1  0  0  0
 23 27  1  0  0  0
 23 45  1  0  0  0
 23 46  1  0  0  0
 24 47  1  0  0  0
 24 48  1  0  0  0
 25 28  1  0  0  0
 25 49  1  0  0  0
 25 50  1  0  0  0
 26 51  1  0  0  0
 26 52  1  0  0  0
 26 53  1  0  0  0
 27 28  1  0  0  0
 27 54  1  0  0  0
 27 55  1  0  0  0
 28 56  1  0  0  0
 28 57  1  0  0  0
M  END
> <s_m_entry_id>
5858

> <s_m_entry_name>
dock_pv.253

> <s_m_Source_Path>
/home/csk/Desktop/cluster/DUD-E-result/igf1r

> <s_m_Source_File>
dock_pv.maegz

> <i_m_Source_File_Index>
253

> <chembl_id>
CHEMBL442388

> <chembl_pref_name>
None

> <i_lp_mmshare_version>
53161

> <r_lp_tautomer_probability>
0.0909090909090909

> <s_lp_Force_Field>
OPLS_2005

> <r_lp_Energy>
29.712116

> <b_lp_Chiralities_Consistent>
1

> <s_lp_Variant>
CHEMBL1957_lig28-36

> <s_i_glide_gridfile>
glide-grid_2oj9

> <i_i_glide_lignum>
89

> <i_i_glide_rotatable_bonds>
9

> <r_i_docking_score>
-6.99062310164922

> <r_i_glide_ligand_efficiency>
-0.249665110773187

> <r_i_glide_ligand_efficiency_sa>
-0.758130321193892

> <r_i_glide_ligand_efficiency_ln>
-1.61364106547373

> <r_i_glide_gscore>
-6.99062310164922

> <r_i_glide_lipo>
-2.98297937199587

> <r_i_glide_hbond>
-0.153827122526354

> <r_i_glide_metal>
0

> <r_i_glide_rewards>
-1.39113746249323

> <r_i_glide_evdw>
-28.6151466369629

> <r_i_glide_ecoul>
-11.0970296859741

> <r_i_glide_erotb>
0.636743304932449

> <r_i_glide_esite>
-0.00411066482195459

> <r_i_glide_emodel>
-48.5384876689875

> <r_i_glide_energy>
-39.712176322937

> <r_i_glide_einternal>
12.303729057312

> <i_i_glide_confnum>
63

> <i_i_glide_posenum>
154

> <r_i_glide_eff_state_penalty>
0

> <s_user_duplicate_titles>
CHEMBL1957_lig28,162043

> <i_f3d_flags>
0

> <s_m_subgroup_title>
dock_pv

> <s_m_subgroupid>
dock_pv

> <b_m_subgroup_collapsed>
1

$$$$
CHEMBL1957_lig2309
                    3D
 Schrodinger Suite 2021-1.
 52 56  0  0  1  0            999 V2000
    6.6235  -11.5079   22.3268 C   0  0  0  0  0  0
    6.2140  -10.1821   21.9032 N   0  0  0  0  0  0
    5.2380   -9.8505   21.0030 C   0  0  0  0  0  0
    5.1685   -8.4678   20.9799 C   0  0  0  0  0  0
    4.3269   -7.7096   20.1994 N   0  0  0  0  0  0
    4.0381   -6.3367   20.2449 C   0  0  0  0  0  0
    3.3179   -5.8690   19.1927 N   0  0  0  0  0  0
    3.2377   -4.5197   19.0669 C   0  0  0  0  0  0
    3.7869   -3.6233   19.9853 C   0  0  0  0  0  0
    3.6508   -2.1023   19.8673 C   0  0  0  0  0  0
    4.9738   -1.3686   20.2095 C   0  0  0  0  0  0
    5.5308   -1.9401   21.5042 C   0  0  0  0  0  0
    6.2009   -1.2663   22.4028 N   0  0  0  0  0  0
    6.5337   -2.1752   23.3266 N   0  0  0  0  0  0
    7.2178   -1.7118   24.5248 C   0  0  0  0  0  0
    6.0731   -3.4451   23.0381 C   0  0  0  0  0  0
    6.2788   -4.6488   23.9535 C   0  0  0  0  0  0
    7.6580   -5.3021   23.9812 C   0  0  0  0  0  0
    8.7903   -4.7067   23.4142 C   0  0  0  0  0  0
   10.0377   -5.3084   23.5493 C   0  0  0  0  0  0
   10.1671   -6.5137   24.2376 C   0  0  0  0  0  0
    9.0441   -7.1458   24.7761 C   0  0  0  0  0  0
    7.7942   -6.5307   24.6379 C   0  0  0  0  0  0
    9.1926   -8.4792   25.5077 C   0  0  0  0  0  0
   10.0633   -9.2685   24.8781 F   0  0  0  0  0  0
    9.6392   -8.2554   26.7422 F   0  0  0  0  0  0
    8.0346   -9.1346   25.5972 F   0  0  0  0  0  0
    5.3380   -3.2811   21.8681 C   0  0  0  0  0  0
    4.5169   -4.2061   21.0380 C   0  0  0  0  0  0
    4.6145   -5.5544   21.2009 N   0  0  0  0  0  0
    6.1590   -8.0932   21.9047 C   0  0  0  0  0  0
    6.7680   -9.1091   22.4713 N   0  0  0  0  0  0
    6.3770  -12.2354   21.5535 H   0  0  0  0  0  0
    7.6992  -11.5281   22.5039 H   0  0  0  0  0  0
    6.0977  -11.7674   23.2451 H   0  0  0  0  0  0
    4.6887  -10.6134   20.4718 H   0  0  0  0  0  0
    3.8938   -8.1330   19.3913 H   0  0  0  0  0  0
    2.6807   -4.1556   18.2142 H   0  0  0  0  0  0
    2.8671   -1.7702   20.5499 H   0  0  0  0  0  0
    3.3177   -1.8207   18.8670 H   0  0  0  0  0  0
    4.8155   -0.2919   20.2752 H   0  0  0  0  0  0
    5.6988   -1.4999   19.4079 H   0  0  0  0  0  0
    8.0235   -2.3955   24.7891 H   0  0  0  0  0  0
    7.6380   -0.7196   24.3620 H   0  0  0  0  0  0
    6.5009   -1.6540   25.3425 H   0  0  0  0  0  0
    5.5527   -5.4262   23.7144 H   0  0  0  0  0  0
    6.0388   -4.3911   24.9856 H   0  0  0  0  0  0
    8.7289   -3.7705   22.8803 H   0  0  0  0  0  0
   10.9099   -4.8488   23.1080 H   0  0  0  0  0  0
   11.1451   -6.9679   24.3175 H   0  0  0  0  0  0
    6.9207   -6.9942   25.0748 H   0  0  0  0  0  0
    6.4359   -7.0825   22.1565 H   0  0  0  0  0  0
  1  2  1  0  0  0
  1 33  1  0  0  0
  1 34  1  0  0  0
  1 35  1  0  0  0
  2  3  1  0  0  0
  2 32  1  0  0  0
  3  4  2  0  0  0
  3 36  1  0  0  0
  4  5  1  0  0  0
  4 31  1  0  0  0
  5  6  1  0  0  0
  5 37  1  0  0  0
  6  7  2  0  0  0
  6 30  1  0  0  0
  7  8  1  0  0  0
  8  9  2  0  0  0
  8 38  1  0  0  0
  9 10  1  0  0  0
  9 29  1  0  0  0
 10 11  1  0  0  0
 10 39  1  0  0  0
 10 40  1  0  0  0
 11 12  1  0  0  0
 11 41  1  0  0  0
 11 42  1  0  0  0
 12 13  2  0  0  0
 12 28  1  0  0  0
 13 14  1  0  0  0
 14 15  1  0  0  0
 14 16  1  0  0  0
 15 43  1  0  0  0
 15 44  1  0  0  0
 15 45  1  0  0  0
 16 17  1  0  0  0
 16 28  2  0  0  0
 17 18  1  0  0  0
 17 46  1  0  0  0
 17 47  1  0  0  0
 18 19  2  0  0  0
 18 23  1  0  0  0
 19 20  1  0  0  0
 19 48  1  0  0  0
 20 21  2  0  0  0
 20 49  1  0  0  0
 21 22  1  0  0  0
 21 50  1  0  0  0
 22 23  2  0  0  0
 22 24  1  0  0  0
 23 51  1  0  0  0
 24 25  1  0  0  0
 24 26  1  0  0  0
 24 27  1  0  0  0
 28 29  1  0  0  0
 29 30  2  0  0  0
 31 32  2  0  0  0
 31 52  1  0  0  0
M  END
> <s_m_entry_id>
5859

> <s_m_entry_name>
dock_pv.254

> <s_m_Source_Path>
/home/csk/Desktop/cluster/DUD-E-result/igf1r

> <s_m_Source_File>
dock_pv.maegz

> <i_m_Source_File_Index>
254

> <chembl_id>
CHEMBL3656750

> <chembl_pref_name>
None

> <i_lp_mmshare_version>
53161

> <r_lp_tautomer_probability>
0.999999987636

> <s_lp_Force_Field>
OPLS_2005

> <r_lp_Energy>
7.016655

> <b_lp_Chiralities_Consistent>
1

> <s_lp_Variant>
CHEMBL1957_lig2309-1

> <s_i_glide_gridfile>
glide-grid_2oj9

> <i_i_glide_lignum>
3292

> <i_i_glide_rotatable_bonds>
5

> <r_i_docking_score>
-6.98925323315276

> <r_i_glide_ligand_efficiency>
-0.218414163536024

> <r_i_glide_ligand_efficiency_sa>
-0.693421745122605

> <r_i_glide_ligand_efficiency_ln>
-1.56508431875046

> <r_i_glide_gscore>
-6.98925323315276

> <r_i_glide_lipo>
-2.9753202267768

> <r_i_glide_hbond>
-0.0330194269804804

> <r_i_glide_metal>
0

> <r_i_glide_rewards>
-1.62641308749045

> <r_i_glide_evdw>
-42.4847602844238

> <r_i_glide_ecoul>
-4.25226020812988

> <r_i_glide_erotb>
0.413418552813026

> <r_i_glide_esite>
-0.0058419992773802

> <r_i_glide_emodel>
-60.612337576126

> <r_i_glide_energy>
-46.7370204925537

> <r_i_glide_einternal>
3.23788523674011

> <i_i_glide_confnum>
8

> <i_i_glide_posenum>
59

> <r_i_glide_eff_state_penalty>
0

> <s_user_duplicate_titles>
CHEMBL1957_lig2309

> <i_f3d_flags>
0

> <s_m_subgroup_title>
dock_pv

> <s_m_subgroupid>
dock_pv

> <b_m_subgroup_collapsed>
1

$$$$
CHEMBL1957_lig3046
                    3D
 Schrodinger Suite 2021-1.
 32 35  0  0  1  0            999 V2000
    8.5716   -2.4540   24.9139 O   0  0  0  0  0  0
    7.6380   -2.1564   23.9038 N   0  0  0  0  0  0
    7.0658   -3.1583   23.3383 C   0  0  0  0  0  0
    7.3526   -4.5874   23.6245 C   0  0  0  0  0  0
    6.4514   -5.5449   23.6829 N   0  0  0  0  0  0
    7.1593   -6.7015   23.8805 C   0  0  0  0  0  0
    6.6947   -8.0210   23.9732 C   0  0  0  0  0  0
    7.6344   -9.0359   24.1693 C   0  0  0  0  0  0
    8.9981   -8.7528   24.2706 C   0  0  0  0  0  0
    9.4923   -7.4484   24.1798 C   0  0  0  0  0  0
    8.5473   -6.4386   23.9799 C   0  0  0  0  0  0
    8.6296   -5.0770   23.8200 N   0  0  0  0  0  0
    6.1082   -2.8280   22.2627 C   0  0  0  0  0  0
    5.2029   -3.6399   21.7617 N   0  0  0  0  0  0
    4.6291   -2.9552   20.7246 C   0  0  0  0  0  0
    3.6380   -3.3760   19.8278 C   0  0  0  0  0  0
    3.2788   -2.5069   18.7969 C   0  0  0  0  0  0
    3.8803   -1.2540   18.6673 C   0  0  0  0  0  0
    4.8380   -0.7860   19.5686 C   0  0  0  0  0  0
    5.1978   -1.6658   20.5907 C   0  0  0  0  0  0
    6.0932   -1.6009   21.6260 N   0  0  0  0  0  0
    8.9972   -1.5894   25.0380 H   0  0  0  0  0  0
    5.6416   -8.2453   23.8870 H   0  0  0  0  0  0
    7.3004  -10.0616   24.2381 H   0  0  0  0  0  0
    9.6942   -9.5672   24.4136 H   0  0  0  0  0  0
   10.5515   -7.2409   24.2382 H   0  0  0  0  0  0
    9.4497   -4.4858   23.8155 H   0  0  0  0  0  0
    3.1979   -4.3584   19.9088 H   0  0  0  0  0  0
    2.5423   -2.8171   18.0702 H   0  0  0  0  0  0
    3.6020   -0.6281   17.8380 H   0  0  0  0  0  0
    5.2978    0.1857   19.4495 H   0  0  0  0  0  0
    6.7244   -0.8527   21.8714 H   0  0  0  0  0  0
  1  2  1  0  0  0
  1 22  1  0  0  0
  2  3  2  0  0  0
  3  4  1  0  0  0
  3 13  1  0  0  0
  4 12  1  0  0  0
  4  5  2  0  0  0
  5  6  1  0  0  0
  6 11  2  0  0  0
  6  7  1  0  0  0
  7  8  2  0  0  0
  7 23  1  0  0  0
  8  9  1  0  0  0
  8 24  1  0  0  0
  9 10  2  0  0  0
  9 25  1  0  0  0
 10 11  1  0  0  0
 10 26  1  0  0  0
 11 12  1  0  0  0
 12 27  1  0  0  0
 13 21  1  0  0  0
 13 14  2  0  0  0
 14 15  1  0  0  0
 15 20  2  0  0  0
 15 16  1  0  0  0
 16 17  2  0  0  0
 16 28  1  0  0  0
 17 18  1  0  0  0
 17 29  1  0  0  0
 18 19  2  0  0  0
 18 30  1  0  0  0
 19 20  1  0  0  0
 19 31  1  0  0  0
 20 21  1  0  0  0
 21 32  1  0  0  0
M  END
> <s_m_entry_id>
5860

> <s_m_entry_name>
dock_pv.255

> <s_m_Source_Path>
/home/csk/Desktop/cluster/DUD-E-result/igf1r

> <s_m_Source_File>
dock_pv.maegz

> <i_m_Source_File_Index>
255

> <chembl_id>
CHEMBL546797

> <chembl_pref_name>
None

> <i_lp_mmshare_version>
53161

> <r_lp_tautomer_probability>
1

> <s_lp_Force_Field>
OPLS_2005

> <r_lp_Energy>
32.824045

> <b_lp_Chiralities_Consistent>
1

> <s_lp_Variant>
CHEMBL1957_lig3046-1

> <s_i_glide_gridfile>
glide-grid_2oj9

> <i_i_glide_lignum>
4225

> <i_i_glide_rotatable_bonds>
3

> <r_i_docking_score>
-6.98474590695914

> <r_i_glide_ligand_efficiency>
-0.332606947950435

> <r_i_glide_ligand_efficiency_sa>
-0.917637349001537

> <r_i_glide_ligand_efficiency_ln>
-1.72696431148759

> <r_i_glide_gscore>
-6.98474590695914

> <r_i_glide_lipo>
-2.11043214345289

> <r_i_glide_hbond>
-0.32

> <r_i_glide_metal>
0

> <r_i_glide_rewards>
-2.51398743837742

> <r_i_glide_evdw>
-36.7662162780762

> <r_i_glide_ecoul>
-5.80122995376587

> <r_i_glide_erotb>
0.702591674836596

> <r_i_glide_esite>
-0.0344226929967319

> <r_i_glide_emodel>
-59.6353669844574

> <r_i_glide_energy>
-42.567446231842

> <r_i_glide_einternal>
3.11806964874268

> <i_i_glide_confnum>
7

> <i_i_glide_posenum>
246

> <r_i_glide_eff_state_penalty>
0

> <s_user_duplicate_titles>
CHEMBL1957_lig3046

> <i_f3d_flags>
0

> <s_m_subgroup_title>
dock_pv

> <s_m_subgroupid>
dock_pv

> <b_m_subgroup_collapsed>
1

$$$$
CHEMBL1957_lig28
                    3D
 Schrodinger Suite 2021-1.
 57 59  0  0  1  0            999 V2000
    6.0431   -6.1121   22.0140 C   0  0  0  0  0  0
    6.8693   -6.6753   23.0806 C   0  0  0  0  0  0
    5.2619   -6.9081   21.2186 C   0  0  0  0  0  0
    7.8135   -5.9885   23.6039 N   0  0  0  0  0  0
    5.8993   -9.0261   22.5089 C   0  0  0  0  0  0
    5.2380   -8.3847   21.2861 C   0  0  0  0  0  0
    6.5596   -8.0667   23.5052 C   0  0  0  0  0  0
    8.9263   -6.4491   24.4818 C   0  0  1  0  0  0
    6.2286   -4.5981   21.6835 C   0  0  0  0  0  0
    9.7400   -7.7132   24.0545 C   0  0  0  0  0  0
    5.2149   -3.5799   22.2522 C   0  0  2  0  0  0
    4.4734   -2.6188   21.2617 C   0  0  1  0  0  0
    4.4379   -6.4540   20.2380 O   0  0  0  0  0  0
    6.8380   -8.4540   24.6380 O   0  0  0  0  0  0
   10.4390   -8.3226   24.8613 O   0  0  0  0  0  0
    9.9531   -5.2846   24.5741 C   0  0  1  0  0  0
    5.4572   -1.5882   20.6358 C   0  0  2  0  0  0
    4.7211   -9.0825   20.4122 O   0  0  0  0  0  0
    9.6380   -8.0360   22.7343 O   0  0  0  0  0  0
   10.3901   -4.8540   23.2935 O   0  0  0  0  0  0
    5.8534   -2.7018   23.3663 C   0  0  0  0  0  0
    6.8595   -1.6800   22.7969 C   0  0  0  0  0  0
    3.6855   -3.3586   20.1546 C   0  0  0  0  0  0
    6.1636   -0.7860   21.7521 C   0  0  0  0  0  0
    4.7162   -0.6257   19.6700 C   0  0  0  0  0  0
    9.4149   -4.0620   25.3434 C   0  0  0  0  0  0
    2.9305   -2.3941   19.2271 C   0  0  0  0  0  0
    3.8887   -1.3639   18.6014 C   0  0  0  0  0  0
    6.6684   -9.7084   22.1486 H   0  0  0  0  0  0
    8.5524   -6.6292   25.4858 H   0  0  0  0  0  0
    7.2517   -4.2862   21.8913 H   0  0  0  0  0  0
    6.2188   -4.4649   20.6380 H   0  0  0  0  0  0
    4.4380   -4.2103   22.6380 H   0  0  0  0  0  0
    3.7362   -2.0543   21.8356 H   0  0  0  0  0  0
    4.0869   -7.2124   19.7566 H   0  0  0  0  0  0
    5.1627   -9.6289   23.0380 H   0  0  0  0  0  0
   10.8380   -5.6540   25.0802 H   0  0  0  0  0  0
    6.2021   -2.1506   20.0735 H   0  0  0  0  0  0
   10.3569   -8.6315   22.5107 H   0  0  0  0  0  0
   10.5911   -3.9047   23.2993 H   0  0  0  0  0  0
    5.0845   -2.1281   23.8882 H   0  0  0  0  0  0
    6.3351   -3.3309   24.1154 H   0  0  0  0  0  0
    7.2437   -1.0648   23.6111 H   0  0  0  0  0  0
    7.7251   -2.1745   22.3558 H   0  0  0  0  0  0
    4.3555   -3.9619   19.5522 H   0  0  0  0  0  0
    2.9922   -4.0690   20.6064 H   0  0  0  0  0  0
    5.4459   -0.1626   22.2803 H   0  0  0  0  0  0
    6.8380   -0.0699   21.2959 H   0  0  0  0  0  0
    4.0380    0.0098   20.2380 H   0  0  0  0  0  0
    5.4216    0.0706   19.2125 H   0  0  0  0  0  0
    9.2380   -4.3140   26.3893 H   0  0  0  0  0  0
    8.4750   -3.7091   24.9224 H   0  0  0  0  0  0
   10.1064   -3.2216   25.3195 H   0  0  0  0  0  0
    2.1456   -1.8883   19.7907 H   0  0  0  0  0  0
    2.4380   -2.9561   18.4330 H   0  0  0  0  0  0
    3.3261   -0.6482   18.0023 H   0  0  0  0  0  0
    4.5578   -1.8724   17.9081 H   0  0  0  0  0  0
  1  2  1  0  0  0
  1  3  2  0  0  0
  1  9  1  0  0  0
  2  4  2  0  0  0
  2  7  1  0  0  0
  3 13  1  0  0  0
  3  6  1  0  0  0
  4  8  1  0  0  0
  5  7  1  0  0  0
  5  6  1  0  0  0
  5 29  1  0  0  0
  5 36  1  0  0  0
  6 18  2  0  0  0
  7 14  2  0  0  0
  8 10  1  0  0  0
  8 16  1  0  0  0
  8 30  1  0  0  0
  9 11  1  0  0  0
  9 31  1  0  0  0
  9 32  1  0  0  0
 10 15  2  0  0  0
 10 19  1  0  0  0
 11 12  1  0  0  0
 11 21  1  0  0  0
 11 33  1  0  0  0
 12 17  1  0  0  0
 12 23  1  0  0  0
 12 34  1  0  0  0
 13 35  1  0  0  0
 16 20  1  0  0  0
 16 26  1  0  0  0
 16 37  1  0  0  0
 17 25  1  0  0  0
 17 24  1  0  0  0
 17 38  1  0  0  0
 19 39  1  0  0  0
 20 40  1  0  0  0
 21 22  1  0  0  0
 21 41  1  0  0  0
 21 42  1  0  0  0
 22 24  1  0  0  0
 22 43  1  0  0  0
 22 44  1  0  0  0
 23 27  1  0  0  0
 23 45  1  0  0  0
 23 46  1  0  0  0
 24 47  1  0  0  0
 24 48  1  0  0  0
 25 28  1  0  0  0
 25 49  1  0  0  0
 25 50  1  0  0  0
 26 51  1  0  0  0
 26 52  1  0  0  0
 26 53  1  0  0  0
 27 28  1  0  0  0
 27 54  1  0  0  0
 27 55  1  0  0  0
 28 56  1  0  0  0
 28 57  1  0  0  0
M  END
> <s_m_entry_id>
5861

> <s_m_entry_name>
dock_pv.256

> <s_m_Source_Path>
/home/csk/Desktop/cluster/DUD-E-result/igf1r

> <s_m_Source_File>
dock_pv.maegz

> <i_m_Source_File_Index>
256

> <chembl_id>
CHEMBL442388

> <chembl_pref_name>
None

> <i_lp_mmshare_version>
53161

> <r_lp_tautomer_probability>
0.818181818181818

> <s_lp_Force_Field>
OPLS_2005

> <r_lp_Energy>
42.530307

> <b_lp_Chiralities_Consistent>
1

> <s_lp_Variant>
CHEMBL1957_lig28-30

> <s_i_glide_gridfile>
glide-grid_2oj9

> <i_i_glide_lignum>
83

> <i_i_glide_rotatable_bonds>
8

> <r_i_docking_score>
-6.98340192949392

> <r_i_glide_ligand_efficiency>
-0.24940721176764

> <r_i_glide_ligand_efficiency_sa>
-0.757347187918662

> <r_i_glide_ligand_efficiency_ln>
-1.61197420691746

> <r_i_glide_gscore>
-6.98340192949392

> <r_i_glide_lipo>
-3.30179937375856

> <r_i_glide_hbond>
0

> <r_i_glide_metal>
0

> <r_i_glide_rewards>
-1.7697676535933

> <r_i_glide_evdw>
-31.9336967468262

> <r_i_glide_ecoul>
-6.14436388015747

> <r_i_glide_erotb>
0.636743304932449

> <r_i_glide_esite>
-0.0302387877095786

> <r_i_glide_emodel>
-42.0901175217068

> <r_i_glide_energy>
-38.0780606269836

> <r_i_glide_einternal>
7.22584009170532

> <i_i_glide_confnum>
36

> <i_i_glide_posenum>
117

> <r_i_glide_eff_state_penalty>
0

> <s_user_duplicate_titles>
CHEMBL1957_lig28

> <i_f3d_flags>
0

> <s_m_subgroup_title>
dock_pv

> <s_m_subgroupid>
dock_pv

> <b_m_subgroup_collapsed>
1

$$$$
CHEMBL1957_lig521
                    3D
 Schrodinger Suite 2021-1.
 60 64  0  0  1  0            999 V2000
    6.1604   -7.7079   22.3245 N   0  0  0  0  0  0
    5.1949   -7.6322   21.3752 C   0  0  0  0  0  0
    4.7585   -8.6537   20.6014 N   0  0  0  0  0  0
    6.7361   -8.9063   22.5743 C   0  0  0  0  0  0
    6.2969  -10.0621   21.8976 C   0  0  0  0  0  0
    5.3147   -9.8286   20.8995 C   0  0  0  0  0  0
    5.0490  -11.0336   20.2987 N   0  0  0  0  0  0
    5.7648  -12.0304   20.9154 C   0  0  0  0  0  0
    6.5278  -11.4829   21.9254 C   0  0  0  0  0  0
    4.5487   -6.4156   21.1172 N   0  0  0  0  0  0
    7.7162   -8.8863   23.5729 N   0  0  0  0  0  0
    4.8386   -5.0722   21.4377 C   0  0  0  0  0  0
    8.7784   -9.7575   23.8900 C   0  0  0  0  0  0
    4.2753   -4.0524   20.6465 C   0  0  0  0  0  0
    4.6484   -2.7248   20.8978 C   0  0  0  0  0  0
    5.7271   -4.7290   22.4576 C   0  0  0  0  0  0
    9.3480  -10.5641   22.8966 C   0  0  0  0  0  0
   10.3672  -11.4626   23.1982 C   0  0  0  0  0  0
   10.8596  -11.5409   24.4959 C   0  0  0  0  0  0
   10.3512  -10.7085   25.4886 C   0  0  0  0  0  0
    9.3154   -9.8086   25.1965 C   0  0  0  0  0  0
    3.3928   -4.4150   19.6391 O   0  0  0  0  0  0
    3.0345   -3.4569   18.6465 C   0  0  0  0  0  0
    8.8135   -8.9110   26.2873 C   0  0  0  0  0  0
    9.2379   -7.6539   26.2135 N   0  0  0  0  0  0
    8.0378   -9.3082   27.1522 O   0  0  0  0  0  0
   10.8828  -10.7849   26.7331 F   0  0  0  0  0  0
    6.2085   -3.4216   22.6252 C   0  0  0  0  0  0
    5.6046   -2.4015   21.8638 C   0  0  0  0  0  0
    5.9929   -0.9601   22.1225 C   0  0  0  0  0  0
    6.1727   -0.7875   23.6373 C   0  0  0  0  0  0
    7.2859   -1.7130   24.1692 C   0  0  0  0  0  0
    7.1750   -3.0991   23.6394 N   0  0  0  0  0  0
    8.2113   -3.9554   23.9446 C   0  0  0  0  0  0
    9.2812   -3.5897   24.9860 C   0  0  0  0  0  0
    8.3808   -5.0520   23.4089 O   0  0  0  0  0  0
    4.4367  -11.2131   19.5136 H   0  0  0  0  0  0
    5.6607  -13.0526   20.5783 H   0  0  0  0  0  0
    7.1696  -12.0446   22.5886 H   0  0  0  0  0  0
    3.8624   -6.5083   20.3842 H   0  0  0  0  0  0
    7.6887   -8.0358   24.1153 H   0  0  0  0  0  0
    4.2187   -1.9203   20.3219 H   0  0  0  0  0  0
    6.0789   -5.4917   23.1270 H   0  0  0  0  0  0
    9.0071  -10.4968   21.8748 H   0  0  0  0  0  0
   10.7913  -12.0818   22.4218 H   0  0  0  0  0  0
   11.6614  -12.2260   24.7271 H   0  0  0  0  0  0
    2.4382   -3.9437   17.8748 H   0  0  0  0  0  0
    2.4380   -2.6471   19.0675 H   0  0  0  0  0  0
    3.9155   -3.0347   18.1597 H   0  0  0  0  0  0
    8.8205   -6.9677   26.8355 H   0  0  0  0  0  0
    9.8674   -7.3652   25.4806 H   0  0  0  0  0  0
    5.2487   -0.2712   21.7252 H   0  0  0  0  0  0
    6.9155   -0.7462   21.5896 H   0  0  0  0  0  0
    6.4119    0.2475   23.8845 H   0  0  0  0  0  0
    5.2400   -1.0106   24.1575 H   0  0  0  0  0  0
    8.2492   -1.3218   23.8383 H   0  0  0  0  0  0
    7.3386   -1.7299   25.2581 H   0  0  0  0  0  0
    9.4528   -2.5268   25.1382 H   0  0  0  0  0  0
    9.0471   -4.0532   25.9423 H   0  0  0  0  0  0
   10.2275   -3.9998   24.6378 H   0  0  0  0  0  0
  1  4  1  0  0  0
  1  2  2  0  0  0
  2 10  1  0  0  0
  2  3  1  0  0  0
  3  6  2  0  0  0
  4 11  1  0  0  0
  4  5  2  0  0  0
  5  9  1  0  0  0
  5  6  1  0  0  0
  6  7  1  0  0  0
  7  8  1  0  0  0
  7 37  1  0  0  0
  8  9  2  0  0  0
  8 38  1  0  0  0
  9 39  1  0  0  0
 10 12  1  0  0  0
 10 40  1  0  0  0
 11 13  1  0  0  0
 11 41  1  0  0  0
 12 14  2  0  0  0
 12 16  1  0  0  0
 13 17  2  0  0  0
 13 21  1  0  0  0
 14 22  1  0  0  0
 14 15  1  0  0  0
 15 29  2  0  0  0
 15 42  1  0  0  0
 16 28  2  0  0  0
 16 43  1  0  0  0
 17 18  1  0  0  0
 17 44  1  0  0  0
 18 19  2  0  0  0
 18 45  1  0  0  0
 19 20  1  0  0  0
 19 46  1  0  0  0
 20 21  2  0  0  0
 20 27  1  0  0  0
 21 24  1  0  0  0
 22 23  1  0  0  0
 23 47  1  0  0  0
 23 48  1  0  0  0
 23 49  1  0  0  0
 24 25  1  0  0  0
 24 26  2  0  0  0
 25 50  1  0  0  0
 25 51  1  0  0  0
 28 29  1  0  0  0
 28 33  1  0  0  0
 29 30  1  0  0  0
 30 31  1  0  0  0
 30 52  1  0  0  0
 30 53  1  0  0  0
 31 32  1  0  0  0
 31 54  1  0  0  0
 31 55  1  0  0  0
 32 33  1  0  0  0
 32 56  1  0  0  0
 32 57  1  0  0  0
 33 34  1  0  0  0
 34 35  1  0  0  0
 34 36  2  0  0  0
 35 58  1  0  0  0
 35 59  1  0  0  0
 35 60  1  0  0  0
M  END
> <s_m_entry_id>
5862

> <s_m_entry_name>
dock_pv.257

> <s_m_Source_Path>
/home/csk/Desktop/cluster/DUD-E-result/igf1r

> <s_m_Source_File>
dock_pv.maegz

> <i_m_Source_File_Index>
257

> <chembl_id>
CHEMBL459538

> <chembl_pref_name>
None

> <i_lp_mmshare_version>
53161

> <r_lp_tautomer_probability>
1

> <s_lp_Force_Field>
OPLS_2005

> <r_lp_Energy>
44.547113

> <b_lp_Chiralities_Consistent>
1

> <s_lp_Variant>
CHEMBL1957_lig521-1

> <s_i_glide_gridfile>
glide-grid_2oj9

> <i_i_glide_lignum>
714

> <i_i_glide_rotatable_bonds>
7

> <r_i_docking_score>
-6.9833456131314

> <r_i_glide_ligand_efficiency>
-0.193981822586983

> <r_i_glide_ligand_efficiency_sa>
-0.640513865025105

> <r_i_glide_ligand_efficiency_ln>
-1.5235773445901

> <r_i_glide_gscore>
-6.9833456131314

> <r_i_glide_lipo>
-2.11212823104736

> <r_i_glide_hbond>
-0.557672579478587

> <r_i_glide_metal>
0

> <r_i_glide_rewards>
-1.28109118556759

> <r_i_glide_evdw>
-45.6413269042969

> <r_i_glide_ecoul>
-7.15166854858398

> <r_i_glide_erotb>
0.339615131488353

> <r_i_glide_esite>
-0.0172521210237683

> <r_i_glide_emodel>
-68.6599748770048

> <r_i_glide_energy>
-52.7929954528809

> <r_i_glide_einternal>
9.12826251983643

> <i_i_glide_confnum>
12

> <i_i_glide_posenum>
207

> <r_i_glide_eff_state_penalty>
0

> <s_user_duplicate_titles>
CHEMBL1957_lig521

> <i_f3d_flags>
0

> <s_m_subgroup_title>
dock_pv

> <s_m_subgroupid>
dock_pv

> <b_m_subgroup_collapsed>
1

$$$$
CHEMBL1957_lig2681
                    3D
 Schrodinger Suite 2021-1.
 38 41  0  0  1  0            999 V2000
    7.3970   -4.3086   24.2303 C   0  0  0  0  0  0
    8.0886   -3.0987   24.2380 C   0  0  0  0  0  0
    7.8067   -2.0504   23.4290 N   0  0  0  0  0  0
    6.3385   -4.4992   23.3260 C   0  0  0  0  0  0
    5.5530   -5.6606   23.3132 N   0  0  0  0  0  0
    6.0480   -3.4371   22.4339 C   0  0  0  0  0  0
    6.8193   -2.2606   22.5668 C   0  0  0  0  0  0
    6.4376   -1.3013   21.6674 O   0  0  0  0  0  0
    5.1538   -3.1789   21.3686 C   0  0  0  0  0  0
    5.4361   -1.8627   20.9180 C   0  0  0  0  0  0
    4.7686   -1.2532   19.8469 C   0  0  0  0  0  0
    3.7729   -2.0012   19.2184 C   0  0  0  0  0  0
    3.4669   -3.2957   19.6393 C   0  0  0  0  0  0
    4.1421   -3.8997   20.7057 C   0  0  0  0  0  0
    5.8296   -6.8453   24.1241 C   0  0  0  0  0  0
    6.7632   -7.8569   23.4244 C   0  0  0  0  0  0
    6.1000   -8.6239   22.2831 C   0  0  0  0  0  0
    5.4955   -7.9368   21.2266 C   0  0  0  0  0  0
    4.8381   -8.6356   20.2260 C   0  0  0  0  0  0
    4.8387  -10.0244   20.2385 C   0  0  0  0  0  0
    5.4620  -10.7256   21.2663 C   0  0  0  0  0  0
    6.0875  -10.0223   22.2934 C   0  0  0  0  0  0
    7.6991   -5.0724   24.9303 H   0  0  0  0  0  0
    8.9148   -2.9510   24.9197 H   0  0  0  0  0  0
    4.9072   -5.7733   22.5465 H   0  0  0  0  0  0
    5.0210   -0.2556   19.5179 H   0  0  0  0  0  0
    3.2406   -1.5778   18.3790 H   0  0  0  0  0  0
    2.6994   -3.8474   19.1160 H   0  0  0  0  0  0
    3.8910   -4.9067   21.0019 H   0  0  0  0  0  0
    4.8903   -7.3202   24.4109 H   0  0  0  0  0  0
    6.2709   -6.5423   25.0727 H   0  0  0  0  0  0
    7.1184   -8.5650   24.1753 H   0  0  0  0  0  0
    7.6546   -7.3552   23.0435 H   0  0  0  0  0  0
    5.5267   -6.8620   21.1547 H   0  0  0  0  0  0
    4.3444   -8.0947   19.4371 H   0  0  0  0  0  0
    4.3388  -10.5515   19.4422 H   0  0  0  0  0  0
    5.4444  -11.8062   21.2793 H   0  0  0  0  0  0
    6.5472  -10.5708   23.1040 H   0  0  0  0  0  0
  1  2  2  0  0  0
  1  4  1  0  0  0
  1 23  1  0  0  0
  2  3  1  0  0  0
  2 24  1  0  0  0
  3  7  2  0  0  0
  4  5  1  0  0  0
  4  6  2  0  0  0
  5 15  1  0  0  0
  5 25  1  0  0  0
  6  7  1  0  0  0
  6  9  1  0  0  0
  7  8  1  0  0  0
  8 10  1  0  0  0
  9 14  1  0  0  0
  9 10  2  0  0  0
 10 11  1  0  0  0
 11 12  2  0  0  0
 11 26  1  0  0  0
 12 13  1  0  0  0
 12 27  1  0  0  0
 13 14  2  0  0  0
 13 28  1  0  0  0
 14 29  1  0  0  0
 15 16  1  0  0  0
 15 30  1  0  0  0
 15 31  1  0  0  0
 16 17  1  0  0  0
 16 32  1  0  0  0
 16 33  1  0  0  0
 17 18  2  0  0  0
 17 22  1  0  0  0
 18 19  1  0  0  0
 18 34  1  0  0  0
 19 20  2  0  0  0
 19 35  1  0  0  0
 20 21  1  0  0  0
 20 36  1  0  0  0
 21 22  2  0  0  0
 21 37  1  0  0  0
 22 38  1  0  0  0
M  END
> <s_m_entry_id>
5863

> <s_m_entry_name>
dock_pv.258

> <s_m_Source_Path>
/home/csk/Desktop/cluster/DUD-E-result/igf1r

> <s_m_Source_File>
dock_pv.maegz

> <i_m_Source_File_Index>
258

> <chembl_id>
CHEMBL1289977

> <chembl_pref_name>
None

> <i_lp_mmshare_version>
53161

> <r_lp_tautomer_probability>
1

> <s_lp_Force_Field>
OPLS_2005

> <r_lp_Energy>
13.514392

> <b_lp_Chiralities_Consistent>
1

> <s_lp_Variant>
CHEMBL1957_lig2681-1

> <s_i_glide_gridfile>
glide-grid_2oj9

> <i_i_glide_lignum>
3707

> <i_i_glide_rotatable_bonds>
4

> <r_i_docking_score>
-6.98085451744186

> <r_i_glide_ligand_efficiency>
-0.31731156897463

> <r_i_glide_ligand_efficiency_sa>
-0.889119495422781

> <r_i_glide_ligand_efficiency_ln>
-1.70637547691819

> <r_i_glide_gscore>
-6.98085451744186

> <r_i_glide_lipo>
-3.53763041869023

> <r_i_glide_hbond>
0

> <r_i_glide_metal>
0

> <r_i_glide_rewards>
-1.78478162121212

> <r_i_glide_evdw>
-34.0266914367676

> <r_i_glide_ecoul>
-2.63134241104126

> <r_i_glide_erotb>
0.437593455955061

> <r_i_glide_esite>
0

> <r_i_glide_emodel>
-51.801670430759

> <r_i_glide_energy>
-36.6580338478088

> <r_i_glide_einternal>
2.36102533340454

> <i_i_glide_confnum>
5

> <i_i_glide_posenum>
85

> <r_i_glide_eff_state_penalty>
0

> <s_user_duplicate_titles>
CHEMBL1957_lig2681

> <i_f3d_flags>
0

> <s_m_subgroup_title>
dock_pv

> <s_m_subgroupid>
dock_pv

> <b_m_subgroup_collapsed>
1

$$$$
CHEMBL1957_lig945
                    3D
 Schrodinger Suite 2021-1.
 31 32  0  0  1  0            999 V2000
    5.2371   -8.5674   21.1545 C   0  0  0  0  0  0
    5.9490   -8.9259   22.2991 C   0  0  0  0  0  0
    6.2613   -8.0318   23.2687 N   0  0  0  0  0  0
    5.8703   -6.7509   23.0624 C   0  0  0  0  0  0
    5.1470   -6.3194   21.9943 N   0  0  0  0  0  0
    4.8126   -7.2344   21.0432 C   0  0  0  0  0  0
    4.0463   -6.8451   19.9275 N   0  0  0  0  0  0
    3.6378   -5.5866   19.5477 C   0  0  0  0  0  0
    3.6401   -4.3638   20.2380 C   0  0  0  0  0  0
    3.2381   -3.3832   19.3577 C   0  0  0  0  0  0
    2.9852   -4.0812   18.2099 N   0  0  0  0  0  0
    3.2062   -5.3974   18.3212 N   0  0  0  0  0  0
    6.2942   -5.8346   24.0325 N   0  0  0  0  0  0
    4.8388   -9.8823   19.8382 Br  0  0  0  0  0  0
    3.0485   -1.8950   19.4962 C   0  0  0  0  0  0
    6.4756   -4.4256   23.6891 C   0  0  0  0  0  0
    7.7771   -4.0413   22.9980 C   0  0  0  0  0  0
    8.8167   -4.8525   22.7281 C   0  0  0  0  0  0
    6.2725   -9.9441   22.4547 H   0  0  0  0  0  0
    3.9406   -7.6000   19.2642 H   0  0  0  0  0  0
    3.9684   -4.1955   21.2520 H   0  0  0  0  0  0
    2.6376   -3.6661   17.3525 H   0  0  0  0  0  0
    6.9055   -6.2085   24.7439 H   0  0  0  0  0  0
    3.7405   -1.4756   20.2268 H   0  0  0  0  0  0
    3.2233   -1.3671   18.5581 H   0  0  0  0  0  0
    2.0397   -1.6557   19.8365 H   0  0  0  0  0  0
    6.4431   -3.8821   24.6315 H   0  0  0  0  0  0
    5.6405   -4.0771   23.0781 H   0  0  0  0  0  0
    7.8519   -3.0063   22.6989 H   0  0  0  0  0  0
    8.8127   -5.9001   22.9911 H   0  0  0  0  0  0
    9.6983   -4.4721   22.2321 H   0  0  0  0  0  0
  1  6  1  0  0  0
  1  2  2  0  0  0
  1 14  1  0  0  0
  2  3  1  0  0  0
  2 19  1  0  0  0
  3  4  2  0  0  0
  4  5  1  0  0  0
  4 13  1  0  0  0
  5  6  2  0  0  0
  6  7  1  0  0  0
  7  8  1  0  0  0
  7 20  1  0  0  0
  8 12  2  0  0  0
  8  9  1  0  0  0
  9 10  2  0  0  0
  9 21  1  0  0  0
 10 11  1  0  0  0
 10 15  1  0  0  0
 11 12  1  0  0  0
 11 22  1  0  0  0
 13 16  1  0  0  0
 13 23  1  0  0  0
 15 24  1  0  0  0
 15 25  1  0  0  0
 15 26  1  0  0  0
 16 17  1  0  0  0
 16 27  1  0  0  0
 16 28  1  0  0  0
 17 18  2  0  0  0
 17 29  1  0  0  0
 18 30  1  0  0  0
 18 31  1  0  0  0
M  END
> <s_m_entry_id>
5864

> <s_m_entry_name>
dock_pv.259

> <s_m_Source_Path>
/home/csk/Desktop/cluster/DUD-E-result/igf1r

> <s_m_Source_File>
dock_pv.maegz

> <i_m_Source_File_Index>
259

> <chembl_id>
CHEMBL2088090

> <chembl_pref_name>
None

> <i_lp_mmshare_version>
53161

> <r_lp_tautomer_probability>
0.842599732729633

> <s_lp_Force_Field>
OPLS_2005

> <r_lp_Energy>
-1.691823

> <b_lp_Chiralities_Consistent>
1

> <s_lp_Variant>
CHEMBL1957_lig945-1

> <s_i_glide_gridfile>
glide-grid_2oj9

> <i_i_glide_lignum>
1178

> <i_i_glide_rotatable_bonds>
5

> <r_i_docking_score>
-6.97871259657296

> <r_i_glide_ligand_efficiency>
-0.387706255365165

> <r_i_glide_ligand_efficiency_sa>
-1.01607783125026

> <r_i_glide_ligand_efficiency_ln>
-1.79384208781808

> <r_i_glide_gscore>
-6.97871259657296

> <r_i_glide_lipo>
-2.18660129380462

> <r_i_glide_hbond>
-0.541292366698826

> <r_i_glide_metal>
0

> <r_i_glide_rewards>
-2.64590391642427

> <r_i_glide_evdw>
-31.182991027832

> <r_i_glide_ecoul>
-4.82422208786011

> <r_i_glide_erotb>
0.677867844925366

> <r_i_glide_esite>
0

> <r_i_glide_emodel>
-49.6863986750863

> <r_i_glide_energy>
-36.0072131156921

> <r_i_glide_einternal>
2.16680479049683

> <i_i_glide_confnum>
17

> <i_i_glide_posenum>
19

> <r_i_glide_eff_state_penalty>
0

> <s_user_duplicate_titles>
CHEMBL1957_lig945

> <i_f3d_flags>
0

> <s_m_subgroup_title>
dock_pv

> <s_m_subgroupid>
dock_pv

> <b_m_subgroup_collapsed>
1

$$$$
CHEMBL1957_lig3428
                    3D
 Schrodinger Suite 2021-1.
 37 39  0  0  1  0            999 V2000
    3.7078   -0.8560   18.2382 O   0  0  0  0  0  0
    6.3186   -5.2589   22.3246 N   0  0  0  0  0  0
    6.5191   -2.8916   22.5945 N   0  0  0  0  0  0
    7.6591   -4.2834   24.0642 N   0  0  0  0  0  0
    7.5209   -6.6847   23.8381 N   0  0  0  0  0  0
    3.2383   -3.9258   17.8435 N   0  0  0  0  0  0
    6.6861   -6.4868   22.7809 C   0  0  0  0  0  0
    6.8251   -4.1958   23.0016 C   0  0  0  0  0  0
    5.7507   -2.3949   21.5273 C   0  0  0  0  0  0
    6.1556   -7.6923   22.0530 C   0  0  0  0  0  0
    4.0340   -2.6320   19.8193 C   0  0  0  0  0  0
    4.7190   -3.1287   20.9299 C   0  0  0  0  0  0
    4.3553   -1.3597   19.3299 C   0  0  0  0  0  0
    6.0378   -1.1165   21.0415 C   0  0  0  0  0  0
    5.3444   -0.5989   19.9466 C   0  0  0  0  0  0
    7.9767   -5.5511   24.4283 C   0  0  0  0  0  0
    5.2542   -7.5567   20.9807 C   0  0  0  0  0  0
    6.5601   -8.9903   22.4107 C   0  0  0  0  0  0
    2.9298   -3.4676   19.1897 C   0  0  0  0  0  0
    4.8102   -8.6687   20.2702 C   0  0  0  0  0  0
    6.1033  -10.1049   21.7130 C   0  0  0  0  0  0
    5.2379   -9.9393   20.6380 C   0  0  0  0  0  0
    3.1882   -1.5266   17.7905 H   0  0  0  0  0  0
    7.0115   -2.2018   23.1391 H   0  0  0  0  0  0
    2.6050   -3.5411   17.1461 H   0  0  0  0  0  0
    4.1785   -3.6515   17.5837 H   0  0  0  0  0  0
    4.4392   -4.0976   21.3106 H   0  0  0  0  0  0
    6.8275   -0.5283   21.4862 H   0  0  0  0  0  0
    5.5978    0.3784   19.5610 H   0  0  0  0  0  0
    8.6379   -5.6688   25.2754 H   0  0  0  0  0  0
    4.9087   -6.5824   20.6687 H   0  0  0  0  0  0
    7.2422   -9.1462   23.2337 H   0  0  0  0  0  0
    2.0380   -2.8513   19.1637 H   0  0  0  0  0  0
    2.7122   -4.3364   19.8138 H   0  0  0  0  0  0
    4.1327   -8.5423   19.4382 H   0  0  0  0  0  0
    6.4288  -11.0944   22.0019 H   0  0  0  0  0  0
    4.8916  -10.8024   20.0878 H   0  0  0  0  0  0
  1 13  1  0  0  0
  1 23  1  0  0  0
  2  7  2  0  0  0
  2  8  1  0  0  0
  3  8  1  0  0  0
  3  9  1  0  0  0
  3 24  1  0  0  0
  4  8  2  0  0  0
  4 16  1  0  0  0
  5  7  1  0  0  0
  5 16  2  0  0  0
  6 19  1  0  0  0
  6 25  1  0  0  0
  6 26  1  0  0  0
  7 10  1  0  0  0
  9 12  1  0  0  0
  9 14  2  0  0  0
 10 17  2  0  0  0
 10 18  1  0  0  0
 11 12  2  0  0  0
 11 13  1  0  0  0
 11 19  1  0  0  0
 12 27  1  0  0  0
 13 15  2  0  0  0
 14 15  1  0  0  0
 14 28  1  0  0  0
 15 29  1  0  0  0
 16 30  1  0  0  0
 17 20  1  0  0  0
 17 31  1  0  0  0
 18 21  2  0  0  0
 18 32  1  0  0  0
 19 33  1  0  0  0
 19 34  1  0  0  0
 20 22  2  0  0  0
 20 35  1  0  0  0
 21 22  1  0  0  0
 21 36  1  0  0  0
 22 37  1  0  0  0
M  END
> <s_m_entry_id>
5865

> <s_m_entry_name>
dock_pv.260

> <s_m_Source_Path>
/home/csk/Desktop/cluster/DUD-E-result/igf1r

> <s_m_Source_File>
dock_pv.maegz

> <i_m_Source_File_Index>
260

> <chembl_id>
CHEMBL1980246

> <chembl_pref_name>
None

> <i_lp_mmshare_version>
53161

> <r_lp_tautomer_probability>
1

> <s_lp_Force_Field>
OPLS_2005

> <r_lp_Energy>
6.848779

> <b_lp_Chiralities_Consistent>
1

> <s_lp_Variant>
CHEMBL1957_lig3428-1

> <s_i_glide_gridfile>
glide-grid_2oj9

> <i_i_glide_lignum>
4828

> <i_i_glide_rotatable_bonds>
5

> <r_i_docking_score>
-6.97442925681927

> <r_i_glide_ligand_efficiency>
-0.317019511673603

> <r_i_glide_ligand_efficiency_sa>
-0.888301139379342

> <r_i_glide_ligand_efficiency_ln>
-1.70480490885495

> <r_i_glide_gscore>
-6.97442925681927

> <r_i_glide_lipo>
-2.80686753789961

> <r_i_glide_hbond>
-0.32

> <r_i_glide_metal>
0

> <r_i_glide_rewards>
-1.74571191228682

> <r_i_glide_evdw>
-37.1486358642578

> <r_i_glide_ecoul>
-5.78574275970459

> <r_i_glide_erotb>
0.637076170713939

> <r_i_glide_esite>
-0.0136327701781968

> <r_i_glide_emodel>
-60.8511697540599

> <r_i_glide_energy>
-42.9343786239624

> <r_i_glide_einternal>
1.28932225704193

> <i_i_glide_confnum>
3

> <i_i_glide_posenum>
319

> <r_i_glide_eff_state_penalty>
0

> <s_user_duplicate_titles>
CHEMBL1957_lig3428

> <i_f3d_flags>
0

> <s_m_subgroup_title>
dock_pv

> <s_m_subgroupid>
dock_pv

> <b_m_subgroup_collapsed>
1

$$$$
CHEMBL1957_lig3130
                    3D
 Schrodinger Suite 2021-1.
 29 31  0  0  1  0            999 V2000
    5.0347   -7.3155   19.9110 Cl  0  0  0  0  0  0
    4.5598    0.1678   19.7937 O   0  0  0  0  0  0
    6.8524   -6.5103   24.5586 N   0  0  0  0  0  0
    6.8008   -8.8092   23.8550 N   0  0  0  0  0  0
    3.6383   -1.2539   18.3256 N   0  0  0  0  0  0
    6.0253   -6.9076   22.4773 C   0  0  0  0  0  0
    6.0158   -5.4707   22.7173 C   0  0  0  0  0  0
    6.5789   -7.5079   23.6547 C   0  0  0  0  0  0
    5.5671   -4.3351   21.8512 C   0  0  0  0  0  0
    5.6706   -7.8074   21.4382 C   0  0  0  0  0  0
    6.5257   -5.3045   23.9991 C   0  0  0  0  0  0
    5.8788   -9.1733   21.6394 C   0  0  0  0  0  0
    6.2896   -3.1384   21.8664 C   0  0  0  0  0  0
    4.4380   -4.4332   21.0380 C   0  0  0  0  0  0
    6.4372   -9.6196   22.8324 C   0  0  0  0  0  0
    4.7477   -2.1620   20.2748 C   0  0  0  0  0  0
    5.8750   -2.0557   21.0964 C   0  0  0  0  0  0
    4.0250   -3.3605   20.2580 C   0  0  0  0  0  0
    4.3226   -0.9851   19.4386 C   0  0  0  0  0  0
    7.2380   -6.5959   25.4930 H   0  0  0  0  0  0
    3.5323   -2.2046   18.0073 H   0  0  0  0  0  0
    3.3307   -0.4898   17.7453 H   0  0  0  0  0  0
    6.6829   -4.4025   24.5740 H   0  0  0  0  0  0
    5.6176   -9.8838   20.8675 H   0  0  0  0  0  0
    7.1728   -3.0396   22.4813 H   0  0  0  0  0  0
    3.8389   -5.3291   21.0382 H   0  0  0  0  0  0
    6.5973  -10.6764   22.9939 H   0  0  0  0  0  0
    6.4416   -1.1358   21.1322 H   0  0  0  0  0  0
    3.1334   -3.4749   19.6585 H   0  0  0  0  0  0
  1 10  1  0  0  0
  2 19  2  0  0  0
  3  8  1  0  0  0
  3 11  1  0  0  0
  3 20  1  0  0  0
  4  8  2  0  0  0
  4 15  1  0  0  0
  5 19  1  0  0  0
  5 21  1  0  0  0
  5 22  1  0  0  0
  6  7  1  0  0  0
  6  8  1  0  0  0
  6 10  2  0  0  0
  7  9  1  0  0  0
  7 11  2  0  0  0
  9 13  2  0  0  0
  9 14  1  0  0  0
 10 12  1  0  0  0
 11 23  1  0  0  0
 12 15  2  0  0  0
 12 24  1  0  0  0
 13 17  1  0  0  0
 13 25  1  0  0  0
 14 18  2  0  0  0
 14 26  1  0  0  0
 15 27  1  0  0  0
 16 17  2  0  0  0
 16 18  1  0  0  0
 16 19  1  0  0  0
 17 28  1  0  0  0
 18 29  1  0  0  0
M  END
> <s_m_entry_id>
5866

> <s_m_entry_name>
dock_pv.261

> <s_m_Source_Path>
/home/csk/Desktop/cluster/DUD-E-result/igf1r

> <s_m_Source_File>
dock_pv.maegz

> <i_m_Source_File_Index>
261

> <chembl_id>
CHEMBL1982711

> <chembl_pref_name>
None

> <i_lp_mmshare_version>
53161

> <r_lp_tautomer_probability>
0.999998432528457

> <s_lp_Force_Field>
OPLS_2005

> <r_lp_Energy>
12.042337

> <b_lp_Chiralities_Consistent>
1

> <s_lp_Variant>
CHEMBL1957_lig3130-1

> <s_i_glide_gridfile>
glide-grid_2oj9

> <i_i_glide_lignum>
4351

> <i_i_glide_rotatable_bonds>
2

> <r_i_docking_score>
-6.97127476682437

> <r_i_glide_ligand_efficiency>
-0.366909198253914

> <r_i_glide_ligand_efficiency_sa>
-0.979061108591062

> <r_i_glide_ligand_efficiency_ln>
-1.76736788264312

> <r_i_glide_gscore>
-6.97127476682437

> <r_i_glide_lipo>
-2.39587027545593

> <r_i_glide_hbond>
-0.32

> <r_i_glide_metal>
0

> <r_i_glide_rewards>
-2.38417807201533

> <r_i_glide_evdw>
-30.147066116333

> <r_i_glide_ecoul>
-3.96505665779114

> <r_i_glide_erotb>
0.242593975363275

> <r_i_glide_esite>
-0.0117085902310627

> <r_i_glide_emodel>
-47.191000855891

> <r_i_glide_energy>
-34.1121227741241

> <r_i_glide_einternal>
1.96972596645355

> <i_i_glide_confnum>
4

> <i_i_glide_posenum>
395

> <r_i_glide_eff_state_penalty>
0

> <s_user_duplicate_titles>
CHEMBL1957_lig3130

> <i_f3d_flags>
0

> <s_m_subgroup_title>
dock_pv

> <s_m_subgroupid>
dock_pv

> <b_m_subgroup_collapsed>
1

$$$$
CHEMBL1957_lig3083
                    3D
 Schrodinger Suite 2021-1.
 42 44  0  0  1  0            999 V2000
    4.9531   -6.3589   21.7292 S   0  0  0  0  0  0
    2.8391   -5.7945   18.4218 O   0  0  0  0  0  0
    6.8376   -1.4373   22.1909 O   0  0  0  0  0  0
    3.1988   -4.4785   20.2375 N   0  0  0  0  0  0
    8.0883   -9.3677   25.0307 N   0  0  0  0  0  0
    4.0380   -6.6657   20.2635 C   0  0  0  0  0  0
    5.5366   -8.0005   21.8145 C   0  0  0  0  0  0
    3.2693   -5.6365   19.5649 C   0  0  0  0  0  0
    6.4275   -8.4488   22.9397 C   0  0  0  0  0  0
    4.1979   -7.9948   19.8887 C   0  0  0  0  0  0
    5.0339   -8.7291   20.7347 C   0  0  0  0  0  0
    2.8712   -3.1277   19.7673 C   0  0  2  0  0  0
    4.1178   -2.2782   19.8004 C   0  0  0  0  0  0
    6.8392   -9.7883   23.0039 C   0  0  0  0  0  0
    6.8696   -7.5799   23.9528 C   0  0  0  0  0  0
    4.9960   -2.3921   20.8903 C   0  0  0  0  0  0
    5.9647   -1.4240   21.1220 C   0  0  0  0  0  0
    4.2638   -1.2391   18.8807 C   0  0  0  0  0  0
    7.6580  -10.2043   24.0549 C   0  0  0  0  0  0
    7.6920   -8.0730   24.9680 C   0  0  0  0  0  0
    6.0384   -0.3621   20.2296 C   0  0  0  0  0  0
    5.2354   -0.2731   19.0990 C   0  0  0  0  0  0
    1.9511   -2.3492   20.7391 C   0  0  0  0  0  0
    6.9852   -2.6292   22.9584 C   0  0  0  0  0  0
    3.4709   -4.5295   21.2036 H   0  0  0  0  0  0
    3.7035   -8.4349   19.0383 H   0  0  0  0  0  0
    5.2458   -9.7746   20.5669 H   0  0  0  0  0  0
    2.4417   -3.1429   18.7611 H   0  0  0  0  0  0
    6.5298  -10.5088   22.2633 H   0  0  0  0  0  0
    6.5899   -6.5378   23.9698 H   0  0  0  0  0  0
    4.8665   -3.1847   21.6091 H   0  0  0  0  0  0
    3.5915   -1.1403   18.0402 H   0  0  0  0  0  0
    7.9819  -11.2329   24.1273 H   0  0  0  0  0  0
    8.0431   -7.4268   25.7594 H   0  0  0  0  0  0
    6.8259    0.3496   20.3614 H   0  0  0  0  0  0
    5.3668    0.5480   18.4086 H   0  0  0  0  0  0
    2.0781   -1.2697   20.6370 H   0  0  0  0  0  0
    0.8813   -2.4527   20.6262 H   0  0  0  0  0  0
    2.2009   -2.6166   21.7592 H   0  0  0  0  0  0
    7.7952   -2.4936   23.6755 H   0  0  0  0  0  0
    6.0827   -2.8687   23.5232 H   0  0  0  0  0  0
    7.2460   -3.4811   22.3280 H   0  0  0  0  0  0
  1  6  1  0  0  0
  1  7  1  0  0  0
  2  8  2  0  0  0
  3 17  1  0  0  0
  3 24  1  0  0  0
  4  8  1  0  0  0
  4 12  1  0  0  0
  4 25  1  0  0  0
  5 19  2  0  0  0
  5 20  1  0  0  0
  6  8  1  0  0  0
  6 10  2  0  0  0
  7  9  1  0  0  0
  7 11  2  0  0  0
  9 14  2  0  0  0
  9 15  1  0  0  0
 10 11  1  0  0  0
 10 26  1  0  0  0
 11 27  1  0  0  0
 12 13  1  0  0  0
 12 23  1  0  0  0
 12 28  1  0  0  0
 13 16  2  0  0  0
 13 18  1  0  0  0
 14 19  1  0  0  0
 14 29  1  0  0  0
 15 20  2  0  0  0
 15 30  1  0  0  0
 16 17  1  0  0  0
 16 31  1  0  0  0
 17 21  2  0  0  0
 18 22  2  0  0  0
 18 32  1  0  0  0
 19 33  1  0  0  0
 20 34  1  0  0  0
 21 22  1  0  0  0
 21 35  1  0  0  0
 22 36  1  0  0  0
 23 37  1  0  0  0
 23 38  1  0  0  0
 23 39  1  0  0  0
 24 40  1  0  0  0
 24 41  1  0  0  0
 24 42  1  0  0  0
M  END
> <s_m_entry_id>
5867

> <s_m_entry_name>
dock_pv.262

> <s_m_Source_Path>
/home/csk/Desktop/cluster/DUD-E-result/igf1r

> <s_m_Source_File>
dock_pv.maegz

> <i_m_Source_File_Index>
262

> <chembl_id>
CHEMBL1994724

> <chembl_pref_name>
None

> <i_lp_mmshare_version>
53161

> <r_lp_tautomer_probability>
1

> <s_lp_Force_Field>
OPLS_2005

> <r_lp_Energy>
13.113729

> <b_lp_Chiralities_Consistent>
1

> <s_lp_Variant>
CHEMBL1957_lig3083-1

> <s_i_glide_gridfile>
glide-grid_2oj9

> <i_i_glide_lignum>
4284

> <i_i_glide_rotatable_bonds>
6

> <r_i_docking_score>
-6.96872411433155

> <r_i_glide_ligand_efficiency>
-0.290363504763814

> <r_i_glide_ligand_efficiency_sa>
-0.837553279069866

> <r_i_glide_ligand_efficiency_ln>
-1.6679354544724

> <r_i_glide_gscore>
-6.96872411433155

> <r_i_glide_lipo>
-3.51383930977054

> <r_i_glide_hbond>
-0.32

> <r_i_glide_metal>
0

> <r_i_glide_rewards>
-1.78129982799873

> <r_i_glide_evdw>
-28.9009342193604

> <r_i_glide_ecoul>
-4.89438152313232

> <r_i_glide_erotb>
0.825618962875588

> <r_i_glide_esite>
0

> <r_i_glide_emodel>
-44.0824723554661

> <r_i_glide_energy>
-33.7953157424927

> <r_i_glide_einternal>
13.5326023101807

> <i_i_glide_confnum>
10

> <i_i_glide_posenum>
166

> <r_i_glide_eff_state_penalty>
0

> <s_user_duplicate_titles>
CHEMBL1957_lig3083

> <i_f3d_flags>
0

> <s_m_subgroup_title>
dock_pv

> <s_m_subgroupid>
dock_pv

> <b_m_subgroup_collapsed>
1

$$$$
CHEMBL1957_lig1340
                    3D
 Schrodinger Suite 2021-1.
 40 42  0  0  1  0            999 V2000
    5.8153   -9.0435   22.2677 C   0  0  0  0  0  0
    6.5671   -9.1524   23.4380 C   0  0  0  0  0  0
    6.8398   -8.0850   24.2332 N   0  0  0  0  0  0
    6.3581   -6.8856   23.8248 C   0  0  0  0  0  0
    5.6168   -6.6894   22.7058 N   0  0  0  0  0  0
    5.3411   -7.7697   21.9337 C   0  0  0  0  0  0
    4.5595   -7.6124   20.7827 N   0  0  0  0  0  0
    6.6654   -5.7883   24.6380 N   0  0  0  0  0  0
    4.0393   -6.4539   20.2644 C   0  0  0  0  0  0
    4.0129   -5.1198   20.6380 C   0  0  0  0  0  0
    3.3734   -4.4267   19.5931 C   0  0  0  0  0  0
    3.0667   -5.2491   18.6152 N   0  0  0  0  0  0
    3.4504   -6.4540   19.0380 N   0  0  0  0  0  0
    5.4522  -10.5887   21.2067 Br  0  0  0  0  0  0
    3.0756   -2.9498   19.4431 C   0  0  0  0  0  0
    2.8344   -2.1137   20.6734 C   0  0  0  0  0  0
    4.0948   -1.9143   19.8584 C   0  0  0  0  0  0
    6.4901   -4.4075   24.1860 C   0  0  0  0  0  0
    7.7715   -3.7552   23.6192 C   0  0  0  0  0  0
    7.5291   -2.2632   23.3309 C   0  0  0  0  0  0
    8.3053   -4.4690   22.3596 C   0  0  0  0  0  0
    6.9496  -10.1097   23.7618 H   0  0  0  0  0  0
    4.4354   -8.4897   20.3007 H   0  0  0  0  0  0
    7.2288   -5.9545   25.4670 H   0  0  0  0  0  0
    4.4380   -4.6889   21.5306 H   0  0  0  0  0  0
    3.4173   -7.2660   18.4354 H   0  0  0  0  0  0
    2.4748   -2.7052   18.5640 H   0  0  0  0  0  0
    2.0377   -1.3741   20.6380 H   0  0  0  0  0  0
    2.9093   -2.5891   21.6510 H   0  0  0  0  0  0
    5.0517   -2.2573   20.2547 H   0  0  0  0  0  0
    4.2001   -1.0211   19.2413 H   0  0  0  0  0  0
    6.1195   -3.8381   25.0379 H   0  0  0  0  0  0
    5.6990   -4.3391   23.4381 H   0  0  0  0  0  0
    8.5471   -3.8138   24.3853 H   0  0  0  0  0  0
    6.7596   -2.1213   22.5709 H   0  0  0  0  0  0
    8.4380   -1.7807   22.9738 H   0  0  0  0  0  0
    7.2145   -1.7299   24.2286 H   0  0  0  0  0  0
    7.5648   -4.4735   21.5587 H   0  0  0  0  0  0
    9.2056   -3.9846   21.9790 H   0  0  0  0  0  0
    8.5714   -5.5052   22.5690 H   0  0  0  0  0  0
  1  2  2  0  0  0
  1  6  1  0  0  0
  1 14  1  0  0  0
  2  3  1  0  0  0
  2 22  1  0  0  0
  3  4  2  0  0  0
  4  5  1  0  0  0
  4  8  1  0  0  0
  5  6  2  0  0  0
  6  7  1  0  0  0
  7  9  1  0  0  0
  7 23  1  0  0  0
  8 18  1  0  0  0
  8 24  1  0  0  0
  9 13  1  0  0  0
  9 10  2  0  0  0
 10 11  1  0  0  0
 10 25  1  0  0  0
 11 15  1  0  0  0
 11 12  2  0  0  0
 12 13  1  0  0  0
 13 26  1  0  0  0
 15 16  1  0  0  0
 15 17  1  0  0  0
 15 27  1  0  0  0
 16 17  1  0  0  0
 16 28  1  0  0  0
 16 29  1  0  0  0
 17 30  1  0  0  0
 17 31  1  0  0  0
 18 19  1  0  0  0
 18 32  1  0  0  0
 18 33  1  0  0  0
 19 20  1  0  0  0
 19 21  1  0  0  0
 19 34  1  0  0  0
 20 35  1  0  0  0
 20 36  1  0  0  0
 20 37  1  0  0  0
 21 38  1  0  0  0
 21 39  1  0  0  0
 21 40  1  0  0  0
M  END
> <s_m_entry_id>
5868

> <s_m_entry_name>
dock_pv.263

> <s_m_Source_Path>
/home/csk/Desktop/cluster/DUD-E-result/igf1r

> <s_m_Source_File>
dock_pv.maegz

> <i_m_Source_File_Index>
263

> <chembl_id>
CHEMBL3892974

> <chembl_pref_name>
None

> <i_lp_mmshare_version>
53161

> <r_lp_tautomer_probability>
0.15739995007316

> <s_lp_Force_Field>
OPLS_2005

> <r_lp_Energy>
2.40173

> <b_lp_Chiralities_Consistent>
1

> <s_lp_Variant>
CHEMBL1957_lig1340-2

> <s_i_glide_gridfile>
glide-grid_2oj9

> <i_i_glide_lignum>
1814

> <i_i_glide_rotatable_bonds>
6

> <r_i_docking_score>
-6.96721014314323

> <r_i_glide_ligand_efficiency>
-0.331771911578249

> <r_i_glide_ligand_efficiency_sa>
-0.915333546968494

> <r_i_glide_ligand_efficiency_ln>
-1.72262862931845

> <r_i_glide_gscore>
-6.96721014314323

> <r_i_glide_lipo>
-2.71110903119558

> <r_i_glide_hbond>
-0.54900061930895

> <r_i_glide_metal>
0

> <r_i_glide_rewards>
-2.32435133426021

> <r_i_glide_evdw>
-30.9631729125977

> <r_i_glide_ecoul>
-4.03579950332642

> <r_i_glide_erotb>
0.772883156951028

> <r_i_glide_esite>
-0.00210374420067619

> <r_i_glide_emodel>
-47.9776550971138

> <r_i_glide_energy>
-34.9989724159241

> <r_i_glide_einternal>
2.77205324172974

> <i_i_glide_confnum>
23

> <i_i_glide_posenum>
370

> <r_i_glide_eff_state_penalty>
0

> <s_user_duplicate_titles>
CHEMBL1957_lig1340

> <i_f3d_flags>
0

> <s_m_subgroup_title>
dock_pv

> <s_m_subgroupid>
dock_pv

> <b_m_subgroup_collapsed>
1

$$$$
CHEMBL1957_lig3242
                    3D
 Schrodinger Suite 2021-1.
 34 37  0  0  1  0            999 V2000
    5.8194   -7.5501   21.9451 C   0  0  0  0  0  0
    5.0013   -7.7892   20.8273 C   0  0  0  0  0  0
    4.8382   -9.0619   20.2771 C   0  0  0  0  0  0
    6.4912   -8.6207   22.5590 C   0  0  0  0  0  0
    6.3389   -9.9118   22.0349 C   0  0  0  0  0  0
    5.5157  -10.1107   20.9024 C   0  0  0  0  0  0
    5.5850  -11.4626   20.6381 N   0  0  0  0  0  0
    6.3810  -12.1108   21.5050 N   0  0  0  0  0  0
    6.8343  -11.2139   22.3415 C   0  0  0  0  0  0
    5.9866   -6.2242   22.4324 N   0  0  0  0  0  0
    5.6307   -5.0372   21.8391 C   0  0  0  0  0  0
    6.0389   -4.0243   22.6928 C   0  0  0  0  0  0
    6.6175   -4.5766   23.7440 N   0  0  0  0  0  0
    6.5866   -5.9527   23.6034 N   0  0  0  0  0  0
    5.9028   -2.5116   22.5901 C   0  0  0  0  0  0
    5.2368   -1.9883   21.3152 C   0  0  0  0  0  0
    4.0192   -2.5194   20.8747 C   0  0  0  0  0  0
    3.4272   -2.0551   19.7029 C   0  0  0  0  0  0
    4.0411   -1.0335   18.9841 C   0  0  0  0  0  0
    5.2229   -0.4539   19.4432 C   0  0  0  0  0  0
    5.8169   -0.9293   20.6105 C   0  0  0  0  0  0
    4.4723   -6.9789   20.3487 H   0  0  0  0  0  0
    4.2149   -9.2204   19.4079 H   0  0  0  0  0  0
    7.1256   -8.4643   23.4192 H   0  0  0  0  0  0
    5.1397  -11.9630   19.8785 H   0  0  0  0  0  0
    7.4983  -11.4947   23.1454 H   0  0  0  0  0  0
    5.1193   -5.0040   20.8940 H   0  0  0  0  0  0
    6.8827   -2.0467   22.7088 H   0  0  0  0  0  0
    5.3020   -2.1541   23.4275 H   0  0  0  0  0  0
    3.5343   -3.3011   21.4378 H   0  0  0  0  0  0
    2.5005   -2.4832   19.3489 H   0  0  0  0  0  0
    3.5934   -0.6794   18.0661 H   0  0  0  0  0  0
    5.6873    0.3509   18.8903 H   0  0  0  0  0  0
    6.7358   -0.4770   20.9583 H   0  0  0  0  0  0
  1 10  1  0  0  0
  1  2  2  0  0  0
  1  4  1  0  0  0
  2  3  1  0  0  0
  2 22  1  0  0  0
  3  6  2  0  0  0
  3 23  1  0  0  0
  4  5  2  0  0  0
  4 24  1  0  0  0
  5  6  1  0  0  0
  5  9  1  0  0  0
  6  7  1  0  0  0
  7  8  1  0  0  0
  7 25  1  0  0  0
  8  9  2  0  0  0
  9 26  1  0  0  0
 10 11  1  0  0  0
 10 14  1  0  0  0
 11 12  2  0  0  0
 11 27  1  0  0  0
 12 13  1  0  0  0
 12 15  1  0  0  0
 13 14  2  0  0  0
 15 16  1  0  0  0
 15 28  1  0  0  0
 15 29  1  0  0  0
 16 17  2  0  0  0
 16 21  1  0  0  0
 17 18  1  0  0  0
 17 30  1  0  0  0
 18 19  2  0  0  0
 18 31  1  0  0  0
 19 20  1  0  0  0
 19 32  1  0  0  0
 20 21  2  0  0  0
 20 33  1  0  0  0
 21 34  1  0  0  0
M  END
> <s_m_entry_id>
5869

> <s_m_entry_name>
dock_pv.264

> <s_m_Source_Path>
/home/csk/Desktop/cluster/DUD-E-result/igf1r

> <s_m_Source_File>
dock_pv.maegz

> <i_m_Source_File_Index>
264

> <chembl_id>
CHEMBL1682341

> <chembl_pref_name>
None

> <i_lp_mmshare_version>
53161

> <r_lp_tautomer_probability>
1

> <s_lp_Force_Field>
OPLS_2005

> <r_lp_Energy>
12.540796

> <b_lp_Chiralities_Consistent>
1

> <s_lp_Variant>
CHEMBL1957_lig3242-1

> <s_i_glide_gridfile>
glide-grid_2oj9

> <i_i_glide_lignum>
4530

> <i_i_glide_rotatable_bonds>
3

> <r_i_docking_score>
-6.96610856406651

> <r_i_glide_ligand_efficiency>
-0.331719455431738

> <r_i_glide_ligand_efficiency_sa>
-0.915188824437832

> <r_i_glide_ligand_efficiency_ln>
-1.72235626611768

> <r_i_glide_gscore>
-6.96610856406651

> <r_i_glide_lipo>
-3.29846169806107

> <r_i_glide_hbond>
-0.242688649645945

> <r_i_glide_metal>
0

> <r_i_glide_rewards>
-2.11600428079714

> <r_i_glide_evdw>
-35.0001373291016

> <r_i_glide_ecoul>
-1.80195391178131

> <r_i_glide_erotb>
0.711346017659921

> <r_i_glide_esite>
0

> <r_i_glide_emodel>
-52.4296880240277

> <r_i_glide_energy>
-36.8020912408829

> <r_i_glide_einternal>
0.640215933322906

> <i_i_glide_confnum>
7

> <i_i_glide_posenum>
23

> <r_i_glide_eff_state_penalty>
0

> <s_user_duplicate_titles>
CHEMBL1957_lig3242

> <i_f3d_flags>
0

> <s_m_subgroup_title>
dock_pv

> <s_m_subgroupid>
dock_pv

> <b_m_subgroup_collapsed>
1

$$$$
CHEMBL1957_lig1629
                    3D
 Schrodinger Suite 2021-1.
 50 54  0  0  1  0            999 V2000
    4.3316   -2.0491   20.1348 C   0  0  0  0  0  0
    3.5802   -2.8748   19.2980 C   0  0  0  0  0  0
    3.3878   -4.1948   19.5580 N   0  0  0  0  0  0
    4.0380   -4.7035   20.6380 C   0  0  0  0  0  0
    4.8196   -3.9820   21.4798 N   0  0  0  0  0  0
    4.9393   -2.6514   21.2361 C   0  0  0  0  0  0
    5.7105   -1.8538   22.0882 N   0  0  0  0  0  0
    4.0345   -6.1003   20.7312 N   0  0  0  0  0  0
    6.6340   -2.2679   23.0098 C   0  0  0  0  0  0
    7.2800   -3.5060   23.1598 C   0  0  0  0  0  0
    8.2122   -3.3533   24.1666 C   0  0  0  0  0  0
    8.0372   -2.0540   24.5520 N   0  0  0  0  0  0
    7.0828   -1.4045   23.8840 N   0  0  0  0  0  0
    3.0257   -2.3561   17.9891 C   0  0  0  0  0  0
    9.2733   -4.2552   24.7545 C   0  0  0  0  0  0
    9.0707   -5.7492   24.8127 C   0  0  0  0  0  0
   10.0719   -5.1563   23.8388 C   0  0  0  0  0  0
    4.7882   -6.9824   21.5209 C   0  0  0  0  0  0
    5.1612   -8.2060   20.9594 C   0  0  0  0  0  0
    5.9070   -7.6094   23.5835 C   0  0  0  0  0  0
    5.1506   -6.6989   22.8441 C   0  0  0  0  0  0
    6.3507   -8.7870   22.9845 C   0  0  0  0  0  0
    5.9669   -9.0911   21.6744 C   0  0  0  0  0  0
    6.4173  -10.4913   21.3180 C   0  0  0  0  0  0
    7.5213  -10.7411   22.3384 C   0  0  1  0  0  0
    7.1153   -9.9529   23.5806 C   0  0  0  0  0  0
    7.8686  -12.1281   22.5577 N   0  0  0  0  0  0
    4.4768   -1.0035   19.9061 H   0  0  0  0  0  0
    5.6860   -0.8779   21.8407 H   0  0  0  0  0  0
    3.5332   -6.5393   19.9751 H   0  0  0  0  0  0
    7.1333   -4.3951   22.5665 H   0  0  0  0  0  0
    8.6445   -1.5616   25.1969 H   0  0  0  0  0  0
    3.2677   -1.3036   17.8386 H   0  0  0  0  0  0
    3.4444   -2.9185   17.1540 H   0  0  0  0  0  0
    1.9463   -2.4567   17.9572 H   0  0  0  0  0  0
    9.8029   -3.8139   25.5990 H   0  0  0  0  0  0
    8.1380   -6.1620   24.4310 H   0  0  0  0  0  0
    9.4290   -6.2828   25.6936 H   0  0  0  0  0  0
   11.1388   -5.2842   24.0199 H   0  0  0  0  0  0
    9.8441   -5.1520   22.7717 H   0  0  0  0  0  0
    4.8408   -8.4565   19.9580 H   0  0  0  0  0  0
    6.1475   -7.3862   24.6126 H   0  0  0  0  0  0
    4.8376   -5.7799   23.3144 H   0  0  0  0  0  0
    5.5790  -11.1716   21.4771 H   0  0  0  0  0  0
    6.7497  -10.6371   20.2906 H   0  0  0  0  0  0
    8.4027  -10.2318   21.9424 H   0  0  0  0  0  0
    7.9721   -9.6815   24.1981 H   0  0  0  0  0  0
    6.4379  -10.5362   24.2060 H   0  0  0  0  0  0
    8.1749  -12.5359   21.6871 H   0  0  0  0  0  0
    8.6549  -12.1744   23.1889 H   0  0  0  0  0  0
  1  2  2  0  0  0
  1  6  1  0  0  0
  1 28  1  0  0  0
  2  3  1  0  0  0
  2 14  1  0  0  0
  3  4  2  0  0  0
  4  5  1  0  0  0
  4  8  1  0  0  0
  5  6  2  0  0  0
  6  7  1  0  0  0
  7  9  1  0  0  0
  7 29  1  0  0  0
  8 18  1  0  0  0
  8 30  1  0  0  0
  9 13  2  0  0  0
  9 10  1  0  0  0
 10 11  2  0  0  0
 10 31  1  0  0  0
 11 15  1  0  0  0
 11 12  1  0  0  0
 12 32  1  0  0  0
 12 13  1  0  0  0
 14 33  1  0  0  0
 14 34  1  0  0  0
 14 35  1  0  0  0
 15 16  1  0  0  0
 15 17  1  0  0  0
 15 36  1  0  0  0
 16 17  1  0  0  0
 16 37  1  0  0  0
 16 38  1  0  0  0
 17 39  1  0  0  0
 17 40  1  0  0  0
 18 19  2  0  0  0
 18 21  1  0  0  0
 19 23  1  0  0  0
 19 41  1  0  0  0
 20 22  1  0  0  0
 20 21  2  0  0  0
 20 42  1  0  0  0
 21 43  1  0  0  0
 22 23  2  0  0  0
 22 26  1  0  0  0
 23 24  1  0  0  0
 24 25  1  0  0  0
 24 44  1  0  0  0
 24 45  1  0  0  0
 25 26  1  0  0  0
 25 27  1  0  0  0
 25 46  1  0  0  0
 26 47  1  0  0  0
 26 48  1  0  0  0
 27 49  1  0  0  0
 27 50  1  0  0  0
M  END
> <s_m_entry_id>
5870

> <s_m_entry_name>
dock_pv.265

> <s_m_Source_Path>
/home/csk/Desktop/cluster/DUD-E-result/igf1r

> <s_m_Source_File>
dock_pv.maegz

> <i_m_Source_File_Index>
265

> <chembl_id>
CHEMBL3955163

> <chembl_pref_name>
None

> <i_lp_mmshare_version>
53161

> <r_lp_tautomer_probability>
0.842599949391031

> <s_lp_Force_Field>
OPLS_2005

> <r_lp_Energy>
26.200021

> <b_lp_Chiralities_Consistent>
1

> <s_lp_Variant>
CHEMBL1957_lig1629-2

> <s_i_glide_gridfile>
glide-grid_2oj9

> <i_i_glide_lignum>
2368

> <i_i_glide_rotatable_bonds>
5

> <r_i_docking_score>
-6.96354759530767

> <r_i_glide_ligand_efficiency>
-0.25790917019658

> <r_i_glide_ligand_efficiency_sa>
-0.773727509739715

> <r_i_glide_ligand_efficiency_ln>
-1.62099907713317

> <r_i_glide_gscore>
-6.96354759530767

> <r_i_glide_lipo>
-3.69259159195913

> <r_i_glide_hbond>
-0.196708341810007

> <r_i_glide_metal>
0

> <r_i_glide_rewards>
-1.26598619288455

> <r_i_glide_evdw>
-41.5748405456543

> <r_i_glide_ecoul>
-2.90227031707764

> <r_i_glide_erotb>
0.734475128722526

> <r_i_glide_esite>
-0.0286540225321447

> <r_i_glide_emodel>
-57.1005780533602

> <r_i_glide_energy>
-44.4771108627319

> <r_i_glide_einternal>
7.08419466018677

> <i_i_glide_confnum>
15

> <i_i_glide_posenum>
46

> <r_i_glide_eff_state_penalty>
0

> <s_user_duplicate_titles>
CHEMBL1957_lig1629

> <i_f3d_flags>
0

> <s_m_subgroup_title>
dock_pv

> <s_m_subgroupid>
dock_pv

> <b_m_subgroup_collapsed>
1

$$$$
CHEMBL1957_lig1380
                    3D
 Schrodinger Suite 2021-1.
 41 44  0  0  1  0            999 V2000
    4.0389   -2.1739   19.3492 C   0  0  0  0  0  0
    3.2738   -3.0922   18.6216 C   0  0  0  0  0  0
    3.0937   -4.3719   19.0371 N   0  0  0  0  0  0
    3.6385   -4.7079   20.2333 C   0  0  0  0  0  0
    4.3684   -3.8699   21.0130 N   0  0  0  0  0  0
    4.5845   -2.6095   20.5617 C   0  0  0  0  0  0
    5.4281   -1.7678   21.3074 N   0  0  0  0  0  0
    3.6335   -6.0625   20.5159 O   0  0  0  0  0  0
    6.2541   -2.1572   22.3325 C   0  0  0  0  0  0
    6.8581   -3.4039   22.5553 C   0  0  0  0  0  0
    7.5279   -3.3222   23.7525 C   0  0  0  0  0  0
    7.3540   -2.0149   24.1188 N   0  0  0  0  0  0
    6.5906   -1.3076   23.2753 N   0  0  0  0  0  0
    8.2776   -4.3431   24.5701 C   0  0  0  0  0  0
    9.6273   -4.8538   24.1386 C   0  0  0  0  0  0
    9.4927   -3.9412   25.3502 C   0  0  0  0  0  0
    4.5115   -6.7023   21.3795 C   0  0  0  0  0  0
    5.0517   -7.9122   20.9486 C   0  0  0  0  0  0
    5.9364   -8.6230   21.7581 C   0  0  0  0  0  0
    6.2905   -8.1407   23.0249 C   0  0  0  0  0  0
    5.7115   -6.9474   23.4756 C   0  0  0  0  0  0
    4.8383   -6.2395   22.6589 C   0  0  0  0  0  0
    7.2829   -8.9095   23.8686 C   0  0  0  0  0  0
    7.7213   -8.3379   24.9921 N   0  0  0  0  0  0
    7.7007  -10.0152   23.5306 O   0  0  0  0  0  0
    4.4299   -0.4555   18.6382 Br  0  0  0  0  0  0
    2.8490   -2.8292   17.6616 H   0  0  0  0  0  0
    5.5135   -0.8441   20.9153 H   0  0  0  0  0  0
    6.7797   -4.2822   21.9338 H   0  0  0  0  0  0
    7.7901   -1.5917   24.9261 H   0  0  0  0  0  0
    7.6254   -5.0810   25.0367 H   0  0  0  0  0  0
    9.8587   -5.9101   24.2842 H   0  0  0  0  0  0
   10.0652   -4.4539   23.2218 H   0  0  0  0  0  0
    9.8639   -2.9185   25.2715 H   0  0  0  0  0  0
    9.6292   -4.3583   26.3485 H   0  0  0  0  0  0
    4.7952   -8.2953   19.9725 H   0  0  0  0  0  0
    6.3511   -9.5483   21.3839 H   0  0  0  0  0  0
    5.9239   -6.5475   24.4571 H   0  0  0  0  0  0
    4.4377   -5.3179   23.0385 H   0  0  0  0  0  0
    8.4090   -8.8225   25.5465 H   0  0  0  0  0  0
    7.4174   -7.4155   25.2669 H   0  0  0  0  0  0
  1  2  2  0  0  0
  1  6  1  0  0  0
  1 26  1  0  0  0
  2  3  1  0  0  0
  2 27  1  0  0  0
  3  4  2  0  0  0
  4  5  1  0  0  0
  4  8  1  0  0  0
  5  6  2  0  0  0
  6  7  1  0  0  0
  7  9  1  0  0  0
  7 28  1  0  0  0
  8 17  1  0  0  0
  9 13  2  0  0  0
  9 10  1  0  0  0
 10 11  2  0  0  0
 10 29  1  0  0  0
 11 14  1  0  0  0
 11 12  1  0  0  0
 12 30  1  0  0  0
 12 13  1  0  0  0
 14 15  1  0  0  0
 14 16  1  0  0  0
 14 31  1  0  0  0
 15 16  1  0  0  0
 15 32  1  0  0  0
 15 33  1  0  0  0
 16 34  1  0  0  0
 16 35  1  0  0  0
 17 18  2  0  0  0
 17 22  1  0  0  0
 18 19  1  0  0  0
 18 36  1  0  0  0
 19 20  2  0  0  0
 19 37  1  0  0  0
 20 21  1  0  0  0
 20 23  1  0  0  0
 21 22  2  0  0  0
 21 38  1  0  0  0
 22 39  1  0  0  0
 23 24  1  0  0  0
 23 25  2  0  0  0
 24 40  1  0  0  0
 24 41  1  0  0  0
M  END
> <s_m_entry_id>
5871

> <s_m_entry_name>
dock_pv.266

> <s_m_Source_Path>
/home/csk/Desktop/cluster/DUD-E-result/igf1r

> <s_m_Source_File>
dock_pv.maegz

> <i_m_Source_File_Index>
266

> <chembl_id>
CHEMBL3972484

> <chembl_pref_name>
None

> <i_lp_mmshare_version>
53161

> <r_lp_tautomer_probability>
0.842599998805966

> <s_lp_Force_Field>
OPLS_2005

> <r_lp_Energy>
23.19004

> <b_lp_Chiralities_Consistent>
1

> <s_lp_Variant>
CHEMBL1957_lig1380-1

> <s_i_glide_gridfile>
glide-grid_2oj9

> <i_i_glide_lignum>
1894

> <i_i_glide_rotatable_bonds>
6

> <r_i_docking_score>
-6.9634099982549

> <r_i_glide_ligand_efficiency>
-0.267823461471342

> <r_i_glide_ligand_efficiency_sa>
-0.793425950774419

> <r_i_glide_ligand_efficiency_ln>
-1.63533398927833

> <r_i_glide_gscore>
-6.9634099982549

> <r_i_glide_lipo>
-3.56067073006697

> <r_i_glide_hbond>
0

> <r_i_glide_metal>
0

> <r_i_glide_rewards>
-1.22665380251214

> <r_i_glide_evdw>
-43.1353759765625

> <r_i_glide_ecoul>
-3.94583368301392

> <r_i_glide_erotb>
0.57255838560441

> <r_i_glide_esite>
0

> <r_i_glide_emodel>
-62.698877516827

> <r_i_glide_energy>
-47.0812096595764

> <r_i_glide_einternal>
8.57543849945068

> <i_i_glide_confnum>
25

> <i_i_glide_posenum>
270

> <r_i_glide_eff_state_penalty>
0

> <s_user_duplicate_titles>
CHEMBL1957_lig1380

> <i_f3d_flags>
0

> <s_m_subgroup_title>
dock_pv

> <s_m_subgroupid>
dock_pv

> <b_m_subgroup_collapsed>
1

$$$$
CHEMBL1957_lig2702
                    3D
 Schrodinger Suite 2021-1.
 50 52  0  0  1  0            999 V2000
    7.9069   -4.1727   22.9242 O   0  0  0  0  0  0
    7.3068   -7.0623   23.4029 O   0  0  0  0  0  0
    6.6148   -0.9364   24.1850 N   0  0  0  0  0  0
    3.2380   -5.0286   18.9792 N   0  0  0  0  0  0
   10.7416   -6.0540   24.2380 N   0  0  0  0  0  0
    6.0437   -1.1953   21.8400 C   0  0  0  0  0  0
    7.2818   -2.9441   22.9906 C   0  0  0  0  0  0
    6.6616   -2.4540   21.8380 C   0  0  0  0  0  0
    6.0385   -0.4864   23.0450 C   0  0  0  0  0  0
    7.2380   -2.1377   24.1360 C   0  0  0  0  0  0
    5.4720   -0.5561   20.6380 C   0  0  0  0  0  0
    4.0402   -2.3877   19.5337 C   0  0  0  0  0  0
    4.6449   -1.0481   19.6902 C   0  0  0  0  0  0
    8.7854   -4.5614   23.9844 C   0  0  0  0  0  0
    9.4210   -5.9272   23.6446 C   0  0  2  0  0  0
    5.8424   -8.6412   22.3855 C   0  0  0  0  0  0
    3.6295   -2.7613   18.2507 C   0  0  0  0  0  0
    3.9380   -3.3361   20.5604 C   0  0  0  0  0  0
    8.5541   -7.1245   24.0733 C   0  0  0  0  0  0
    6.4142   -8.1287   23.6940 C   0  0  0  0  0  0
    3.2380   -4.0773   18.0150 C   0  0  0  0  0  0
    3.5542   -4.6398   20.2380 C   0  0  0  0  0  0
    5.3445   -7.7333   21.4470 C   0  0  0  0  0  0
    5.8312  -10.0119   22.1150 C   0  0  0  0  0  0
    4.8380   -8.1959   20.2380 C   0  0  0  0  0  0
    5.3261  -10.4739   20.9044 C   0  0  0  0  0  0
    4.8380   -9.5621   19.9735 C   0  0  0  0  0  0
   11.2380   -6.7625   23.6995 H   0  0  0  0  0  0
   11.2493   -5.2030   24.0411 H   0  0  0  0  0  0
    6.7071   -3.0346   20.9277 H   0  0  0  0  0  0
    5.6380    0.5108   23.1023 H   0  0  0  0  0  0
    7.7332   -2.4352   25.0414 H   0  0  0  0  0  0
    5.7854    0.4705   20.4988 H   0  0  0  0  0  0
    4.3762   -0.3495   18.9099 H   0  0  0  0  0  0
    9.5584   -3.7992   24.0985 H   0  0  0  0  0  0
    8.2635   -4.6220   24.9415 H   0  0  0  0  0  0
    9.5664   -5.9695   22.5634 H   0  0  0  0  0  0
    3.6491   -2.0541   17.4380 H   0  0  0  0  0  0
    4.1803   -3.0944   21.5826 H   0  0  0  0  0  0
    9.0614   -8.0586   23.8218 H   0  0  0  0  0  0
    8.4023   -7.1182   25.1551 H   0  0  0  0  0  0
    6.8951   -8.9452   24.2387 H   0  0  0  0  0  0
    5.6109   -7.7631   24.3348 H   0  0  0  0  0  0
    2.9384   -4.3910   17.0271 H   0  0  0  0  0  0
    3.5042   -5.4049   20.9983 H   0  0  0  0  0  0
    5.3676   -6.6731   21.6537 H   0  0  0  0  0  0
    6.2065  -10.7204   22.8396 H   0  0  0  0  0  0
    4.4572   -7.5042   19.5007 H   0  0  0  0  0  0
    5.3102  -11.5321   20.6870 H   0  0  0  0  0  0
    4.4386   -9.9198   19.0380 H   0  0  0  0  0  0
  1  7  1  0  0  0
  1 14  1  0  0  0
  2 19  1  0  0  0
  2 20  1  0  0  0
  3  9  2  0  0  0
  3 10  1  0  0  0
  4 21  2  0  0  0
  4 22  1  0  0  0
  5 15  1  0  0  0
  5 28  1  0  0  0
  5 29  1  0  0  0
  6  8  2  0  0  0
  6  9  1  0  0  0
  6 11  1  0  0  0
  7  8  1  0  0  0
  7 10  2  0  0  0
  8 30  1  0  0  0
  9 31  1  0  0  0
 10 32  1  0  0  0
 11 13  2  3  0  0
 11 33  1  0  0  0
 12 13  1  0  0  0
 12 17  2  0  0  0
 12 18  1  0  0  0
 13 34  1  0  0  0
 14 15  1  0  0  0
 14 35  1  0  0  0
 14 36  1  0  0  0
 15 19  1  0  0  0
 15 37  1  0  0  0
 16 20  1  0  0  0
 16 23  2  0  0  0
 16 24  1  0  0  0
 17 21  1  0  0  0
 17 38  1  0  0  0
 18 22  2  0  0  0
 18 39  1  0  0  0
 19 40  1  0  0  0
 19 41  1  0  0  0
 20 42  1  0  0  0
 20 43  1  0  0  0
 21 44  1  0  0  0
 22 45  1  0  0  0
 23 25  1  0  0  0
 23 46  1  0  0  0
 24 26  2  0  0  0
 24 47  1  0  0  0
 25 27  2  0  0  0
 25 48  1  0  0  0
 26 27  1  0  0  0
 26 49  1  0  0  0
 27 50  1  0  0  0
M  END
> <s_m_entry_id>
5872

> <s_m_entry_name>
dock_pv.267

> <s_m_Source_Path>
/home/csk/Desktop/cluster/DUD-E-result/igf1r

> <s_m_Source_File>
dock_pv.maegz

> <i_m_Source_File_Index>
267

> <chembl_id>
CHEMBL1993781

> <chembl_pref_name>
None

> <i_lp_mmshare_version>
53161

> <r_lp_tautomer_probability>
1

> <s_lp_Force_Field>
OPLS_2005

> <r_lp_Energy>
33.544807

> <b_lp_Chiralities_Consistent>
1

> <s_lp_Variant>
CHEMBL1957_lig2702-2

> <s_i_glide_gridfile>
glide-grid_2oj9

> <i_i_glide_lignum>
3739

> <i_i_glide_rotatable_bonds>
9

> <r_i_docking_score>
-6.96189806656337

> <r_i_glide_ligand_efficiency>
-0.257848076539384

> <r_i_glide_ligand_efficiency_sa>
-0.773544228768327

> <r_i_glide_ligand_efficiency_ln>
-1.6206150940361

> <r_i_glide_gscore>
-6.96189806656337

> <r_i_glide_lipo>
-3.95304475149852

> <r_i_glide_hbond>
-0.110273277568254

> <r_i_glide_metal>
0

> <r_i_glide_rewards>
-1.38101157060634

> <r_i_glide_evdw>
-42.9015197753906

> <r_i_glide_ecoul>
-3.65127301216125

> <r_i_glide_erotb>
1.17519847370346

> <r_i_glide_esite>
0

> <r_i_glide_emodel>
-60.5482999103934

> <r_i_glide_energy>
-46.5527927875519

> <r_i_glide_einternal>
8.37124347686768

> <i_i_glide_confnum>
29

> <i_i_glide_posenum>
54

> <r_i_glide_eff_state_penalty>
0

> <s_user_duplicate_titles>
CHEMBL1957_lig2702

> <i_f3d_flags>
0

> <s_m_subgroup_title>
dock_pv

> <s_m_subgroupid>
dock_pv

> <b_m_subgroup_collapsed>
1

$$$$
CHEMBL1957_lig3270
                    3D
 Schrodinger Suite 2021-1.
 51 53  0  0  1  0            999 V2000
    2.9384   -6.3918   18.6532 O   0  0  0  0  0  0
    6.6266   -1.4256   22.6351 O   0  0  0  0  0  0
    3.6380   -4.7779   20.0903 N   0  0  0  0  0  0
    8.6632  -11.8044   23.6889 N   0  0  0  0  0  0
    4.4129   -7.0646   20.4312 C   0  0  0  0  0  0
    6.0403   -8.9602   21.7630 C   0  0  0  0  0  0
    3.5826   -6.0539   19.6509 C   0  0  0  0  0  0
    4.2186   -2.3321   19.9074 C   0  0  0  0  0  0
    3.3209   -3.4948   19.4226 C   0  0  1  0  0  0
    6.9396   -9.9475   22.4342 C   0  0  0  0  0  0
    4.4380   -8.4063   20.0266 C   0  0  0  0  0  0
    5.1899   -6.6944   21.5408 C   0  0  0  0  0  0
    5.2375   -9.3380   20.6802 C   0  0  0  0  0  0
    5.9973   -7.6263   22.1868 C   0  0  0  0  0  0
    5.0334   -2.4603   21.0460 C   0  0  0  0  0  0
    5.8255   -1.3998   21.5093 C   0  0  0  0  0  0
    4.2389   -1.1067   19.2202 C   0  0  0  0  0  0
    7.5352  -10.9949   21.7108 C   0  0  0  0  0  0
    7.2359   -9.8568   23.8038 C   0  0  0  0  0  0
    5.8285   -0.2107   20.7853 C   0  0  0  0  0  0
    5.0511   -0.0610   19.6446 C   0  0  0  0  0  0
    3.2380   -3.5733   17.8782 C   0  0  0  0  0  0
    8.3823  -11.8900   22.3663 C   0  0  0  0  0  0
    8.0897  -10.7939   24.3881 C   0  0  0  0  0  0
    6.5394   -2.4930   23.5818 C   0  0  0  0  0  0
    7.8127   -3.3573   23.5556 C   0  0  0  0  0  0
    8.0997   -4.0202   22.1975 C   0  0  0  0  0  0
    3.9553   -4.6712   21.0393 H   0  0  0  0  0  0
    2.3390   -3.2105   19.7796 H   0  0  0  0  0  0
    3.8450   -8.7384   19.1854 H   0  0  0  0  0  0
    5.2063   -5.6830   21.9128 H   0  0  0  0  0  0
    5.2304  -10.3595   20.3301 H   0  0  0  0  0  0
    6.6080   -7.2927   23.0124 H   0  0  0  0  0  0
    5.0575   -3.3953   21.5707 H   0  0  0  0  0  0
    3.6326   -0.9358   18.3470 H   0  0  0  0  0  0
    7.3614  -11.1143   20.6515 H   0  0  0  0  0  0
    6.8109   -9.0746   24.4160 H   0  0  0  0  0  0
    6.4368    0.6096   21.1152 H   0  0  0  0  0  0
    5.0805    0.8686   19.0949 H   0  0  0  0  0  0
    2.8907   -2.6425   17.4380 H   0  0  0  0  0  0
    4.2041   -3.8171   17.4382 H   0  0  0  0  0  0
    2.5153   -4.3105   17.5329 H   0  0  0  0  0  0
    8.8535  -12.6980   21.8259 H   0  0  0  0  0  0
    8.3283  -10.7420   25.4403 H   0  0  0  0  0  0
    5.6400   -3.0992   23.5031 H   0  0  0  0  0  0
    6.4629   -2.0279   24.5659 H   0  0  0  0  0  0
    7.7346   -4.1291   24.3238 H   0  0  0  0  0  0
    8.6658   -2.7413   23.8405 H   0  0  0  0  0  0
    9.0006   -4.6313   22.2472 H   0  0  0  0  0  0
    8.2613   -3.2727   21.4217 H   0  0  0  0  0  0
    7.2815   -4.6633   21.8811 H   0  0  0  0  0  0
  1  7  2  0  0  0
  2 16  1  0  0  0
  2 25  1  0  0  0
  3  7  1  0  0  0
  3  9  1  0  0  0
  3 28  1  0  0  0
  4 23  2  0  0  0
  4 24  1  0  0  0
  5  7  1  0  0  0
  5 11  2  0  0  0
  5 12  1  0  0  0
  6 10  1  0  0  0
  6 13  2  0  0  0
  6 14  1  0  0  0
  8  9  1  0  0  0
  8 15  2  0  0  0
  8 17  1  0  0  0
  9 22  1  0  0  0
  9 29  1  0  0  0
 10 18  2  0  0  0
 10 19  1  0  0  0
 11 13  1  0  0  0
 11 30  1  0  0  0
 12 14  2  0  0  0
 12 31  1  0  0  0
 13 32  1  0  0  0
 14 33  1  0  0  0
 15 16  1  0  0  0
 15 34  1  0  0  0
 16 20  2  0  0  0
 17 21  2  0  0  0
 17 35  1  0  0  0
 18 23  1  0  0  0
 18 36  1  0  0  0
 19 24  2  0  0  0
 19 37  1  0  0  0
 20 21  1  0  0  0
 20 38  1  0  0  0
 21 39  1  0  0  0
 22 40  1  0  0  0
 22 41  1  0  0  0
 22 42  1  0  0  0
 23 43  1  0  0  0
 24 44  1  0  0  0
 25 26  1  0  0  0
 25 45  1  0  0  0
 25 46  1  0  0  0
 26 27  1  0  0  0
 26 47  1  0  0  0
 26 48  1  0  0  0
 27 49  1  0  0  0
 27 50  1  0  0  0
 27 51  1  0  0  0
M  END
> <s_m_entry_id>
5873

> <s_m_entry_name>
dock_pv.268

> <s_m_Source_Path>
/home/csk/Desktop/cluster/DUD-E-result/igf1r

> <s_m_Source_File>
dock_pv.maegz

> <i_m_Source_File_Index>
268

> <chembl_id>
CHEMBL2007296

> <chembl_pref_name>
None

> <i_lp_mmshare_version>
53161

> <r_lp_tautomer_probability>
1

> <s_lp_Force_Field>
OPLS_2005

> <r_lp_Energy>
16.380949

> <b_lp_Chiralities_Consistent>
1

> <s_lp_Variant>
CHEMBL1957_lig3270-2

> <s_i_glide_gridfile>
glide-grid_2oj9

> <i_i_glide_lignum>
4581

> <i_i_glide_rotatable_bonds>
8

> <r_i_docking_score>
-6.96138681892033

> <r_i_glide_ligand_efficiency>
-0.257829141441494

> <r_i_glide_ligand_efficiency_sa>
-0.773487423474719

> <r_i_glide_ligand_efficiency_ln>
-1.62049608401338

> <r_i_glide_gscore>
-6.96138681892033

> <r_i_glide_lipo>
-3.83304046994303

> <r_i_glide_hbond>
-0.215975305618761

> <r_i_glide_metal>
0

> <r_i_glide_rewards>
-1.547755860534

> <r_i_glide_evdw>
-39.5670890808105

> <r_i_glide_ecoul>
-2.7972719669342

> <r_i_glide_erotb>
1.03333006625611

> <r_i_glide_esite>
0

> <r_i_glide_emodel>
-54.8617851692563

> <r_i_glide_energy>
-42.3643610477448

> <r_i_glide_einternal>
10.8445692062378

> <i_i_glide_confnum>
20

> <i_i_glide_posenum>
64

> <r_i_glide_eff_state_penalty>
0

> <s_user_duplicate_titles>
CHEMBL1957_lig3270

> <i_f3d_flags>
0

> <s_m_subgroup_title>
dock_pv

> <s_m_subgroupid>
dock_pv

> <b_m_subgroup_collapsed>
1

$$$$
CHEMBL1957_lig1510
                    3D
 Schrodinger Suite 2021-1.
 50 54  0  0  1  0            999 V2000
    8.1328   -9.4953   25.5869 N   0  0  0  0  0  0
    8.0516   -9.6691   24.2449 C   0  0  0  0  0  0
    8.5453   -8.8049   23.3175 N   0  0  0  0  0  0
    8.9457   -7.5881   23.7604 C   0  0  0  0  0  0
    9.2380   -6.6595   22.7582 N   0  0  0  0  0  0
    7.2481  -10.7419   23.8297 N   0  0  0  0  0  0
    8.6225   -5.4514   22.5586 C   0  0  0  0  0  0
    7.7497   -4.7168   23.3790 C   0  0  0  0  0  0
    7.5330   -3.5020   22.7499 C   0  0  0  0  0  0
    8.1866   -3.6540   21.5602 N   0  0  0  0  0  0
    8.8380   -4.8101   21.4380 N   0  0  0  0  0  0
    6.8050   -2.2303   23.1318 C   0  0  0  0  0  0
    5.9902   -2.1853   24.3997 C   0  0  0  0  0  0
    7.2791   -1.4066   24.3044 C   0  0  0  0  0  0
    8.6717   -8.3249   26.0105 C   0  0  0  0  0  0
    9.0571   -7.3119   25.1314 C   0  0  0  0  0  0
    9.6380   -5.6358   25.8304 Br  0  0  0  0  0  0
    6.8441  -10.9588   22.4381 C   0  0  0  0  0  0
    5.9628   -9.8972   21.7791 C   0  0  0  0  0  0
    5.2847   -9.9621   20.5605 C   0  0  0  0  0  0
    4.7050   -8.8683   20.1104 N   0  0  0  0  0  0
    4.8405   -7.8606   20.9331 C   0  0  0  0  0  0
    5.6380   -8.2892   22.4058 S   0  0  0  0  0  0
    4.4111   -6.4540   20.6380 C   0  0  0  0  0  0
    3.6380   -6.2045   19.4968 C   0  0  0  0  0  0
    3.2380   -4.9122   19.1704 C   0  0  0  0  0  0
    3.6380   -3.8373   19.9680 C   0  0  0  0  0  0
    4.4380   -4.0745   21.0880 C   0  0  0  0  0  0
    4.8067   -5.3727   21.4380 C   0  0  0  0  0  0
    3.2460   -2.4081   19.6104 C   0  0  0  0  0  0
    2.8922   -2.2968   18.3300 F   0  0  0  0  0  0
    4.2528   -1.5622   19.8380 F   0  0  0  0  0  0
    2.2155   -2.0540   20.3747 F   0  0  0  0  0  0
   10.1173   -6.8540   22.2833 H   0  0  0  0  0  0
    6.8012  -11.2999   24.5424 H   0  0  0  0  0  0
    7.3798   -5.0083   24.3499 H   0  0  0  0  0  0
    8.2244   -2.9497   20.8392 H   0  0  0  0  0  0
    6.4249   -1.6651   22.2794 H   0  0  0  0  0  0
    5.0381   -1.6540   24.3896 H   0  0  0  0  0  0
    5.9748   -3.0678   25.0380 H   0  0  0  0  0  0
    8.1479   -1.7550   24.8635 H   0  0  0  0  0  0
    7.2380   -0.3190   24.2380 H   0  0  0  0  0  0
    8.7222   -8.1683   27.0784 H   0  0  0  0  0  0
    6.3356  -11.9227   22.3991 H   0  0  0  0  0  0
    7.7532  -11.0952   21.8507 H   0  0  0  0  0  0
    5.2606  -10.8385   19.9278 H   0  0  0  0  0  0
    3.3263   -7.0166   18.8565 H   0  0  0  0  0  0
    2.6378   -4.7480   18.2868 H   0  0  0  0  0  0
    4.7500   -3.2529   21.7129 H   0  0  0  0  0  0
    5.4100   -5.5221   22.3195 H   0  0  0  0  0  0
  1 15  1  0  0  0
  1  2  2  0  0  0
  2  3  1  0  0  0
  2  6  1  0  0  0
  3  4  2  0  0  0
  4 16  1  0  0  0
  4  5  1  0  0  0
  5  7  1  0  0  0
  5 34  1  0  0  0
  6 18  1  0  0  0
  6 35  1  0  0  0
  7  8  1  0  0  0
  7 11  2  0  0  0
  8  9  2  0  0  0
  8 36  1  0  0  0
  9 10  1  0  0  0
  9 12  1  0  0  0
 10 11  1  0  0  0
 10 37  1  0  0  0
 12 13  1  0  0  0
 12 14  1  0  0  0
 12 38  1  0  0  0
 13 14  1  0  0  0
 13 39  1  0  0  0
 13 40  1  0  0  0
 14 41  1  0  0  0
 14 42  1  0  0  0
 15 16  2  0  0  0
 15 43  1  0  0  0
 16 17  1  0  0  0
 18 19  1  0  0  0
 18 44  1  0  0  0
 18 45  1  0  0  0
 19 20  2  0  0  0
 19 23  1  0  0  0
 20 21  1  0  0  0
 20 46  1  0  0  0
 21 22  2  0  0  0
 22 23  1  0  0  0
 22 24  1  0  0  0
 24 25  2  0  0  0
 24 29  1  0  0  0
 25 26  1  0  0  0
 25 47  1  0  0  0
 26 27  2  0  0  0
 26 48  1  0  0  0
 27 28  1  0  0  0
 27 30  1  0  0  0
 28 29  2  0  0  0
 28 49  1  0  0  0
 29 50  1  0  0  0
 30 31  1  0  0  0
 30 32  1  0  0  0
 30 33  1  0  0  0
M  END
> <s_m_entry_id>
5874

> <s_m_entry_name>
dock_pv.269

> <s_m_Source_Path>
/home/csk/Desktop/cluster/DUD-E-result/igf1r

> <s_m_Source_File>
dock_pv.maegz

> <i_m_Source_File_Index>
269

> <chembl_id>
CHEMBL3929415

> <chembl_pref_name>
None

> <i_lp_mmshare_version>
53161

> <r_lp_tautomer_probability>
0.842599732729633

> <s_lp_Force_Field>
OPLS_2005

> <r_lp_Energy>
9.81162

> <b_lp_Chiralities_Consistent>
1

> <s_lp_Variant>
CHEMBL1957_lig1510-1

> <s_i_glide_gridfile>
glide-grid_2oj9

> <i_i_glide_lignum>
2150

> <i_i_glide_rotatable_bonds>
8

> <r_i_docking_score>
-6.95996854837466

> <r_i_glide_ligand_efficiency>
-0.210908137829535

> <r_i_glide_ligand_efficiency_sa>
-0.676495091775268

> <r_i_glide_ligand_efficiency_ln>
-1.54786096837003

> <r_i_glide_gscore>
-6.95996854837466

> <r_i_glide_lipo>
-3.29897916075993

> <r_i_glide_hbond>
-0.16

> <r_i_glide_metal>
0

> <r_i_glide_rewards>
-1.26127815691416

> <r_i_glide_evdw>
-45.0613670349121

> <r_i_glide_ecoul>
-2.82759618759155

> <r_i_glide_erotb>
0.502443553016045

> <r_i_glide_esite>
-0.0649470038322799

> <r_i_glide_emodel>
-61.3031565254306

> <r_i_glide_energy>
-47.8889632225037

> <r_i_glide_einternal>
10.1324014663696

> <i_i_glide_confnum>
3

> <i_i_glide_posenum>
21

> <r_i_glide_eff_state_penalty>
0

> <s_user_duplicate_titles>
CHEMBL1957_lig1510

> <i_f3d_flags>
0

> <s_m_subgroup_title>
dock_pv

> <s_m_subgroupid>
dock_pv

> <b_m_subgroup_collapsed>
1

$$$$
CHEMBL1957_lig3233
                    3D
 Schrodinger Suite 2021-1.
 39 42  0  0  1  0            999 V2000
    9.4569   -2.8554   25.3128 Cl  0  0  0  0  0  0
    5.4579   -0.3872   20.2669 N   0  0  0  0  0  0
    3.9271   -1.2787   18.6502 N   0  0  0  0  0  0
    7.7983   -4.7125   24.5135 N   0  0  0  0  0  0
    6.3606   -6.4739   24.2102 N   0  0  0  0  0  0
    5.7931   -2.2081   21.6084 C   0  0  0  0  0  0
    4.8021   -2.5326   20.5962 C   0  0  0  0  0  0
    6.4641   -3.0872   22.6363 C   0  0  0  0  0  0
    4.6683   -1.3806   19.7537 C   0  0  0  0  0  0
    6.0458   -0.8545   21.4131 C   0  0  0  0  0  0
    6.0804   -4.4182   22.8571 C   0  0  0  0  0  0
    7.5502   -2.6014   23.3847 C   0  0  0  0  0  0
    6.7481   -5.1890   23.8202 C   0  0  0  0  0  0
    4.0231   -3.6514   20.2304 C   0  0  0  0  0  0
    8.1858   -3.4389   24.3049 C   0  0  0  0  0  0
    3.2390   -3.5763   19.0781 C   0  0  0  0  0  0
    3.2365   -2.4016   18.3307 C   0  0  0  0  0  0
    5.1249   -7.0972   23.7638 C   0  0  0  0  0  0
    5.3690   -8.0572   22.6144 C   0  0  0  0  0  0
    6.0493   -9.2537   22.8549 C   0  0  0  0  0  0
    4.8355   -7.7915   21.3519 C   0  0  0  0  0  0
    6.1498  -10.2091   21.8499 C   0  0  0  0  0  0
    4.9101   -8.7609   20.3572 C   0  0  0  0  0  0
    5.5649   -9.9663   20.6103 C   0  0  0  0  0  0
    5.6270    0.5336   19.8806 H   0  0  0  0  0  0
    6.7936   -6.8192   25.0564 H   0  0  0  0  0  0
    6.7059   -0.1963   21.9526 H   0  0  0  0  0  0
    5.2570   -4.8433   22.3268 H   0  0  0  0  0  0
    7.9072   -1.5945   23.2687 H   0  0  0  0  0  0
    4.0315   -4.5694   20.7879 H   0  0  0  0  0  0
    2.6533   -4.4244   18.7550 H   0  0  0  0  0  0
    2.6339   -2.3371   17.4379 H   0  0  0  0  0  0
    4.3795   -6.3577   23.4835 H   0  0  0  0  0  0
    4.6943   -7.6530   24.5963 H   0  0  0  0  0  0
    6.4605   -9.4629   23.8312 H   0  0  0  0  0  0
    4.3004   -6.8741   21.1602 H   0  0  0  0  0  0
    6.6574  -11.1441   22.0383 H   0  0  0  0  0  0
    4.4554   -8.5827   19.3975 H   0  0  0  0  0  0
    5.6222  -10.7184   19.8365 H   0  0  0  0  0  0
  1 15  1  0  0  0
  2  9  1  0  0  0
  2 10  1  0  0  0
  2 25  1  0  0  0
  3  9  2  0  0  0
  3 17  1  0  0  0
  4 13  2  0  0  0
  4 15  1  0  0  0
  5 13  1  0  0  0
  5 18  1  0  0  0
  5 26  1  0  0  0
  6  7  1  0  0  0
  6  8  1  0  0  0
  6 10  2  0  0  0
  7  9  1  0  0  0
  7 14  2  0  0  0
  8 11  2  0  0  0
  8 12  1  0  0  0
 10 27  1  0  0  0
 11 13  1  0  0  0
 11 28  1  0  0  0
 12 15  2  0  0  0
 12 29  1  0  0  0
 14 16  1  0  0  0
 14 30  1  0  0  0
 16 17  2  0  0  0
 16 31  1  0  0  0
 17 32  1  0  0  0
 18 19  1  0  0  0
 18 33  1  0  0  0
 18 34  1  0  0  0
 19 20  2  0  0  0
 19 21  1  0  0  0
 20 22  1  0  0  0
 20 35  1  0  0  0
 21 23  2  0  0  0
 21 36  1  0  0  0
 22 24  2  0  0  0
 22 37  1  0  0  0
 23 24  1  0  0  0
 23 38  1  0  0  0
 24 39  1  0  0  0
M  END
> <s_m_entry_id>
5875

> <s_m_entry_name>
dock_pv.270

> <s_m_Source_Path>
/home/csk/Desktop/cluster/DUD-E-result/igf1r

> <s_m_Source_File>
dock_pv.maegz

> <i_m_Source_File_Index>
270

> <chembl_id>
CHEMBL1969588

> <chembl_pref_name>
None

> <i_lp_mmshare_version>
53161

> <r_lp_tautomer_probability>
0.999998204729223

> <s_lp_Force_Field>
OPLS_2005

> <r_lp_Energy>
11.361185

> <b_lp_Chiralities_Consistent>
1

> <s_lp_Variant>
CHEMBL1957_lig3233-1

> <s_i_glide_gridfile>
glide-grid_2oj9

> <i_i_glide_lignum>
4506

> <i_i_glide_rotatable_bonds>
4

> <r_i_docking_score>
-6.95517717636039

> <r_i_glide_ligand_efficiency>
-0.289799049015016

> <r_i_glide_ligand_efficiency_sa>
-0.835925106949268

> <r_i_glide_ligand_efficiency_ln>
-1.66469305058742

> <r_i_glide_gscore>
-6.95517717636039

> <r_i_glide_lipo>
-3.61222735671258

> <r_i_glide_hbond>
0

> <r_i_glide_metal>
0

> <r_i_glide_rewards>
-1.76463050137213

> <r_i_glide_evdw>
-41.4372406005859

> <r_i_glide_ecoul>
-1.19774234294891

> <r_i_glide_erotb>
0.673204063195951

> <r_i_glide_esite>
0

> <r_i_glide_emodel>
-55.7901598465452

> <r_i_glide_energy>
-42.6349829435349

> <r_i_glide_einternal>
4.82329225540161

> <i_i_glide_confnum>
56

> <i_i_glide_posenum>
54

> <r_i_glide_eff_state_penalty>
0

> <s_user_duplicate_titles>
CHEMBL1957_lig3233

> <i_f3d_flags>
0

> <s_m_subgroup_title>
dock_pv

> <s_m_subgroupid>
dock_pv

> <b_m_subgroup_collapsed>
1

$$$$
CHEMBL1957_lig2788
                    3D
 Schrodinger Suite 2021-1.
 54 57  0  0  1  0            999 V2000
    5.9277   -8.3386   22.6000 C   0  0  0  0  0  0
    5.5872   -8.8382   21.3147 C   0  0  0  0  0  0
    8.7113   -5.3960   22.9348 S   0  0  0  0  0  0
    6.0753  -10.0926   21.0969 N   0  0  0  0  0  0
    6.7553  -10.3591   22.2277 N   0  0  0  0  0  0
    4.3481   -3.7891   20.6380 N   0  0  0  0  0  0
    6.7229   -9.3619   23.1819 C   0  0  0  0  0  0
    4.8380   -8.0590   20.4233 C   0  0  0  0  0  0
    4.3968   -6.7728   20.7957 C   0  0  0  0  0  0
    3.6379   -4.5310   19.7446 C   0  0  0  0  0  0
    4.5268   -2.4665   20.3989 C   0  0  0  0  0  0
    7.8696   -3.8043   23.1130 C   0  0  0  0  0  0
    5.4778   -7.0753   22.9890 C   0  0  0  0  0  0
    3.6379   -5.9589   19.8857 N   0  0  0  0  0  0
    4.7382   -6.3206   22.0830 C   0  0  0  0  0  0
    6.9893   -3.3896   22.1038 C   0  0  0  0  0  0
    5.3813   -1.7417   21.2316 N   0  0  0  0  0  0
    3.9784   -1.7779   19.3716 N   0  0  0  0  0  0
    8.3030   -6.2441   24.0573 O   0  0  0  0  0  0
    8.5154   -5.8532   21.5547 O   0  0  0  0  0  0
    3.0564   -3.8782   18.6362 C   0  0  0  0  0  0
    6.2662   -2.1936   22.2205 C   0  0  0  0  0  0
   10.4169   -5.1004   23.1278 N   0  0  0  0  0  0
    8.0480   -2.9789   24.2382 C   0  0  0  0  0  0
    7.3211   -1.7887   24.3461 C   0  0  0  0  0  0
    3.2409   -2.5027   18.4971 C   0  0  0  0  0  0
    7.4277  -11.6445   22.3347 C   0  0  0  0  0  0
    6.4384   -1.3977   23.3478 C   0  0  0  0  0  0
    7.4504   -9.4437   24.5068 C   0  0  0  0  0  0
    2.8685   -6.6831   18.8494 C   0  0  0  0  0  0
    9.0273   -3.3230   25.3536 C   0  0  0  0  0  0
    4.6610   -8.4583   19.4381 H   0  0  0  0  0  0
    5.7180   -6.6790   23.9650 H   0  0  0  0  0  0
    4.4380   -5.3528   22.4406 H   0  0  0  0  0  0
    6.8606   -4.0031   21.2245 H   0  0  0  0  0  0
    5.4935   -0.7785   20.9557 H   0  0  0  0  0  0
    2.4953   -4.3937   17.8737 H   0  0  0  0  0  0
   10.9683   -5.8665   22.7065 H   0  0  0  0  0  0
   10.7074   -4.2465   22.6383 H   0  0  0  0  0  0
    7.4600   -1.1435   25.2004 H   0  0  0  0  0  0
    2.8376   -1.9750   17.6450 H   0  0  0  0  0  0
    8.4698  -11.4827   22.6136 H   0  0  0  0  0  0
    6.9325  -12.2403   23.1027 H   0  0  0  0  0  0
    7.3956  -12.1821   21.3849 H   0  0  0  0  0  0
    5.8977   -0.4692   23.4514 H   0  0  0  0  0  0
    7.1741   -8.6229   25.1687 H   0  0  0  0  0  0
    8.5295   -9.3838   24.3706 H   0  0  0  0  0  0
    7.2403  -10.3724   25.0359 H   0  0  0  0  0  0
    3.2380   -6.4539   17.8503 H   0  0  0  0  0  0
    2.8657   -7.7664   18.9402 H   0  0  0  0  0  0
    1.8108   -6.4540   18.9123 H   0  0  0  0  0  0
    8.8384   -4.3223   25.7476 H   0  0  0  0  0  0
   10.0479   -3.2975   24.9832 H   0  0  0  0  0  0
    8.9740   -2.6199   26.1850 H   0  0  0  0  0  0
  1  2  1  0  0  0
  1  7  2  0  0  0
  1 13  1  0  0  0
  2  4  2  0  0  0
  2  8  1  0  0  0
  3 12  1  0  0  0
  3 19  2  0  0  0
  3 20  2  0  0  0
  3 23  1  0  0  0
  4  5  1  0  0  0
  5  7  1  0  0  0
  5 27  1  0  0  0
  6 10  2  0  0  0
  6 11  1  0  0  0
  7 29  1  0  0  0
  8  9  2  0  0  0
  8 32  1  0  0  0
  9 15  1  0  0  0
  9 14  1  0  0  0
 10 14  1  0  0  0
 10 21  1  0  0  0
 11 17  1  0  0  0
 11 18  2  0  0  0
 12 16  1  0  0  0
 12 24  2  0  0  0
 13 15  2  0  0  0
 13 33  1  0  0  0
 14 30  1  0  0  0
 15 34  1  0  0  0
 16 22  2  0  0  0
 16 35  1  0  0  0
 17 22  1  0  0  0
 17 36  1  0  0  0
 18 26  1  0  0  0
 21 26  2  0  0  0
 21 37  1  0  0  0
 22 28  1  0  0  0
 23 38  1  0  0  0
 23 39  1  0  0  0
 24 25  1  0  0  0
 24 31  1  0  0  0
 25 28  2  0  0  0
 25 40  1  0  0  0
 26 41  1  0  0  0
 27 42  1  0  0  0
 27 43  1  0  0  0
 27 44  1  0  0  0
 28 45  1  0  0  0
 29 46  1  0  0  0
 29 47  1  0  0  0
 29 48  1  0  0  0
 30 49  1  0  0  0
 30 50  1  0  0  0
 30 51  1  0  0  0
 31 52  1  0  0  0
 31 53  1  0  0  0
 31 54  1  0  0  0
M  END
> <s_m_entry_id>
5876

> <s_m_entry_name>
dock_pv.271

> <s_m_Source_Path>
/home/csk/Desktop/cluster/DUD-E-result/igf1r

> <s_m_Source_File>
dock_pv.maegz

> <i_m_Source_File_Index>
271

> <chembl_id>
CHEMBL477772

> <chembl_pref_name>
PAZOPANIB

> <i_lp_mmshare_version>
53161

> <r_lp_tautomer_probability>
0.999999648617924

> <s_lp_Force_Field>
OPLS_2005

> <r_lp_Energy>
37.494439

> <b_lp_Chiralities_Consistent>
1

> <s_lp_Variant>
CHEMBL1957_lig2788-1

> <s_i_glide_gridfile>
glide-grid_2oj9

> <i_i_glide_lignum>
3857

> <i_i_glide_rotatable_bonds>
5

> <r_i_docking_score>
-6.95460199211362

> <r_i_glide_ligand_efficiency>
-0.224341999745601

> <r_i_glide_ligand_efficiency_sa>
-0.704743616712931

> <r_i_glide_ligand_efficiency_ln>
-1.56847588217638

> <r_i_glide_gscore>
-6.95460199211362

> <r_i_glide_lipo>
-3.66772056748913

> <r_i_glide_hbond>
-0.412975113465072

> <r_i_glide_metal>
0

> <r_i_glide_rewards>
-0.105444566082117

> <r_i_glide_evdw>
-45.6852226257324

> <r_i_glide_ecoul>
-5.78748273849487

> <r_i_glide_erotb>
0.416711323412043

> <r_i_glide_esite>
-0.0327895264284903

> <r_i_glide_emodel>
-60.323678421865

> <r_i_glide_energy>
-51.4727053642273

> <r_i_glide_einternal>
11.4410972595215

> <i_i_glide_confnum>
2

> <i_i_glide_posenum>
41

> <r_i_glide_eff_state_penalty>
0

> <s_user_duplicate_titles>
CHEMBL1957_lig2788

> <i_f3d_flags>
0

> <s_m_subgroup_title>
dock_pv

> <s_m_subgroupid>
dock_pv

> <b_m_subgroup_collapsed>
1

$$$$
CHEMBL1957_lig823
                    3D
 Schrodinger Suite 2021-1.
 39 42  0  0  1  0            999 V2000
    3.9577   -1.6146   18.7852 N   0  0  0  0  0  0
    4.4579   -2.1426   19.9259 C   0  0  0  0  0  0
    4.2453   -3.4093   20.3653 N   0  0  0  0  0  0
    3.5505   -4.2439   19.5527 C   0  0  0  0  0  0
    3.0177   -3.7924   18.3429 C   0  0  0  0  0  0
    3.2382   -2.4561   18.0039 C   0  0  0  0  0  0
    3.4772   -5.6180   19.8361 N   0  0  0  0  0  0
    4.2344   -6.4311   20.7017 C   0  0  0  0  0  0
    4.8381   -5.9711   21.8759 C   0  0  0  0  0  0
    5.2249   -8.6259   21.0380 N   0  0  0  0  0  0
    4.4428   -7.7636   20.3427 C   0  0  0  0  0  0
    5.8165   -8.1818   22.1811 C   0  0  0  0  0  0
    5.6455   -6.8426   22.6445 C   0  0  0  0  0  0
    6.2887   -6.4343   23.8383 C   0  0  0  0  0  0
    7.0948   -7.3284   24.5370 C   0  0  0  0  0  0
    7.2598   -8.6353   24.0865 C   0  0  0  0  0  0
    6.6291   -9.0714   22.9234 C   0  0  0  0  0  0
    5.3097   -1.3124   20.6564 N   0  0  0  0  0  0
    6.0693   -1.6296   21.7918 C   0  0  0  0  0  0
    6.0376   -0.7596   22.8781 C   0  0  0  0  0  0
    6.6751   -1.0809   24.0702 C   0  0  0  0  0  0
    7.4566   -2.2340   24.1419 C   0  0  0  0  0  0
    7.5478   -3.0876   23.0415 C   0  0  0  0  0  0
    6.8381   -2.7976   21.8762 C   0  0  0  0  0  0
    6.4421   -0.0550   25.4382 Cl  0  0  0  0  0  0
    2.4775   -4.4454   17.6729 H   0  0  0  0  0  0
    2.8434   -2.0535   17.0807 H   0  0  0  0  0  0
    3.0043   -6.1353   19.1148 H   0  0  0  0  0  0
    4.7095   -4.9596   22.2220 H   0  0  0  0  0  0
    4.0105   -8.1651   19.4380 H   0  0  0  0  0  0
    6.1589   -5.4233   24.1974 H   0  0  0  0  0  0
    7.5937   -7.0051   25.4377 H   0  0  0  0  0  0
    7.8826   -9.3160   24.6475 H   0  0  0  0  0  0
    6.7576  -10.0891   22.5837 H   0  0  0  0  0  0
    5.4895   -0.4182   20.2266 H   0  0  0  0  0  0
    5.4674    0.1522   22.8193 H   0  0  0  0  0  0
    7.9970   -2.4743   25.0422 H   0  0  0  0  0  0
    8.1555   -3.9790   23.0964 H   0  0  0  0  0  0
    6.8910   -3.4758   21.0366 H   0  0  0  0  0  0
  1  6  1  0  0  0
  1  2  2  0  0  0
  2 18  1  0  0  0
  2  3  1  0  0  0
  3  4  2  0  0  0
  4  7  1  0  0  0
  4  5  1  0  0  0
  5  6  2  0  0  0
  5 26  1  0  0  0
  6 27  1  0  0  0
  7  8  1  0  0  0
  7 28  1  0  0  0
  8  9  2  0  0  0
  8 11  1  0  0  0
  9 13  1  0  0  0
  9 29  1  0  0  0
 10 12  1  0  0  0
 10 11  2  0  0  0
 11 30  1  0  0  0
 12 13  1  0  0  0
 12 17  2  0  0  0
 13 14  2  0  0  0
 14 15  1  0  0  0
 14 31  1  0  0  0
 15 16  2  0  0  0
 15 32  1  0  0  0
 16 17  1  0  0  0
 16 33  1  0  0  0
 17 34  1  0  0  0
 18 19  1  0  0  0
 18 35  1  0  0  0
 19 20  2  0  0  0
 19 24  1  0  0  0
 20 21  1  0  0  0
 20 36  1  0  0  0
 21 22  2  0  0  0
 21 25  1  0  0  0
 22 23  1  0  0  0
 22 37  1  0  0  0
 23 24  2  0  0  0
 23 38  1  0  0  0
 24 39  1  0  0  0
M  END
> <s_m_entry_id>
5878

> <s_m_entry_name>
dock_pv.273

> <s_m_Source_Path>
/home/csk/Desktop/cluster/DUD-E-result/igf1r

> <s_m_Source_File>
dock_pv.maegz

> <i_m_Source_File_Index>
273

> <chembl_id>
CHEMBL1760054

> <chembl_pref_name>
None

> <i_lp_mmshare_version>
53161

> <r_lp_tautomer_probability>
0.999999624730965

> <s_lp_Force_Field>
OPLS_2005

> <r_lp_Energy>
13.382451

> <b_lp_Chiralities_Consistent>
1

> <s_lp_Variant>
CHEMBL1957_lig823-1

> <s_i_glide_gridfile>
glide-grid_2oj9

> <i_i_glide_lignum>
1054

> <i_i_glide_rotatable_bonds>
4

> <r_i_docking_score>
-6.95349392728564

> <r_i_glide_ligand_efficiency>
-0.278139757091426

> <r_i_glide_ligand_efficiency_sa>
-0.813285582564925

> <r_i_glide_ligand_efficiency_ln>
-1.64818644016451

> <r_i_glide_gscore>
-6.95349392728564

> <r_i_glide_lipo>
-3.70108216918644

> <r_i_glide_hbond>
0

> <r_i_glide_metal>
0

> <r_i_glide_rewards>
-1.35475633490506

> <r_i_glide_evdw>
-43.0964393615723

> <r_i_glide_ecoul>
-2.48043775558472

> <r_i_glide_erotb>
0.629232208222181

> <r_i_glide_esite>
0

> <r_i_glide_emodel>
-58.9319675902007

> <r_i_glide_energy>
-45.576877117157

> <r_i_glide_einternal>
6.70566511154175

> <i_i_glide_confnum>
11

> <i_i_glide_posenum>
191

> <r_i_glide_eff_state_penalty>
0

> <s_user_duplicate_titles>
CHEMBL1957_lig823

> <i_f3d_flags>
0

> <s_m_subgroup_title>
dock_pv

> <s_m_subgroupid>
dock_pv

> <b_m_subgroup_collapsed>
1

$$$$
CHEMBL1957_lig100
                    3D
 Schrodinger Suite 2021-1.
 50 54  0  0  1  0            999 V2000
   10.1152   -7.3385   24.5892 N   0  0  0  0  0  0
    9.6133   -8.5804   24.4315 C   0  0  0  0  0  0
    8.3961   -8.8108   23.8052 C   0  0  0  0  0  0
    9.4051   -6.2835   24.1314 C   0  0  0  0  0  0
    8.1310   -6.4093   23.5480 C   0  0  0  0  0  0
    7.6781   -7.7281   23.3566 N   0  0  0  0  0  0
    6.4803   -7.6136   22.6790 C   0  0  0  0  0  0
    6.1142   -6.3517   22.5713 N   0  0  0  0  0  0
    7.0691   -5.5871   23.0667 C   0  0  0  0  0  0
    5.5905   -8.7783   22.2627 C   0  0  0  0  0  0
    4.9936   -8.7178   20.8440 C   0  0  0  0  0  0
    5.1116  -10.2461   20.8008 C   0  0  0  0  0  0
    6.2407  -10.1069   21.8275 C   0  0  0  0  0  0
   10.0381   -5.0613   24.2337 N   0  0  0  0  0  0
    6.9031   -4.0989   23.1506 C   0  0  0  0  0  0
    6.2157   -3.3857   22.1631 C   0  0  0  0  0  0
    5.9825   -2.0045   22.2917 C   0  0  0  0  0  0
    6.4792   -1.3353   23.4074 C   0  0  0  0  0  0
    7.2278   -2.0181   24.3586 C   0  0  0  0  0  0
    7.4235   -3.3919   24.2380 C   0  0  0  0  0  0
    5.2382   -1.2544   21.4070 O   0  0  0  0  0  0
    5.3168   -1.5378   20.0172 C   0  0  0  0  0  0
    3.9050   -1.7042   19.4050 C   0  0  0  0  0  0
    3.5528   -3.1043   19.2378 N   0  0  0  0  0  0
    3.2486   -3.7710   18.0759 C   0  0  0  0  0  0
    3.0982   -5.0633   18.2385 N   0  0  0  0  0  0
    3.2380   -5.2530   19.5375 C   0  0  0  0  0  0
    3.4740   -4.0636   20.2086 C   0  0  0  0  0  0
   10.2179   -9.3981   24.7988 H   0  0  0  0  0  0
    7.9882   -9.7968   23.6665 H   0  0  0  0  0  0
    4.8381   -8.9425   23.0357 H   0  0  0  0  0  0
    3.9854   -8.3173   20.7579 H   0  0  0  0  0  0
    5.6376   -8.2315   20.1101 H   0  0  0  0  0  0
    4.2356  -10.7746   21.1847 H   0  0  0  0  0  0
    5.3954  -10.6734   19.8382 H   0  0  0  0  0  0
    7.2165  -10.0017   21.3466 H   0  0  0  0  0  0
    6.2680  -10.8938   22.5820 H   0  0  0  0  0  0
    9.6939   -4.2902   23.6793 H   0  0  0  0  0  0
   11.0091   -5.1142   24.4945 H   0  0  0  0  0  0
    5.8420   -3.9345   21.3154 H   0  0  0  0  0  0
    6.3055   -0.2756   23.5199 H   0  0  0  0  0  0
    7.6362   -1.4862   25.2046 H   0  0  0  0  0  0
    7.9485   -3.9110   25.0263 H   0  0  0  0  0  0
    5.9594   -2.3934   19.8379 H   0  0  0  0  0  0
    5.8178   -0.6889   19.5496 H   0  0  0  0  0  0
    3.8525   -1.2217   18.4282 H   0  0  0  0  0  0
    3.1423   -1.2537   20.0375 H   0  0  0  0  0  0
    3.2378   -3.2426   17.1332 H   0  0  0  0  0  0
    3.2016   -6.2360   19.9787 H   0  0  0  0  0  0
    3.6423   -3.8164   21.2440 H   0  0  0  0  0  0
  1  2  1  0  0  0
  1  4  2  0  0  0
  2  3  2  0  0  0
  2 29  1  0  0  0
  3  6  1  0  0  0
  3 30  1  0  0  0
  4 14  1  0  0  0
  4  5  1  0  0  0
  5  9  2  0  0  0
  5  6  1  0  0  0
  6  7  1  0  0  0
  7  8  2  0  0  0
  7 10  1  0  0  0
  8  9  1  0  0  0
  9 15  1  0  0  0
 10 13  1  0  0  0
 10 11  1  0  0  0
 10 31  1  0  0  0
 11 12  1  0  0  0
 11 32  1  0  0  0
 11 33  1  0  0  0
 12 13  1  0  0  0
 12 34  1  0  0  0
 12 35  1  0  0  0
 13 36  1  0  0  0
 13 37  1  0  0  0
 14 38  1  0  0  0
 14 39  1  0  0  0
 15 16  2  0  0  0
 15 20  1  0  0  0
 16 17  1  0  0  0
 16 40  1  0  0  0
 17 18  2  0  0  0
 17 21  1  0  0  0
 18 19  1  0  0  0
 18 41  1  0  0  0
 19 20  2  0  0  0
 19 42  1  0  0  0
 20 43  1  0  0  0
 21 22  1  0  0  0
 22 23  1  0  0  0
 22 44  1  0  0  0
 22 45  1  0  0  0
 23 24  1  0  0  0
 23 46  1  0  0  0
 23 47  1  0  0  0
 24 25  1  0  0  0
 24 28  1  0  0  0
 25 26  2  0  0  0
 25 48  1  0  0  0
 26 27  1  0  0  0
 27 28  2  0  0  0
 27 49  1  0  0  0
 28 50  1  0  0  0
M  END
> <s_m_entry_id>
5879

> <s_m_entry_name>
dock_pv.274

> <s_m_Source_Path>
/home/csk/Desktop/cluster/DUD-E-result/igf1r

> <s_m_Source_File>
dock_pv.maegz

> <i_m_Source_File_Index>
274

> <chembl_id>
CHEMBL248493

> <chembl_pref_name>
None

> <i_lp_mmshare_version>
53161

> <r_lp_tautomer_probability>
1

> <s_lp_Force_Field>
OPLS_2005

> <r_lp_Energy>
38.356264

> <b_lp_Chiralities_Consistent>
1

> <s_lp_Variant>
CHEMBL1957_lig100-1

> <s_i_glide_gridfile>
glide-grid_2oj9

> <i_i_glide_lignum>
265

> <i_i_glide_rotatable_bonds>
6

> <r_i_docking_score>
-6.95345135240533

> <r_i_glide_ligand_efficiency>
-0.24833754830019

> <r_i_glide_ligand_efficiency_sa>
-0.754099059633393

> <r_i_glide_ligand_efficiency_ln>
-1.60506073433826

> <r_i_glide_gscore>
-6.95345135240533

> <r_i_glide_lipo>
-2.97670960578638

> <r_i_glide_hbond>
-0.139584495305522

> <r_i_glide_metal>
0

> <r_i_glide_rewards>
-2.15445391176794

> <r_i_glide_evdw>
-41.5543403625488

> <r_i_glide_ecoul>
-1.9636697769165

> <r_i_glide_erotb>
0.689564145119434

> <r_i_glide_esite>
0

> <r_i_glide_emodel>
-53.1479390748903

> <r_i_glide_energy>
-43.5180101394653

> <r_i_glide_einternal>
10.2243928909302

> <i_i_glide_confnum>
64

> <i_i_glide_posenum>
400

> <r_i_glide_eff_state_penalty>
0

> <s_user_duplicate_titles>
CHEMBL1957_lig100

> <i_f3d_flags>
0

> <s_m_subgroup_title>
dock_pv

> <s_m_subgroupid>
dock_pv

> <b_m_subgroup_collapsed>
1

$$$$
CHEMBL1957_lig2717
                    3D
 Schrodinger Suite 2021-1.
 42 45  0  0  1  0            999 V2000
    5.0676   -5.8546   22.4764 N   0  0  0  0  0  0
    3.1589   -2.7209   18.2393 N   0  0  0  0  0  0
   10.4435   -5.2537   23.8357 N   0  0  0  0  0  0
    6.2707   -3.2827   22.0540 C   0  0  0  0  0  0
    5.0662   -3.7646   21.2407 C   0  0  0  0  0  0
    7.0164   -4.4474   22.7160 C   0  0  0  0  0  0
    4.5554   -5.0683   21.4379 C   0  0  0  0  0  0
    6.3776   -5.6878   22.9297 C   0  0  0  0  0  0
    6.0603   -2.0207   22.9035 C   0  0  0  0  0  0
    4.5125   -2.9751   20.2201 C   0  0  0  0  0  0
    8.3621   -4.3144   23.0711 C   0  0  0  0  0  0
    3.6975   -5.6101   20.4637 C   0  0  0  0  0  0
    7.1453   -6.7843   23.3607 C   0  0  0  0  0  0
    3.6123   -3.5033   19.2998 C   0  0  0  0  0  0
    9.0946   -5.3976   23.5471 C   0  0  0  0  0  0
    3.2380   -4.8371   19.4021 C   0  0  0  0  0  0
    8.4891   -6.6384   23.6836 C   0  0  0  0  0  0
    6.0394   -0.7823   22.2571 C   0  0  0  0  0  0
    6.0550   -2.0533   24.3031 C   0  0  0  0  0  0
    4.3101   -7.0288   22.9169 C   0  0  0  0  0  0
    6.0380    0.3943   22.9914 C   0  0  0  0  0  0
    6.0344   -0.8630   25.0380 C   0  0  0  0  0  0
    6.0382    0.3572   24.3791 C   0  0  0  0  0  0
    2.5978   -3.1504   17.5128 H   0  0  0  0  0  0
    3.6825   -1.8874   18.0170 H   0  0  0  0  0  0
   11.0204   -6.0376   23.5479 H   0  0  0  0  0  0
   10.8083   -4.3368   23.6001 H   0  0  0  0  0  0
    6.9850   -2.9520   21.2958 H   0  0  0  0  0  0
    4.8622   -1.9692   20.0605 H   0  0  0  0  0  0
    8.8381   -3.3557   22.9328 H   0  0  0  0  0  0
    3.4031   -6.6433   20.5114 H   0  0  0  0  0  0
    6.7101   -7.7677   23.4524 H   0  0  0  0  0  0
    2.5854   -5.2801   18.6656 H   0  0  0  0  0  0
    9.0575   -7.4909   24.0263 H   0  0  0  0  0  0
    6.1129   -0.7112   21.1835 H   0  0  0  0  0  0
    6.0891   -3.0002   24.8217 H   0  0  0  0  0  0
    4.4982   -7.2559   23.9676 H   0  0  0  0  0  0
    3.2382   -6.8545   22.8219 H   0  0  0  0  0  0
    4.5773   -7.9011   22.3202 H   0  0  0  0  0  0
    6.0877    1.3393   22.4737 H   0  0  0  0  0  0
    6.0382   -0.8549   26.1165 H   0  0  0  0  0  0
    6.0602    1.2754   24.9479 H   0  0  0  0  0  0
  1  7  1  0  0  0
  1  8  1  0  0  0
  1 20  1  0  0  0
  2 14  1  0  0  0
  2 24  1  0  0  0
  2 25  1  0  0  0
  3 15  1  0  0  0
  3 26  1  0  0  0
  3 27  1  0  0  0
  4  5  1  0  0  0
  4  6  1  0  0  0
  4  9  1  0  0  0
  4 28  1  0  0  0
  5  7  1  0  0  0
  5 10  2  0  0  0
  6  8  1  0  0  0
  6 11  2  0  0  0
  7 12  2  0  0  0
  8 13  2  0  0  0
  9 18  2  0  0  0
  9 19  1  0  0  0
 10 14  1  0  0  0
 10 29  1  0  0  0
 11 15  1  0  0  0
 11 30  1  0  0  0
 12 16  1  0  0  0
 12 31  1  0  0  0
 13 17  1  0  0  0
 13 32  1  0  0  0
 14 16  2  0  0  0
 15 17  2  0  0  0
 16 33  1  0  0  0
 17 34  1  0  0  0
 18 21  1  0  0  0
 18 35  1  0  0  0
 19 22  2  0  0  0
 19 36  1  0  0  0
 20 37  1  0  0  0
 20 38  1  0  0  0
 20 39  1  0  0  0
 21 23  2  0  0  0
 21 40  1  0  0  0
 22 23  1  0  0  0
 22 41  1  0  0  0
 23 42  1  0  0  0
M  END
> <s_m_entry_id>
5880

> <s_m_entry_name>
dock_pv.275

> <s_m_Source_Path>
/home/csk/Desktop/cluster/DUD-E-result/igf1r

> <s_m_Source_File>
dock_pv.maegz

> <i_m_Source_File_Index>
275

> <chembl_id>
CHEMBL1991734

> <chembl_pref_name>
None

> <i_lp_mmshare_version>
53161

> <r_lp_tautomer_probability>
1

> <s_lp_Force_Field>
OPLS_2005

> <r_lp_Energy>
20.840856

> <b_lp_Chiralities_Consistent>
1

> <s_lp_Variant>
CHEMBL1957_lig2717-1

> <s_i_glide_gridfile>
glide-grid_2oj9

> <i_i_glide_lignum>
3761

> <i_i_glide_rotatable_bonds>
1

> <r_i_docking_score>
-6.95213971214334

> <r_i_glide_ligand_efficiency>
-0.302266944006232

> <r_i_glide_ligand_efficiency_sa>
-0.859606980261534

> <r_i_glide_ligand_efficiency_ln>
-1.6810904209139

> <r_i_glide_gscore>
-6.95213971214334

> <r_i_glide_lipo>
-2.9163098839683

> <r_i_glide_hbond>
-0.498901830128479

> <r_i_glide_metal>
0

> <r_i_glide_rewards>
-1.7691610698173

> <r_i_glide_evdw>
-28.2205028533936

> <r_i_glide_ecoul>
-3.72846007347107

> <r_i_glide_erotb>
0.202527225461087

> <r_i_glide_esite>
0

> <r_i_glide_emodel>
-40.9636425486581

> <r_i_glide_energy>
-31.9489629268646

> <r_i_glide_einternal>
2.29490232467651

> <i_i_glide_confnum>
3

> <i_i_glide_posenum>
86

> <r_i_glide_eff_state_penalty>
0

> <s_user_duplicate_titles>
CHEMBL1957_lig2717

> <i_f3d_flags>
0

> <s_m_subgroup_title>
dock_pv

> <s_m_subgroupid>
dock_pv

> <b_m_subgroup_collapsed>
1

$$$$
CHEMBL1957_lig3141
                    3D
 Schrodinger Suite 2021-1.
 50 52  0  0  1  0            999 V2000
    8.4344   -7.1973   23.2632 S   0  0  0  0  0  0
    7.5531   -7.8675   24.2232 O   0  0  0  0  0  0
    8.2201   -7.3058   21.8171 O   0  0  0  0  0  0
    5.6481   -9.6280   21.9050 O   0  0  0  0  0  0
    7.8278  -11.2375   21.4929 O   0  0  0  0  0  0
    5.2063   -3.3925   21.4849 N   0  0  0  0  0  0
    6.9111   -2.1921   22.6242 N   0  0  0  0  0  0
    3.6380   -4.6830   20.2488 N   0  0  0  0  0  0
    5.7117   -1.1188   20.9228 N   0  0  0  0  0  0
   10.0376   -7.7780   23.5925 N   0  0  0  0  0  0
    6.8379  -12.3487   19.8388 N   0  0  0  0  0  0
    8.4341   -5.4584   23.6870 C   0  0  0  0  0  0
    4.2760   -3.4495   20.4947 C   0  0  0  0  0  0
    5.9050   -2.2471   21.6495 C   0  0  0  0  0  0
    7.6374   -3.1846   23.3146 C   0  0  0  0  0  0
    7.6604   -4.5435   22.9576 C   0  0  0  0  0  0
    4.0383   -2.3397   19.6653 C   0  0  0  0  0  0
    4.0373   -5.9550   20.7081 C   0  0  0  0  0  0
    9.2147   -5.0139   24.7553 C   0  0  0  0  0  0
    8.4225   -2.7666   24.3917 C   0  0  0  0  0  0
    4.7892   -1.1861   19.9271 C   0  0  0  0  0  0
    9.2209   -3.6655   25.0974 C   0  0  0  0  0  0
    4.4778   -6.1862   22.0140 C   0  0  0  0  0  0
    4.0420   -7.0077   19.8028 C   0  0  0  0  0  0
    5.0996   -8.4495   21.4386 C   0  0  0  0  0  0
    5.0013   -7.4199   22.3712 C   0  0  0  0  0  0
    4.5920   -8.2417   20.1506 C   0  0  0  0  0  0
    3.1018   -2.3891   18.4672 C   0  0  0  0  0  0
    5.4514  -10.8663   21.2154 C   0  0  0  0  0  0
    6.8078  -11.4932   20.8591 C   0  0  0  0  0  0
    7.3003   -1.2679   22.7193 H   0  0  0  0  0  0
    3.0352   -4.6815   19.4416 H   0  0  0  0  0  0
   10.0535   -8.7875   23.7478 H   0  0  0  0  0  0
   10.7133   -7.5159   22.8551 H   0  0  0  0  0  0
    6.0236  -12.4678   19.2469 H   0  0  0  0  0  0
    7.7131  -12.7862   19.5954 H   0  0  0  0  0  0
    7.0919   -4.9029   22.1144 H   0  0  0  0  0  0
    9.8140   -5.7117   25.3228 H   0  0  0  0  0  0
    8.4376   -1.7269   24.6781 H   0  0  0  0  0  0
    4.6840   -0.2991   19.3188 H   0  0  0  0  0  0
    9.8273   -3.3180   25.9210 H   0  0  0  0  0  0
    4.4384   -5.4114   22.7635 H   0  0  0  0  0  0
    3.6872   -6.8542   18.7948 H   0  0  0  0  0  0
    5.3221   -7.5821   23.3875 H   0  0  0  0  0  0
    4.6350   -9.0047   19.3915 H   0  0  0  0  0  0
    3.2338   -1.5202   17.8216 H   0  0  0  0  0  0
    3.3099   -3.2683   17.8556 H   0  0  0  0  0  0
    2.0656   -2.4532   18.7942 H   0  0  0  0  0  0
    4.7884  -10.8412   20.3530 H   0  0  0  0  0  0
    4.9636  -11.5453   21.9145 H   0  0  0  0  0  0
  1  2  2  0  0  0
  1  3  2  0  0  0
  1 10  1  0  0  0
  1 12  1  0  0  0
  4 25  1  0  0  0
  4 29  1  0  0  0
  5 30  2  0  0  0
  6 13  2  0  0  0
  6 14  1  0  0  0
  7 14  1  0  0  0
  7 15  1  0  0  0
  7 31  1  0  0  0
  8 13  1  0  0  0
  8 18  1  0  0  0
  8 32  1  0  0  0
  9 14  2  0  0  0
  9 21  1  0  0  0
 10 33  1  0  0  0
 10 34  1  0  0  0
 11 30  1  0  0  0
 11 35  1  0  0  0
 11 36  1  0  0  0
 12 16  2  0  0  0
 12 19  1  0  0  0
 13 17  1  0  0  0
 15 16  1  0  0  0
 15 20  2  0  0  0
 16 37  1  0  0  0
 17 21  2  0  0  0
 17 28  1  0  0  0
 18 23  2  0  0  0
 18 24  1  0  0  0
 19 22  2  0  0  0
 19 38  1  0  0  0
 20 22  1  0  0  0
 20 39  1  0  0  0
 21 40  1  0  0  0
 22 41  1  0  0  0
 23 26  1  0  0  0
 23 42  1  0  0  0
 24 27  2  0  0  0
 24 43  1  0  0  0
 25 26  2  0  0  0
 25 27  1  0  0  0
 26 44  1  0  0  0
 27 45  1  0  0  0
 28 46  1  0  0  0
 28 47  1  0  0  0
 28 48  1  0  0  0
 29 30  1  0  0  0
 29 49  1  0  0  0
 29 50  1  0  0  0
M  END
> <s_m_entry_id>
5881

> <s_m_entry_name>
dock_pv.276

> <s_m_Source_Path>
/home/csk/Desktop/cluster/DUD-E-result/igf1r

> <s_m_Source_File>
dock_pv.maegz

> <i_m_Source_File_Index>
276

> <chembl_id>
CHEMBL1988838

> <chembl_pref_name>
None

> <i_lp_mmshare_version>
53161

> <r_lp_tautomer_probability>
0.999999624730965

> <s_lp_Force_Field>
OPLS_2005

> <r_lp_Energy>
25.486837

> <b_lp_Chiralities_Consistent>
1

> <s_lp_Variant>
CHEMBL1957_lig3141-1

> <s_i_glide_gridfile>
glide-grid_2oj9

> <i_i_glide_lignum>
4365

> <i_i_glide_rotatable_bonds>
8

> <r_i_docking_score>
-6.95184115428904

> <r_i_glide_ligand_efficiency>
-0.231728038476301

> <r_i_glide_ligand_efficiency_sa>
-0.720032892878165

> <r_i_glide_ligand_efficiency_ln>
-1.57953405663065

> <r_i_glide_gscore>
-6.95184115428904

> <r_i_glide_lipo>
-3.12848743687241

> <r_i_glide_hbond>
-0.456

> <r_i_glide_metal>
0

> <r_i_glide_rewards>
-0.586719289289737

> <r_i_glide_evdw>
-42.6246490478516

> <r_i_glide_ecoul>
-8.25182819366455

> <r_i_glide_erotb>
0.649208357312815

> <r_i_glide_esite>
-0.0608361039974426

> <r_i_glide_emodel>
-62.2749448996981

> <r_i_glide_energy>
-50.8764772415161

> <r_i_glide_einternal>
11.356803894043

> <i_i_glide_confnum>
6

> <i_i_glide_posenum>
272

> <r_i_glide_eff_state_penalty>
0

> <s_user_duplicate_titles>
CHEMBL1957_lig3141

> <i_f3d_flags>
0

> <s_m_subgroup_title>
dock_pv

> <s_m_subgroupid>
dock_pv

> <b_m_subgroup_collapsed>
1

$$$$
CHEMBL1957_lig2141
                    3D
 Schrodinger Suite 2021-1.
 39 42  0  0  1  0            999 V2000
    4.4382   -7.5640   20.6192 C   0  0  0  0  0  0
    5.6033   -8.0793   21.4387 C   0  0  0  0  0  0
    6.4827   -7.4385   22.3048 C   0  0  0  0  0  0
    7.3496   -8.4396   22.7566 C   0  0  0  0  0  0
    8.4984   -8.1304   23.7091 C   0  0  0  0  0  0
    8.0879   -6.9489   24.6326 C   0  0  0  0  0  0
    7.4532   -5.7879   23.8615 C   0  0  0  0  0  0
    7.6200   -4.4430   24.2102 C   0  0  0  0  0  0
    6.9941   -3.4254   23.5616 N   0  0  0  0  0  0
    6.1905   -3.7658   22.5235 C   0  0  0  0  0  0
    5.5660   -2.6876   21.8787 N   0  0  0  0  0  0
    4.7596   -2.5989   20.7291 C   0  0  0  0  0  0
    3.9602   -3.6678   20.3020 C   0  0  0  0  0  0
    3.2386   -3.5891   19.1153 C   0  0  0  0  0  0
    3.2709   -2.4252   18.3563 C   0  0  0  0  0  0
    4.0381   -1.3447   18.7815 C   0  0  0  0  0  0
    4.7795   -1.4224   19.9610 C   0  0  0  0  0  0
    5.7114   -0.0434   20.4429 Cl  0  0  0  0  0  0
    5.9854   -5.0342   22.0837 N   0  0  0  0  0  0
    6.6209   -6.0285   22.7539 C   0  0  0  0  0  0
    7.0531   -9.6189   22.2669 N   0  0  0  0  0  0
    6.0073   -9.3984   21.4564 N   0  0  0  0  0  0
    5.4190  -10.5277   20.7539 C   0  0  0  0  0  0
    3.7217   -7.0371   21.2502 H   0  0  0  0  0  0
    4.7744   -6.8586   19.8592 H   0  0  0  0  0  0
    3.8897   -8.3507   20.1025 H   0  0  0  0  0  0
    9.3983   -7.8758   23.1497 H   0  0  0  0  0  0
    8.7575   -9.0058   24.3054 H   0  0  0  0  0  0
    8.9522   -6.6026   25.2016 H   0  0  0  0  0  0
    7.3669   -7.3032   25.3721 H   0  0  0  0  0  0
    8.2528   -4.1637   25.0383 H   0  0  0  0  0  0
    5.9008   -1.7977   22.2161 H   0  0  0  0  0  0
    3.8958   -4.5784   20.8735 H   0  0  0  0  0  0
    2.6472   -4.4301   18.7832 H   0  0  0  0  0  0
    2.7095   -2.3609   17.4380 H   0  0  0  0  0  0
    4.0738   -0.4537   18.1755 H   0  0  0  0  0  0
    5.2631  -10.2667   19.7060 H   0  0  0  0  0  0
    6.0744  -11.3989   20.7975 H   0  0  0  0  0  0
    4.4612  -10.7771   21.2130 H   0  0  0  0  0  0
  1  2  1  0  0  0
  1 24  1  0  0  0
  1 25  1  0  0  0
  1 26  1  0  0  0
  2  3  2  0  0  0
  2 22  1  0  0  0
  3  4  1  0  0  0
  3 20  1  0  0  0
  4  5  1  0  0  0
  4 21  2  0  0  0
  5  6  1  0  0  0
  5 27  1  0  0  0
  5 28  1  0  0  0
  6  7  1  0  0  0
  6 29  1  0  0  0
  6 30  1  0  0  0
  7  8  2  0  0  0
  7 20  1  0  0  0
  8  9  1  0  0  0
  8 31  1  0  0  0
  9 10  2  0  0  0
 10 11  1  0  0  0
 10 19  1  0  0  0
 11 12  1  0  0  0
 11 32  1  0  0  0
 12 13  2  0  0  0
 12 17  1  0  0  0
 13 14  1  0  0  0
 13 33  1  0  0  0
 14 15  2  0  0  0
 14 34  1  0  0  0
 15 16  1  0  0  0
 15 35  1  0  0  0
 16 17  2  0  0  0
 16 36  1  0  0  0
 17 18  1  0  0  0
 19 20  2  0  0  0
 21 22  1  0  0  0
 22 23  1  0  0  0
 23 37  1  0  0  0
 23 38  1  0  0  0
 23 39  1  0  0  0
M  END
> <s_m_entry_id>
5882

> <s_m_entry_name>
dock_pv.277

> <s_m_Source_Path>
/home/csk/Desktop/cluster/DUD-E-result/igf1r

> <s_m_Source_File>
dock_pv.maegz

> <i_m_Source_File_Index>
277

> <chembl_id>
CHEMBL3656584

> <chembl_pref_name>
None

> <i_lp_mmshare_version>
53161

> <r_lp_tautomer_probability>
0.999999987636

> <s_lp_Force_Field>
OPLS_2005

> <r_lp_Energy>
8.910707

> <b_lp_Chiralities_Consistent>
1

> <s_lp_Variant>
CHEMBL1957_lig2141-1

> <s_i_glide_gridfile>
glide-grid_2oj9

> <i_i_glide_lignum>
3115

> <i_i_glide_rotatable_bonds>
2

> <r_i_docking_score>
-6.95130287788349

> <r_i_glide_ligand_efficiency>
-0.302230559907978

> <r_i_glide_ligand_efficiency_sa>
-0.859503508726025

> <r_i_glide_ligand_efficiency_ln>
-1.68088806680188

> <r_i_glide_gscore>
-6.95130287788349

> <r_i_glide_lipo>
-3.06883202880984

> <r_i_glide_hbond>
0

> <r_i_glide_metal>
0

> <r_i_glide_rewards>
-1.98950740260737

> <r_i_glide_evdw>
-39.6385612487793

> <r_i_glide_ecoul>
-1.76173233985901

> <r_i_glide_erotb>
0.353224466951549

> <r_i_glide_esite>
0

> <r_i_glide_emodel>
-58.3992374571667

> <r_i_glide_energy>
-41.4002935886383

> <r_i_glide_einternal>
0.0742856487631798

> <i_i_glide_confnum>
4

> <i_i_glide_posenum>
305

> <r_i_glide_eff_state_penalty>
0

> <s_user_duplicate_titles>
CHEMBL1957_lig2141

> <i_f3d_flags>
0

> <s_m_subgroup_title>
dock_pv

> <s_m_subgroupid>
dock_pv

> <b_m_subgroup_collapsed>
1

$$$$
CHEMBL1957_lig1050
                    3D
 Schrodinger Suite 2021-1.
 49 54  0  0  1  0            999 V2000
    6.0394  -11.5038   20.9114 C   0  0  0  0  0  0
    4.9643  -10.4651   20.5770 C   0  0  0  0  0  0
    6.8325  -10.9421   22.0916 C   0  0  0  0  0  0
    6.9029   -7.2222   22.3931 C   0  0  0  0  0  0
    3.7666   -4.9882   20.4770 C   0  0  0  0  0  0
    5.1380   -7.8322   20.9967 C   0  0  0  0  0  0
    7.3126   -8.4995   22.6054 N   0  0  0  0  0  0
    3.3103   -3.9968   19.6297 C   0  0  0  0  0  0
    5.5276   -9.1751   21.1238 C   0  0  0  0  0  0
    4.0851   -7.4702   20.1333 N   0  0  0  0  0  0
    7.6468   -6.1978   22.9834 N   0  0  0  0  0  0
    6.6012   -9.4569   21.9679 C   0  0  0  0  0  0
    3.6410   -6.2073   19.7943 C   0  0  0  0  0  0
    2.9314   -4.6894   18.5134 N   0  0  0  0  0  0
    3.0598   -6.0163   18.6329 N   0  0  0  0  0  0
    3.2609   -2.4926   19.7268 C   0  0  0  0  0  0
    5.8257   -6.8568   21.6474 N   0  0  0  0  0  0
    4.5274   -1.7229   20.0050 C   0  0  0  0  0  0
    3.8765   -1.6559   18.6379 C   0  0  0  0  0  0
    9.0229   -6.3135   23.4986 C   0  0  0  0  0  0
    9.5205   -4.8563   23.4976 C   0  0  2  0  0  0
    8.8307   -4.0743   24.6326 C   0  0  0  0  0  0
    7.3673   -4.0520   24.1446 C   0  0  0  0  0  0
    7.4584   -4.7566   22.7706 C   0  0  1  0  0  0
    8.8164   -4.3329   22.2559 C   0  0  0  0  0  0
    6.7019  -11.6213   20.0502 H   0  0  0  0  0  0
    5.6181  -12.4877   21.1215 H   0  0  0  0  0  0
    4.0384  -10.7275   21.0869 H   0  0  0  0  0  0
    4.7630  -10.4318   19.5061 H   0  0  0  0  0  0
    7.8857  -11.2204   22.0304 H   0  0  0  0  0  0
    6.4388  -11.3141   23.0393 H   0  0  0  0  0  0
    4.2324   -4.8337   21.4376 H   0  0  0  0  0  0
    3.7229   -8.2588   19.6208 H   0  0  0  0  0  0
    2.5467   -4.2548   17.6850 H   0  0  0  0  0  0
    2.3449   -2.1108   20.1784 H   0  0  0  0  0  0
    5.4602   -2.2769   20.1207 H   0  0  0  0  0  0
    4.4961   -0.8412   20.6384 H   0  0  0  0  0  0
    3.3648   -0.7460   18.3264 H   0  0  0  0  0  0
    4.3738   -2.1573   17.8101 H   0  0  0  0  0  0
    9.0570   -6.7254   24.5084 H   0  0  0  0  0  0
    9.6476   -6.8864   22.8110 H   0  0  0  0  0  0
   10.6081   -4.7606   23.4874 H   0  0  0  0  0  0
    8.9406   -4.5714   25.5978 H   0  0  0  0  0  0
    9.2359   -3.0655   24.7233 H   0  0  0  0  0  0
    7.0121   -3.0269   24.0382 H   0  0  0  0  0  0
    6.6905   -4.5739   24.8252 H   0  0  0  0  0  0
    6.6343   -4.5022   22.1034 H   0  0  0  0  0  0
    9.1199   -4.8286   21.3306 H   0  0  0  0  0  0
    8.8772   -3.2524   22.1138 H   0  0  0  0  0  0
  1  3  1  0  0  0
  1  2  1  0  0  0
  1 26  1  0  0  0
  1 27  1  0  0  0
  2  9  1  0  0  0
  2 28  1  0  0  0
  2 29  1  0  0  0
  3 12  1  0  0  0
  3 30  1  0  0  0
  3 31  1  0  0  0
  4  7  1  0  0  0
  4 11  1  0  0  0
  4 17  2  0  0  0
  5  8  2  0  0  0
  5 13  1  0  0  0
  5 32  1  0  0  0
  6  9  2  0  0  0
  6 10  1  0  0  0
  6 17  1  0  0  0
  7 12  2  0  0  0
  8 16  1  0  0  0
  8 14  1  0  0  0
  9 12  1  0  0  0
 10 13  1  0  0  0
 10 33  1  0  0  0
 11 20  1  0  0  0
 11 24  1  0  0  0
 13 15  2  0  0  0
 14 15  1  0  0  0
 14 34  1  0  0  0
 16 18  1  0  0  0
 16 19  1  0  0  0
 16 35  1  0  0  0
 18 19  1  0  0  0
 18 36  1  0  0  0
 18 37  1  0  0  0
 19 38  1  0  0  0
 19 39  1  0  0  0
 20 21  1  0  0  0
 20 40  1  0  0  0
 20 41  1  0  0  0
 21 22  1  0  0  0
 21 25  1  0  0  0
 21 42  1  0  0  0
 22 23  1  0  0  0
 22 43  1  0  0  0
 22 44  1  0  0  0
 23 24  1  0  0  0
 23 45  1  0  0  0
 23 46  1  0  0  0
 24 25  1  0  0  0
 24 47  1  0  0  0
 25 48  1  0  0  0
 25 49  1  0  0  0
M  END
> <s_m_entry_id>
5883

> <s_m_entry_name>
dock_pv.278

> <s_m_Source_Path>
/home/csk/Desktop/cluster/DUD-E-result/igf1r

> <s_m_Source_File>
dock_pv.maegz

> <i_m_Source_File_Index>
278

> <chembl_id>
CHEMBL3409723

> <chembl_pref_name>
None

> <i_lp_mmshare_version>
53161

> <r_lp_tautomer_probability>
0.842599982216935

> <s_lp_Force_Field>
OPLS_2005

> <r_lp_Energy>
73.968476

> <b_lp_Chiralities_Consistent>
1

> <s_lp_Variant>
CHEMBL1957_lig1050-2

> <s_i_glide_gridfile>
glide-grid_2oj9

> <i_i_glide_lignum>
1348

> <i_i_glide_rotatable_bonds>
4

> <r_i_docking_score>
-6.95096717796449

> <r_i_glide_ligand_efficiency>
-0.278038687118579

> <r_i_glide_ligand_efficiency_sa>
-0.812990052171839

> <r_i_glide_ligand_efficiency_ln>
-1.64758752485483

> <r_i_glide_gscore>
-6.95096717796449

> <r_i_glide_lipo>
-2.96750602915486

> <r_i_glide_hbond>
-0.183782923316073

> <r_i_glide_metal>
0

> <r_i_glide_rewards>
-2.32027891593435

> <r_i_glide_evdw>
-36.1761817932129

> <r_i_glide_ecoul>
-2.25348615646362

> <r_i_glide_erotb>
0.667432703570981

> <r_i_glide_esite>
0

> <r_i_glide_emodel>
-50.0312459094917

> <r_i_glide_energy>
-38.4296679496765

> <r_i_glide_einternal>
6.61085176467896

> <i_i_glide_confnum>
10

> <i_i_glide_posenum>
8

> <r_i_glide_eff_state_penalty>
0

> <s_user_duplicate_titles>
CHEMBL1957_lig1050

> <i_f3d_flags>
0

> <s_m_subgroup_title>
dock_pv

> <s_m_subgroupid>
dock_pv

> <b_m_subgroup_collapsed>
1

$$$$
CHEMBL1957_lig795
                    3D
 Schrodinger Suite 2021-1.
 48 50  0  0  1  0            999 V2000
    5.1452   -9.7195   20.4634 C   0  0  0  0  0  0
    5.2380   -8.3492   20.6678 C   0  0  0  0  0  0
    5.9332   -7.8404   21.7838 C   0  0  0  0  0  0
    6.4841   -8.7467   22.7094 C   0  0  0  0  0  0
    6.3990  -10.1183   22.4954 C   0  0  0  0  0  0
    5.7365  -10.5934   21.3688 C   0  0  0  0  0  0
    5.6988  -12.3199   21.0395 S   0  0  0  0  0  0
    7.3721  -12.7000   20.4494 C   0  0  0  0  0  0
    7.9184  -11.6540   19.8378 F   0  0  0  0  0  0
    7.3293  -13.6969   19.5727 F   0  0  0  0  0  0
    8.1596  -13.0519   21.4651 F   0  0  0  0  0  0
    6.0995   -6.4339   21.9645 N   0  0  0  0  0  0
    7.2437   -5.8590   22.4160 C   0  0  0  0  0  0
    6.9439   -4.3874   22.5830 C   0  0  0  0  0  0
    5.6139   -4.2991   22.0545 N   0  0  0  0  0  0
    5.1369   -5.5066   21.6754 C   0  0  0  0  0  0
    4.0396   -5.7269   21.1586 O   0  0  0  0  0  0
    8.3176   -6.4001   22.6850 O   0  0  0  0  0  0
    4.8098   -3.0629   22.0707 C   0  0  0  0  0  0
    4.5169   -2.4476   20.7072 C   0  0  0  0  0  0
    3.4877   -2.9512   19.9058 C   0  0  0  0  0  0
    3.2374   -2.3513   18.6733 C   0  0  0  0  0  0
    3.9262   -1.2717   18.2392 N   0  0  0  0  0  0
    5.2185   -1.3150   20.2739 C   0  0  0  0  0  0
    4.9015   -0.7586   19.0318 C   0  0  0  0  0  0
    7.0335   -3.9811   24.0813 C   0  0  0  0  0  0
    7.9461   -3.4953   21.8127 C   0  0  0  0  0  0
    5.6382    0.3426   18.5791 N   0  0  0  0  0  0
    5.7893    0.6666   17.1673 C   0  0  0  0  0  0
    4.6432  -10.0965   19.5843 H   0  0  0  0  0  0
    4.8116   -7.6947   19.9197 H   0  0  0  0  0  0
    7.0076   -8.4058   23.5895 H   0  0  0  0  0  0
    6.8440  -10.8027   23.2024 H   0  0  0  0  0  0
    3.8617   -3.2511   22.5656 H   0  0  0  0  0  0
    5.3036   -2.3188   22.6944 H   0  0  0  0  0  0
    2.8915   -3.7942   20.2207 H   0  0  0  0  0  0
    2.4615   -2.7224   18.0163 H   0  0  0  0  0  0
    6.0047   -0.8880   20.8798 H   0  0  0  0  0  0
    8.0213   -4.1897   24.4995 H   0  0  0  0  0  0
    6.8569   -2.9136   24.2242 H   0  0  0  0  0  0
    6.3092   -4.5189   24.6981 H   0  0  0  0  0  0
    8.9716   -3.6889   22.1244 H   0  0  0  0  0  0
    7.8980   -3.6557   20.7348 H   0  0  0  0  0  0
    7.7464   -2.4392   21.9858 H   0  0  0  0  0  0
    6.2621    0.8535   19.1980 H   0  0  0  0  0  0
    6.3100    1.6162   17.0404 H   0  0  0  0  0  0
    6.3827   -0.1016   16.6703 H   0  0  0  0  0  0
    4.8381    0.7594   16.6482 H   0  0  0  0  0  0
  1  6  1  0  0  0
  1  2  2  0  0  0
  1 30  1  0  0  0
  2  3  1  0  0  0
  2 31  1  0  0  0
  3  4  2  0  0  0
  3 12  1  0  0  0
  4  5  1  0  0  0
  4 32  1  0  0  0
  5  6  2  0  0  0
  5 33  1  0  0  0
  6  7  1  0  0  0
  7  8  1  0  0  0
  8  9  1  0  0  0
  8 10  1  0  0  0
  8 11  1  0  0  0
 12 16  1  0  0  0
 12 13  1  0  0  0
 13 14  1  0  0  0
 13 18  2  0  0  0
 14 15  1  0  0  0
 14 26  1  0  0  0
 14 27  1  0  0  0
 15 16  1  0  0  0
 15 19  1  0  0  0
 16 17  2  0  0  0
 19 20  1  0  0  0
 19 34  1  0  0  0
 19 35  1  0  0  0
 20 21  2  0  0  0
 20 24  1  0  0  0
 21 22  1  0  0  0
 21 36  1  0  0  0
 22 23  2  0  0  0
 22 37  1  0  0  0
 23 25  1  0  0  0
 24 25  2  0  0  0
 24 38  1  0  0  0
 25 28  1  0  0  0
 26 39  1  0  0  0
 26 40  1  0  0  0
 26 41  1  0  0  0
 27 42  1  0  0  0
 27 43  1  0  0  0
 27 44  1  0  0  0
 28 29  1  0  0  0
 28 45  1  0  0  0
 29 46  1  0  0  0
 29 47  1  0  0  0
 29 48  1  0  0  0
M  END
> <s_m_entry_id>
5884

> <s_m_entry_name>
dock_pv.279

> <s_m_Source_Path>
/home/csk/Desktop/cluster/DUD-E-result/igf1r

> <s_m_Source_File>
dock_pv.maegz

> <i_m_Source_File_Index>
279

> <chembl_id>
CHEMBL1762176

> <chembl_pref_name>
None

> <i_lp_mmshare_version>
53161

> <r_lp_tautomer_probability>
0.999999772200052

> <s_lp_Force_Field>
OPLS_2005

> <r_lp_Energy>
40.935819

> <b_lp_Chiralities_Consistent>
1

> <s_lp_Variant>
CHEMBL1957_lig795-1

> <s_i_glide_gridfile>
glide-grid_2oj9

> <i_i_glide_lignum>
1025

> <i_i_glide_rotatable_bonds>
6

> <r_i_docking_score>
-6.94985346660188

> <r_i_glide_ligand_efficiency>
-0.239650119537996

> <r_i_glide_ligand_efficiency_sa>
-0.736281093707784

> <r_i_glide_ligand_efficiency_ln>
-1.59134021077372

> <r_i_glide_gscore>
-6.94985346660188

> <r_i_glide_lipo>
-3.08389715647238

> <r_i_glide_hbond>
-0.11425175107925

> <r_i_glide_metal>
0

> <r_i_glide_rewards>
-1.78543905898027

> <r_i_glide_evdw>
-38.3768501281738

> <r_i_glide_ecoul>
-3.03905653953552

> <r_i_glide_erotb>
0.440262978291503

> <r_i_glide_esite>
-0.0318274910224648

> <r_i_glide_emodel>
-50.012793172483

> <r_i_glide_energy>
-41.4159066677094

> <r_i_glide_einternal>
8.9922046661377

> <i_i_glide_confnum>
1

> <i_i_glide_posenum>
78

> <r_i_glide_eff_state_penalty>
0

> <s_user_duplicate_titles>
CHEMBL1957_lig795

> <i_f3d_flags>
0

> <s_m_subgroup_title>
dock_pv

> <s_m_subgroupid>
dock_pv

> <b_m_subgroup_collapsed>
1

$$$$
CHEMBL1957_lig3199
                    3D
 Schrodinger Suite 2021-1.
 34 37  0  0  1  0            999 V2000
    9.9011   -6.1246   24.2381 C   0  0  0  0  0  0
    7.1308   -6.2988   23.6022 C   0  0  0  0  0  0
    7.7793   -5.0557   23.6224 C   0  0  0  0  0  0
    9.1421   -4.9909   23.9439 C   0  0  0  0  0  0
    7.0405   -3.8299   23.2430 C   0  0  0  0  0  0
    6.1768   -3.7868   22.2029 C   0  0  0  0  0  0
    5.5112   -2.5365   21.8775 C   0  0  0  0  0  0
    5.7061   -1.5218   22.6673 N   0  0  0  0  0  0
    6.4910   -1.5874   23.8428 C   0  0  0  0  0  0
    7.2161   -2.7255   24.0358 N   0  0  0  0  0  0
    6.6019   -0.7476   24.7317 O   0  0  0  0  0  0
    4.6858   -2.4741   20.6574 C   0  0  0  0  0  0
    4.7202   -1.3267   19.8511 C   0  0  0  0  0  0
    4.0380   -1.3082   18.6384 C   0  0  0  0  0  0
    3.3133   -2.4237   18.2372 C   0  0  0  0  0  0
    3.2384   -3.5549   19.0401 C   0  0  0  0  0  0
    3.9245   -3.5809   20.2498 C   0  0  0  0  0  0
    7.8587   -7.4572   23.9062 C   0  0  0  0  0  0
    9.2350   -7.3508   24.2118 C   0  0  0  0  0  0
    9.6598   -8.6459   24.4286 N   0  0  0  0  0  0
    8.6576   -9.5353   24.3021 N   0  0  0  0  0  0
    7.5835   -8.8546   23.9963 C   0  0  0  0  0  0
   10.9582   -6.0540   24.4481 H   0  0  0  0  0  0
    6.0807   -6.3685   23.3604 H   0  0  0  0  0  0
    9.6491   -4.0370   23.9263 H   0  0  0  0  0  0
    6.0557   -4.6653   21.5871 H   0  0  0  0  0  0
    7.8175   -2.7394   24.8437 H   0  0  0  0  0  0
    5.3141   -0.4675   20.1316 H   0  0  0  0  0  0
    4.1021   -0.4537   17.9864 H   0  0  0  0  0  0
    2.8378   -2.4149   17.2705 H   0  0  0  0  0  0
    2.6799   -4.4180   18.7096 H   0  0  0  0  0  0
    3.8775   -4.4788   20.8497 H   0  0  0  0  0  0
   10.5957   -8.9572   24.6430 H   0  0  0  0  0  0
    6.6399   -9.3559   23.8368 H   0  0  0  0  0  0
  1 19  2  0  0  0
  1  4  1  0  0  0
  1 23  1  0  0  0
  2 18  2  0  0  0
  2  3  1  0  0  0
  2 24  1  0  0  0
  3  4  2  0  0  0
  3  5  1  0  0  0
  4 25  1  0  0  0
  5 10  1  0  0  0
  5  6  2  0  0  0
  6 26  1  0  0  0
  6  7  1  0  0  0
  7 12  1  0  0  0
  7  8  2  0  0  0
  8  9  1  0  0  0
  9 11  2  0  0  0
  9 10  1  0  0  0
 10 27  1  0  0  0
 12 13  2  0  0  0
 12 17  1  0  0  0
 13 14  1  0  0  0
 13 28  1  0  0  0
 14 15  2  0  0  0
 14 29  1  0  0  0
 15 16  1  0  0  0
 15 30  1  0  0  0
 16 17  2  0  0  0
 16 31  1  0  0  0
 17 32  1  0  0  0
 18 19  1  0  0  0
 18 22  1  0  0  0
 19 20  1  0  0  0
 20 21  1  0  0  0
 20 33  1  0  0  0
 21 22  2  0  0  0
 22 34  1  0  0  0
M  END
> <s_m_entry_id>
5885

> <s_m_entry_name>
dock_pv.280

> <s_m_Source_Path>
/home/csk/Desktop/cluster/DUD-E-result/igf1r

> <s_m_Source_File>
dock_pv.maegz

> <i_m_Source_File_Index>
280

> <chembl_id>
CHEMBL526133

> <chembl_pref_name>
None

> <i_lp_mmshare_version>
53161

> <r_lp_tautomer_probability>
0.478063516132417

> <s_lp_Force_Field>
OPLS_2005

> <r_lp_Energy>
20.099217

> <b_lp_Chiralities_Consistent>
1

> <s_lp_Variant>
CHEMBL1957_lig3199-2

> <s_i_glide_gridfile>
glide-grid_2oj9

> <i_i_glide_lignum>
4455

> <i_i_glide_rotatable_bonds>
2

> <r_i_docking_score>
-6.94704126343533

> <r_i_glide_ligand_efficiency>
-0.315774602883424

> <r_i_glide_ligand_efficiency_sa>
-0.884812855989775

> <r_i_glide_ligand_efficiency_ln>
-1.69811028427059

> <r_i_glide_gscore>
-6.94704126343533

> <r_i_glide_lipo>
-2.71785178775486

> <r_i_glide_hbond>
0

> <r_i_glide_metal>
0

> <r_i_glide_rewards>
-2.18718394205259

> <r_i_glide_evdw>
-39.0634307861328

> <r_i_glide_ecoul>
-3.46277904510498

> <r_i_glide_erotb>
0.437698617786782

> <r_i_glide_esite>
-0.00711575534226763

> <r_i_glide_emodel>
-57.5082763797051

> <r_i_glide_energy>
-42.5262098312378

> <r_i_glide_einternal>
4.60570573806763

> <i_i_glide_confnum>
5

> <i_i_glide_posenum>
322

> <r_i_glide_eff_state_penalty>
0

> <s_user_duplicate_titles>
CHEMBL1957_lig3199

> <i_f3d_flags>
0

> <s_m_subgroup_title>
dock_pv

> <s_m_subgroupid>
dock_pv

> <b_m_subgroup_collapsed>
1

$$$$
CHEMBL1957_lig2320
                    3D
 Schrodinger Suite 2021-1.
 56 60  0  0  1  0            999 V2000
    3.3704   -2.8775   18.0964 C   0  0  0  0  0  0
    3.9221   -2.5147   19.4784 C   0  0  0  0  0  0
    4.0182   -3.7137   20.2400 O   0  0  0  0  0  0
    4.8380   -3.7608   21.3578 C   0  0  0  0  0  0
    5.3081   -2.6060   22.0088 C   0  0  0  0  0  0
    6.1360   -2.6894   23.1371 C   0  0  0  0  0  0
    6.4538   -3.9575   23.6320 C   0  0  0  0  0  0
    5.9934   -5.1082   23.0022 C   0  0  0  0  0  0
    5.1996   -5.0281   21.8520 C   0  0  0  0  0  0
    4.7211   -6.1723   21.1784 N   0  0  0  0  0  0
    5.0968   -7.5235   21.1673 C   0  0  0  0  0  0
    4.4384   -8.3002   20.2693 N   0  0  0  0  0  0
    4.8380   -9.5956   20.1761 C   0  0  0  0  0  0
    5.8715  -10.1385   20.9408 C   0  0  0  0  0  0
    6.3824  -11.5738   20.7761 C   0  0  0  0  0  0
    6.9273  -12.1666   22.1063 C   0  0  0  0  0  0
    7.8666  -11.1493   22.7398 C   0  0  0  0  0  0
    8.9532  -11.4177   23.4190 N   0  0  0  0  0  0
    9.4553  -10.2182   23.7443 N   0  0  0  0  0  0
   10.7109  -10.1775   24.4853 C   0  0  0  0  0  0
    8.6773   -9.1592   23.3169 C   0  0  0  0  0  0
    8.9907   -7.7185   23.5511 C   0  0  0  0  0  0
    9.3242   -7.2672   24.8314 C   0  0  0  0  0  0
    9.6381   -5.9280   25.0381 C   0  0  0  0  0  0
    9.6135   -5.0412   23.9664 C   0  0  0  0  0  0
    9.2559   -5.4736   22.6926 C   0  0  0  0  0  0
    8.9426   -6.8136   22.4858 C   0  0  0  0  0  0
    7.6402   -9.7726   22.6149 C   0  0  0  0  0  0
    6.4870   -9.2500   21.8380 C   0  0  0  0  0  0
    6.1060   -7.9545   21.9632 N   0  0  0  0  0  0
    6.6557   -1.4406   23.8102 C   0  0  0  0  0  0
    6.2617   -0.3150   23.5095 O   0  0  0  0  0  0
    7.6379   -1.6539   24.7313 O   0  0  0  0  0  0
    3.2396   -1.9909   17.4767 H   0  0  0  0  0  0
    4.0388   -3.5569   17.5674 H   0  0  0  0  0  0
    2.4044   -3.3705   18.1778 H   0  0  0  0  0  0
    3.2591   -1.8070   19.9788 H   0  0  0  0  0  0
    4.8940   -2.0346   19.3577 H   0  0  0  0  0  0
    5.0378   -1.6321   21.6324 H   0  0  0  0  0  0
    7.0608   -4.0763   24.5187 H   0  0  0  0  0  0
    6.2596   -6.0527   23.4472 H   0  0  0  0  0  0
    4.0434   -5.9505   20.4643 H   0  0  0  0  0  0
    4.3280  -10.1984   19.4377 H   0  0  0  0  0  0
    7.1814  -11.5732   20.0325 H   0  0  0  0  0  0
    5.5960  -12.2142   20.3692 H   0  0  0  0  0  0
    7.4391  -13.1113   21.9189 H   0  0  0  0  0  0
    6.1061  -12.4028   22.7857 H   0  0  0  0  0  0
   11.2689   -9.2781   24.2182 H   0  0  0  0  0  0
   10.5006  -10.1793   25.5537 H   0  0  0  0  0  0
   11.3254  -11.0449   24.2367 H   0  0  0  0  0  0
    9.3377   -7.9458   25.6711 H   0  0  0  0  0  0
    9.8926   -5.5795   26.0279 H   0  0  0  0  0  0
    9.8619   -4.0047   24.1297 H   0  0  0  0  0  0
    9.2353   -4.7735   21.8696 H   0  0  0  0  0  0
    8.6812   -7.1483   21.4933 H   0  0  0  0  0  0
    8.1285   -0.8491   24.9461 H   0  0  0  0  0  0
  1  2  1  0  0  0
  1 34  1  0  0  0
  1 35  1  0  0  0
  1 36  1  0  0  0
  2  3  1  0  0  0
  2 37  1  0  0  0
  2 38  1  0  0  0
  3  4  1  0  0  0
  4  5  2  0  0  0
  4  9  1  0  0  0
  5  6  1  0  0  0
  5 39  1  0  0  0
  6  7  2  0  0  0
  6 31  1  0  0  0
  7  8  1  0  0  0
  7 40  1  0  0  0
  8  9  2  0  0  0
  8 41  1  0  0  0
  9 10  1  0  0  0
 10 11  1  0  0  0
 10 42  1  0  0  0
 11 12  2  0  0  0
 11 30  1  0  0  0
 12 13  1  0  0  0
 13 14  2  0  0  0
 13 43  1  0  0  0
 14 15  1  0  0  0
 14 29  1  0  0  0
 15 16  1  0  0  0
 15 44  1  0  0  0
 15 45  1  0  0  0
 16 17  1  0  0  0
 16 46  1  0  0  0
 16 47  1  0  0  0
 17 18  2  0  0  0
 17 28  1  0  0  0
 18 19  1  0  0  0
 19 20  1  0  0  0
 19 21  1  0  0  0
 20 48  1  0  0  0
 20 49  1  0  0  0
 20 50  1  0  0  0
 21 22  1  0  0  0
 21 28  2  0  0  0
 22 23  2  0  0  0
 22 27  1  0  0  0
 23 24  1  0  0  0
 23 51  1  0  0  0
 24 25  2  0  0  0
 24 52  1  0  0  0
 25 26  1  0  0  0
 25 53  1  0  0  0
 26 27  2  0  0  0
 26 54  1  0  0  0
 27 55  1  0  0  0
 28 29  1  0  0  0
 29 30  2  0  0  0
 31 32  2  0  0  0
 31 33  1  0  0  0
 33 56  1  0  0  0
M  END
> <s_m_entry_id>
5886

> <s_m_entry_name>
dock_pv.281

> <s_m_Source_Path>
/home/csk/Desktop/cluster/DUD-E-result/igf1r

> <s_m_Source_File>
dock_pv.maegz

> <i_m_Source_File_Index>
281

> <chembl_id>
CHEMBL3660892

> <chembl_pref_name>
None

> <i_lp_mmshare_version>
53161

> <r_lp_tautomer_probability>
0.999999987636

> <s_lp_Force_Field>
OPLS_2005

> <r_lp_Energy>
17.119386

> <b_lp_Chiralities_Consistent>
1

> <s_lp_Variant>
CHEMBL1957_lig2320-1

> <s_i_glide_gridfile>
glide-grid_2oj9

> <i_i_glide_lignum>
3305

> <i_i_glide_rotatable_bonds>
7

> <r_i_docking_score>
-6.94462383206651

> <r_i_glide_ligand_efficiency>
-0.210443146426258

> <r_i_glide_ligand_efficiency_sa>
-0.675003615887842

> <r_i_glide_ligand_efficiency_ln>
-1.54444838291378

> <r_i_glide_gscore>
-6.94462383206651

> <r_i_glide_lipo>
-2.97355156235476

> <r_i_glide_hbond>
0

> <r_i_glide_metal>
0

> <r_i_glide_rewards>
-1.05586157398307

> <r_i_glide_evdw>
-47.4588966369629

> <r_i_glide_ecoul>
-7.01689100265503

> <r_i_glide_erotb>
0.512435707357979

> <r_i_glide_esite>
-0.00216792084025723

> <r_i_glide_emodel>
-76.4182644674557

> <r_i_glide_energy>
-54.4757876396179

> <r_i_glide_einternal>
1.31833255290985

> <i_i_glide_confnum>
10

> <i_i_glide_posenum>
398

> <r_i_glide_eff_state_penalty>
0

> <s_user_duplicate_titles>
CHEMBL1957_lig2320

> <i_f3d_flags>
0

> <s_m_subgroup_title>
dock_pv

> <s_m_subgroupid>
dock_pv

> <b_m_subgroup_collapsed>
1

$$$$
CHEMBL1957_lig3066
                    3D
 Schrodinger Suite 2021-1.
 49 53  0  0  1  0            999 V2000
    4.0296   -1.2492   18.6382 S   0  0  0  0  0  0
    9.3181   -2.4685   25.6280 F   0  0  0  0  0  0
    4.0532   -3.4477   20.0370 N   0  0  0  0  0  0
    5.1925   -1.8295   21.0865 N   0  0  0  0  0  0
    6.3294   -8.1727   23.6174 N   0  0  0  0  0  0
    5.6391   -9.5741   21.9855 N   0  0  0  0  0  0
    6.8407  -10.5292   23.7365 N   0  0  0  0  0  0
    4.6933   -4.0543   21.1320 C   0  0  0  0  0  0
    5.3785   -2.9629   21.7139 C   0  0  0  0  0  0
    4.7517   -5.5489   21.4372 C   0  0  0  0  0  0
    4.4772   -2.1302   20.0573 C   0  0  0  0  0  0
    5.6315   -7.3893   22.7113 C   0  0  0  0  0  0
    5.2533   -8.3001   21.6961 C   0  0  0  0  0  0
    5.3201   -6.0228   22.6341 C   0  0  0  0  0  0
    6.3709   -2.8919   22.7982 C   0  0  0  0  0  0
    4.3623   -6.4751   20.4566 C   0  0  0  0  0  0
    3.2575   -3.7355   18.9317 C   0  0  0  0  0  0
    6.2811   -9.4605   23.1122 C   0  0  0  0  0  0
    4.5789   -7.8434   20.5684 C   0  0  0  0  0  0
    3.2376   -2.6838   18.0413 C   0  0  0  0  0  0
    6.2718   -1.8757   23.7503 C   0  0  0  0  0  0
    7.4658   -3.7522   22.7804 C   0  0  0  0  0  0
    7.0524   -7.6998   24.8064 C   0  0  0  0  0  0
    7.2867   -1.7116   24.6732 C   0  0  0  0  0  0
    8.4386   -3.6359   23.7582 C   0  0  0  0  0  0
    8.3629   -2.5982   24.6790 C   0  0  0  0  0  0
    8.5924   -7.5723   24.6029 C   0  0  0  0  0  0
    9.0171   -7.1631   23.1797 C   0  0  0  0  0  0
    9.3750   -8.8256   25.0535 C   0  0  0  0  0  0
    6.5756  -11.4631   23.4592 H   0  0  0  0  0  0
    7.4129  -10.4337   24.5605 H   0  0  0  0  0  0
    5.5936   -5.3539   23.4314 H   0  0  0  0  0  0
    3.9613   -6.1584   19.5146 H   0  0  0  0  0  0
    2.8190   -4.7040   18.7696 H   0  0  0  0  0  0
    4.3029   -8.5206   19.7730 H   0  0  0  0  0  0
    2.8381   -2.6605   17.0395 H   0  0  0  0  0  0
    5.4356   -1.1925   23.7424 H   0  0  0  0  0  0
    7.5601   -4.4954   22.0020 H   0  0  0  0  0  0
    6.8391   -8.3708   25.6366 H   0  0  0  0  0  0
    6.6314   -6.7353   25.0972 H   0  0  0  0  0  0
    7.2469   -0.9071   25.3914 H   0  0  0  0  0  0
    9.2899   -4.3002   23.7678 H   0  0  0  0  0  0
    8.9079   -6.7637   25.2655 H   0  0  0  0  0  0
    8.9679   -8.0032   22.4847 H   0  0  0  0  0  0
   10.0389   -6.7897   23.1705 H   0  0  0  0  0  0
    8.3842   -6.3772   22.7798 H   0  0  0  0  0  0
    9.2254   -9.6658   24.3769 H   0  0  0  0  0  0
   10.4492   -8.6411   25.0754 H   0  0  0  0  0  0
    9.0878   -9.1446   26.0569 H   0  0  0  0  0  0
  1 11  1  0  0  0
  1 20  1  0  0  0
  2 26  1  0  0  0
  3  8  1  0  0  0
  3 11  1  0  0  0
  3 17  1  0  0  0
  4  9  1  0  0  0
  4 11  2  0  0  0
  5 12  1  0  0  0
  5 18  1  0  0  0
  5 23  1  0  0  0
  6 13  1  0  0  0
  6 18  2  0  0  0
  7 18  1  0  0  0
  7 30  1  0  0  0
  7 31  1  0  0  0
  8  9  2  0  0  0
  8 10  1  0  0  0
  9 15  1  0  0  0
 10 14  1  0  0  0
 10 16  2  0  0  0
 12 13  1  0  0  0
 12 14  2  0  0  0
 13 19  2  0  0  0
 14 32  1  0  0  0
 15 21  2  0  0  0
 15 22  1  0  0  0
 16 19  1  0  0  0
 16 33  1  0  0  0
 17 20  2  0  0  0
 17 34  1  0  0  0
 19 35  1  0  0  0
 20 36  1  0  0  0
 21 24  1  0  0  0
 21 37  1  0  0  0
 22 25  2  0  0  0
 22 38  1  0  0  0
 23 27  1  0  0  0
 23 39  1  0  0  0
 23 40  1  0  0  0
 24 26  2  0  0  0
 24 41  1  0  0  0
 25 26  1  0  0  0
 25 42  1  0  0  0
 27 28  1  0  0  0
 27 29  1  0  0  0
 27 43  1  0  0  0
 28 44  1  0  0  0
 28 45  1  0  0  0
 28 46  1  0  0  0
 29 47  1  0  0  0
 29 48  1  0  0  0
 29 49  1  0  0  0
M  END
> <s_m_entry_id>
5887

> <s_m_entry_name>
dock_pv.282

> <s_m_Source_Path>
/home/csk/Desktop/cluster/DUD-E-result/igf1r

> <s_m_Source_File>
dock_pv.maegz

> <i_m_Source_File_Index>
282

> <chembl_id>
CHEMBL1965423

> <chembl_pref_name>
None

> <i_lp_mmshare_version>
53161

> <r_lp_tautomer_probability>
1

> <s_lp_Force_Field>
OPLS_2005

> <r_lp_Energy>
21.9655

> <b_lp_Chiralities_Consistent>
1

> <s_lp_Variant>
CHEMBL1957_lig3066-1

> <s_i_glide_gridfile>
glide-grid_2oj9

> <i_i_glide_lignum>
4254

> <i_i_glide_rotatable_bonds>
4

> <r_i_docking_score>
-6.94344879779135

> <r_i_glide_ligand_efficiency>
-0.239429268889357

> <r_i_glide_ligand_efficiency_sa>
-0.735602570544769

> <r_i_glide_ligand_efficiency_ln>
-1.5898737040245

> <r_i_glide_gscore>
-6.94344879779135

> <r_i_glide_lipo>
-3.29744883921436

> <r_i_glide_hbond>
0

> <r_i_glide_metal>
0

> <r_i_glide_rewards>
-1.72229206588093

> <r_i_glide_evdw>
-38.1861457824707

> <r_i_glide_ecoul>
-2.17712926864624

> <r_i_glide_erotb>
0.358583715693448

> <r_i_glide_esite>
-0.0464149289690318

> <r_i_glide_emodel>
-45.1627823205123

> <r_i_glide_energy>
-40.3632750511169

> <r_i_glide_einternal>
2.08233261108398

> <i_i_glide_confnum>
5

> <i_i_glide_posenum>
265

> <r_i_glide_eff_state_penalty>
0

> <s_user_duplicate_titles>
CHEMBL1957_lig3066

> <i_f3d_flags>
0

> <s_m_subgroup_title>
dock_pv

> <s_m_subgroupid>
dock_pv

> <b_m_subgroup_collapsed>
1

$$$$
CHEMBL1957_lig3361
                    3D
 Schrodinger Suite 2021-1.
 49 53  0  0  1  0            999 V2000
    4.0292   -1.4531   19.1167 S   0  0  0  0  0  0
    4.3682   -8.8536   19.8335 F   0  0  0  0  0  0
    9.6959   -3.0011   26.0782 F   0  0  0  0  0  0
    4.3211   -3.6538   20.4896 N   0  0  0  0  0  0
    6.6964   -8.5346   23.7632 N   0  0  0  0  0  0
    5.7032   -2.0910   21.2887 N   0  0  0  0  0  0
    5.8556   -9.8699   22.1537 N   0  0  0  0  0  0
    7.0888  -10.9207   23.8328 N   0  0  0  0  0  0
    5.1344   -4.2909   21.4383 C   0  0  0  0  0  0
    5.1548   -5.7864   21.7068 C   0  0  0  0  0  0
    5.9357   -3.2272   21.9172 C   0  0  0  0  0  0
    6.0048   -7.6933   22.9055 C   0  0  0  0  0  0
    4.7833   -2.3547   20.4127 C   0  0  0  0  0  0
    5.5346   -8.5672   21.8969 C   0  0  0  0  0  0
    5.7619   -6.3095   22.8643 C   0  0  0  0  0  0
    4.8381   -8.0476   20.8080 C   0  0  0  0  0  0
    4.6822   -6.6696   20.7227 C   0  0  0  0  0  0
    6.9886   -3.1926   22.9704 C   0  0  0  0  0  0
    6.5448   -9.8148   23.2537 C   0  0  0  0  0  0
    3.2842   -3.9171   19.6002 C   0  0  0  0  0  0
    3.0311   -2.8485   18.7611 C   0  0  0  0  0  0
    7.5287   -8.1471   24.9007 C   0  0  0  0  0  0
    7.9988   -4.1547   23.0667 C   0  0  0  0  0  0
    6.9534   -2.1280   23.8747 C   0  0  0  0  0  0
    9.0030   -7.8928   24.4784 C   0  0  0  0  0  0
    8.8992   -4.1089   24.1279 C   0  0  0  0  0  0
    7.8914   -2.0541   24.8873 C   0  0  0  0  0  0
    8.8382   -3.0588   25.0378 C   0  0  0  0  0  0
    9.6518   -8.9846   23.5951 C   0  0  0  0  0  0
    9.8750   -7.6664   25.7202 C   0  0  0  0  0  0
    6.7839  -11.8369   23.5375 H   0  0  0  0  0  0
    7.6977  -10.8646   24.6338 H   0  0  0  0  0  0
    6.0968   -5.6667   23.6625 H   0  0  0  0  0  0
    4.2451   -6.3136   19.8089 H   0  0  0  0  0  0
    2.7924   -4.8755   19.5808 H   0  0  0  0  0  0
    2.3193   -2.8006   17.9463 H   0  0  0  0  0  0
    7.4661   -8.9345   25.6519 H   0  0  0  0  0  0
    7.0970   -7.2525   25.3546 H   0  0  0  0  0  0
    8.0660   -4.9520   22.3407 H   0  0  0  0  0  0
    6.1965   -1.3616   23.8031 H   0  0  0  0  0  0
    9.0256   -6.9763   23.8891 H   0  0  0  0  0  0
    9.6700   -4.8565   24.2312 H   0  0  0  0  0  0
    7.8755   -1.2347   25.5837 H   0  0  0  0  0  0
    9.6757   -9.9524   24.0955 H   0  0  0  0  0  0
   10.6822   -8.7281   23.3446 H   0  0  0  0  0  0
    9.1334   -9.1055   22.6442 H   0  0  0  0  0  0
    9.7534   -8.4681   26.4499 H   0  0  0  0  0  0
   10.9273   -7.6535   25.4379 H   0  0  0  0  0  0
    9.6365   -6.7236   26.2163 H   0  0  0  0  0  0
  1 13  1  0  0  0
  1 21  1  0  0  0
  2 16  1  0  0  0
  3 28  1  0  0  0
  4  9  1  0  0  0
  4 13  1  0  0  0
  4 20  1  0  0  0
  5 12  1  0  0  0
  5 19  1  0  0  0
  5 22  1  0  0  0
  6 11  1  0  0  0
  6 13  2  0  0  0
  7 14  1  0  0  0
  7 19  2  0  0  0
  8 19  1  0  0  0
  8 31  1  0  0  0
  8 32  1  0  0  0
  9 10  1  0  0  0
  9 11  2  0  0  0
 10 15  1  0  0  0
 10 17  2  0  0  0
 11 18  1  0  0  0
 12 14  1  0  0  0
 12 15  2  0  0  0
 14 16  2  0  0  0
 15 33  1  0  0  0
 16 17  1  0  0  0
 17 34  1  0  0  0
 18 23  2  0  0  0
 18 24  1  0  0  0
 20 21  2  0  0  0
 20 35  1  0  0  0
 21 36  1  0  0  0
 22 25  1  0  0  0
 22 37  1  0  0  0
 22 38  1  0  0  0
 23 26  1  0  0  0
 23 39  1  0  0  0
 24 27  2  0  0  0
 24 40  1  0  0  0
 25 29  1  0  0  0
 25 30  1  0  0  0
 25 41  1  0  0  0
 26 28  2  0  0  0
 26 42  1  0  0  0
 27 28  1  0  0  0
 27 43  1  0  0  0
 29 44  1  0  0  0
 29 45  1  0  0  0
 29 46  1  0  0  0
 30 47  1  0  0  0
 30 48  1  0  0  0
 30 49  1  0  0  0
M  END
> <s_m_entry_id>
5888

> <s_m_entry_name>
dock_pv.283

> <s_m_Source_Path>
/home/csk/Desktop/cluster/DUD-E-result/igf1r

> <s_m_Source_File>
dock_pv.maegz

> <i_m_Source_File_Index>
283

> <chembl_id>
CHEMBL2004419

> <chembl_pref_name>
None

> <i_lp_mmshare_version>
53161

> <r_lp_tautomer_probability>
1

> <s_lp_Force_Field>
OPLS_2005

> <r_lp_Energy>
23.279408

> <b_lp_Chiralities_Consistent>
1

> <s_lp_Variant>
CHEMBL1957_lig3361-1

> <s_i_glide_gridfile>
glide-grid_2oj9

> <i_i_glide_lignum>
4730

> <i_i_glide_rotatable_bonds>
4

> <r_i_docking_score>
-6.94164839688854

> <r_i_glide_ligand_efficiency>
-0.231388279896285

> <r_i_glide_ligand_efficiency_sa>
-0.718977183975357

> <r_i_glide_ligand_efficiency_ln>
-1.57721815109027

> <r_i_glide_gscore>
-6.94164839688854

> <r_i_glide_lipo>
-3.22388432862744

> <r_i_glide_hbond>
0

> <r_i_glide_metal>
0

> <r_i_glide_rewards>
-2.0811917542579

> <r_i_glide_evdw>
-38.7611045837402

> <r_i_glide_ecoul>
-0.0847355425357819

> <r_i_glide_erotb>
0.331550418617652

> <r_i_glide_esite>
-0.017357172053478

> <r_i_glide_emodel>
-49.405806420477

> <r_i_glide_energy>
-38.845840126276

> <r_i_glide_einternal>
3.97656202316284

> <i_i_glide_confnum>
3

> <i_i_glide_posenum>
301

> <r_i_glide_eff_state_penalty>
0

> <s_user_duplicate_titles>
CHEMBL1957_lig3361

> <i_f3d_flags>
0

> <s_m_subgroup_title>
dock_pv

> <s_m_subgroupid>
dock_pv

> <b_m_subgroup_collapsed>
1

$$$$
CHEMBL1957_lig2821
                    3D
 Schrodinger Suite 2021-1.
 44 47  0  0  1  0            999 V2000
    6.9637   -6.8354   24.0974 S   0  0  0  0  0  0
    6.4765   -5.5619   24.6379 O   0  0  0  0  0  0
    7.0325   -8.0528   24.9125 O   0  0  0  0  0  0
    5.6570   -1.2371   21.5339 N   0  0  0  0  0  0
    4.6188   -3.4232   21.1308 N   0  0  0  0  0  0
    3.2379   -3.5231   19.1413 N   0  0  0  0  0  0
    3.6380   -5.4583   20.3210 N   0  0  0  0  0  0
    8.5609   -6.5488   23.4585 N   0  0  0  0  0  0
    4.8550   -2.1385   20.8385 C   0  0  0  0  0  0
    4.3228   -1.4591   19.7040 C   0  0  0  0  0  0
    3.8157   -4.0681   20.2379 C   0  0  0  0  0  0
    4.8380   -0.1305   19.7260 C   0  0  0  0  0  0
    5.6401   -0.0530   20.8305 C   0  0  0  0  0  0
    3.4852   -2.2172   18.8765 C   0  0  0  0  0  0
    4.3981   -6.4538   20.9648 C   0  0  0  0  0  0
    5.9594   -7.2092   22.6682 C   0  0  0  0  0  0
    6.4420   -1.4615   22.7535 C   0  0  0  0  0  0
    5.1402   -6.2168   22.1266 C   0  0  0  0  0  0
    6.0382   -0.6038   23.9593 C   0  0  0  0  0  0
    4.4463   -7.7262   20.3839 C   0  0  0  0  0  0
    5.9999   -8.4755   22.0807 C   0  0  0  0  0  0
    5.2379   -8.7339   20.9401 C   0  0  0  0  0  0
    6.3345    0.7642   24.0043 C   0  0  0  0  0  0
    5.3734   -1.1898   25.0372 C   0  0  0  0  0  0
    5.9439    1.5371   25.0951 C   0  0  0  0  0  0
    4.9343   -0.4102   26.1073 C   0  0  0  0  0  0
    5.2284    0.9482   26.1338 C   0  0  0  0  0  0
    3.0618   -5.7998   19.5667 H   0  0  0  0  0  0
    9.0362   -7.3678   23.0724 H   0  0  0  0  0  0
    8.6486   -5.7117   22.8804 H   0  0  0  0  0  0
    4.6958    0.6826   19.0378 H   0  0  0  0  0  0
    6.2262    0.7836   21.1666 H   0  0  0  0  0  0
    3.0389   -1.8011   17.9838 H   0  0  0  0  0  0
    7.4822   -1.2542   22.5117 H   0  0  0  0  0  0
    6.4046   -2.5221   23.0084 H   0  0  0  0  0  0
    5.1012   -5.2578   22.6161 H   0  0  0  0  0  0
    3.8876   -7.9372   19.4826 H   0  0  0  0  0  0
    6.6195   -9.2550   22.5026 H   0  0  0  0  0  0
    5.2681   -9.7105   20.4789 H   0  0  0  0  0  0
    6.8383    1.2501   23.1876 H   0  0  0  0  0  0
    5.1963   -2.2513   25.0341 H   0  0  0  0  0  0
    6.1809    2.5898   25.1292 H   0  0  0  0  0  0
    4.3830   -0.8543   26.9237 H   0  0  0  0  0  0
    4.8923    1.5455   26.9688 H   0  0  0  0  0  0
  1  2  2  0  0  0
  1  3  2  0  0  0
  1  8  1  0  0  0
  1 16  1  0  0  0
  4  9  1  0  0  0
  4 13  1  0  0  0
  4 17  1  0  0  0
  5  9  2  0  0  0
  5 11  1  0  0  0
  6 11  2  0  0  0
  6 14  1  0  0  0
  7 11  1  0  0  0
  7 15  1  0  0  0
  7 28  1  0  0  0
  8 29  1  0  0  0
  8 30  1  0  0  0
  9 10  1  0  0  0
 10 12  1  0  0  0
 10 14  2  0  0  0
 12 13  2  0  0  0
 12 31  1  0  0  0
 13 32  1  0  0  0
 14 33  1  0  0  0
 15 18  2  0  0  0
 15 20  1  0  0  0
 16 18  1  0  0  0
 16 21  2  0  0  0
 17 19  1  0  0  0
 17 34  1  0  0  0
 17 35  1  0  0  0
 18 36  1  0  0  0
 19 23  2  0  0  0
 19 24  1  0  0  0
 20 22  2  0  0  0
 20 37  1  0  0  0
 21 22  1  0  0  0
 21 38  1  0  0  0
 22 39  1  0  0  0
 23 25  1  0  0  0
 23 40  1  0  0  0
 24 26  2  0  0  0
 24 41  1  0  0  0
 25 27  2  0  0  0
 25 42  1  0  0  0
 26 27  1  0  0  0
 26 43  1  0  0  0
 27 44  1  0  0  0
M  END
> <s_m_entry_id>
5889

> <s_m_entry_name>
dock_pv.284

> <s_m_Source_Path>
/home/csk/Desktop/cluster/DUD-E-result/igf1r

> <s_m_Source_File>
dock_pv.maegz

> <i_m_Source_File_Index>
284

> <chembl_id>
CHEMBL1993424

> <chembl_pref_name>
None

> <i_lp_mmshare_version>
53161

> <r_lp_tautomer_probability>
1

> <s_lp_Force_Field>
OPLS_2005

> <r_lp_Energy>
18.107092

> <b_lp_Chiralities_Consistent>
1

> <s_lp_Variant>
CHEMBL1957_lig2821-1

> <s_i_glide_gridfile>
glide-grid_2oj9

> <i_i_glide_lignum>
3907

> <i_i_glide_rotatable_bonds>
5

> <r_i_docking_score>
-6.94039932351882

> <r_i_glide_ligand_efficiency>
-0.257051826796993

> <r_i_glide_ligand_efficiency_sa>
-0.771155479543779

> <r_i_glide_ligand_efficiency_ln>
-1.61561054108981

> <r_i_glide_gscore>
-6.94039932351882

> <r_i_glide_lipo>
-3.62085141537719

> <r_i_glide_hbond>
0

> <r_i_glide_metal>
0

> <r_i_glide_rewards>
-1.6449308749131

> <r_i_glide_evdw>
-43.6039199829102

> <r_i_glide_ecoul>
-0.220879137516022

> <r_i_glide_erotb>
0.53871083654438

> <r_i_glide_esite>
0

> <r_i_glide_emodel>
-57.8856652736262

> <r_i_glide_energy>
-43.8247991204262

> <r_i_glide_einternal>
6.71552801132202

> <i_i_glide_confnum>
6

> <i_i_glide_posenum>
218

> <r_i_glide_eff_state_penalty>
0

> <s_user_duplicate_titles>
CHEMBL1957_lig2821

> <i_f3d_flags>
0

> <s_m_subgroup_title>
dock_pv

> <s_m_subgroupid>
dock_pv

> <b_m_subgroup_collapsed>
1

$$$$
CHEMBL1957_lig435
                    3D
 Schrodinger Suite 2021-1.
 33 35  0  0  1  0            999 V2000
    5.3199   -2.1787   21.2493 C   0  0  0  0  0  0
    4.4378   -3.0689   20.6379 C   0  0  0  0  0  0
    4.4494   -4.4009   21.0380 C   0  0  0  0  0  0
    6.1688   -2.6117   22.2576 C   0  0  0  0  0  0
    5.3796   -4.9165   21.9639 C   0  0  0  0  0  0
    6.1876   -3.9713   22.6346 C   0  0  0  0  0  0
    7.0256   -4.3416   23.8045 C   0  0  0  0  0  0
    6.4381   -5.1102   24.6949 O   0  0  0  0  0  0
    6.5539   -6.5021   24.5182 C   0  0  0  0  0  0
    8.0830   -3.7668   24.0682 O   0  0  0  0  0  0
    6.0014   -7.1352   23.2421 C   0  0  0  0  0  0
    5.4956   -6.4281   22.1150 C   0  0  0  0  0  0
    5.1266   -7.2025   20.9947 C   0  0  0  0  0  0
    5.2079   -8.5892   20.9769 C   0  0  0  0  0  0
    5.6379   -9.2664   22.1147 C   0  0  0  0  0  0
    6.0375   -8.5347   23.2242 C   0  0  0  0  0  0
    4.8380   -9.2587   19.8380 O   0  0  0  0  0  0
    5.6425  -10.6371   22.1752 O   0  0  0  0  0  0
    3.5676   -2.7267   19.6234 O   0  0  0  0  0  0
    3.8111   -1.5225   18.9038 C   0  0  0  0  0  0
    6.9419   -1.6540   22.8572 O   0  0  0  0  0  0
    5.3410   -1.1369   20.9690 H   0  0  0  0  0  0
    3.7378   -5.0444   20.5463 H   0  0  0  0  0  0
    6.0419   -6.9584   25.3654 H   0  0  0  0  0  0
    7.6032   -6.7863   24.6210 H   0  0  0  0  0  0
    4.8055   -6.7394   20.0762 H   0  0  0  0  0  0
    6.3963   -9.0693   24.0921 H   0  0  0  0  0  0
    4.5793   -8.6893   19.1072 H   0  0  0  0  0  0
    5.4861  -10.9782   23.0634 H   0  0  0  0  0  0
    3.1416   -1.4724   18.0467 H   0  0  0  0  0  0
    3.6381   -0.6414   19.5211 H   0  0  0  0  0  0
    4.8317   -1.4845   18.5182 H   0  0  0  0  0  0
    7.5837   -2.0521   23.4550 H   0  0  0  0  0  0
  1  4  1  0  0  0
  1  2  2  0  0  0
  1 22  1  0  0  0
  2  3  1  0  0  0
  2 19  1  0  0  0
  3  5  2  0  0  0
  3 23  1  0  0  0
  4  6  2  0  0  0
  4 21  1  0  0  0
  5  6  1  0  0  0
  5 12  1  0  0  0
  6  7  1  0  0  0
  7 10  2  0  0  0
  7  8  1  0  0  0
  8  9  1  0  0  0
  9 11  1  0  0  0
  9 24  1  0  0  0
  9 25  1  0  0  0
 11 12  2  0  0  0
 11 16  1  0  0  0
 12 13  1  0  0  0
 13 14  2  0  0  0
 13 26  1  0  0  0
 14 15  1  0  0  0
 14 17  1  0  0  0
 15 16  2  0  0  0
 15 18  1  0  0  0
 16 27  1  0  0  0
 17 28  1  0  0  0
 18 29  1  0  0  0
 19 20  1  0  0  0
 20 30  1  0  0  0
 20 31  1  0  0  0
 20 32  1  0  0  0
 21 33  1  0  0  0
M  END
> <s_m_entry_id>
5890

> <s_m_entry_name>
dock_pv.285

> <s_m_Source_Path>
/home/csk/Desktop/cluster/DUD-E-result/igf1r

> <s_m_Source_File>
dock_pv.maegz

> <i_m_Source_File_Index>
285

> <chembl_id>
CHEMBL507058

> <chembl_pref_name>
ALTERLACTONE

> <i_lp_mmshare_version>
53161

> <r_lp_tautomer_probability>
0.999999999999776

> <s_lp_Force_Field>
OPLS_2005

> <r_lp_Energy>
47.7299

> <b_lp_Chiralities_Consistent>
1

> <s_lp_Variant>
CHEMBL1957_lig435-1

> <s_i_glide_gridfile>
glide-grid_2oj9

> <i_i_glide_lignum>
619

> <i_i_glide_rotatable_bonds>
4

> <r_i_docking_score>
-6.94007616872636

> <r_i_glide_ligand_efficiency>
-0.330479817558398

> <r_i_glide_ligand_efficiency_sa>
-0.911768757542586

> <r_i_glide_ligand_efficiency_ln>
-1.71591980897324

> <r_i_glide_gscore>
-6.94007616872636

> <r_i_glide_lipo>
-2.96322896090371

> <r_i_glide_hbond>
0

> <r_i_glide_metal>
0

> <r_i_glide_rewards>
-1.66991797713264

> <r_i_glide_evdw>
-33.258243560791

> <r_i_glide_ecoul>
-4.29344701766968

> <r_i_glide_erotb>
0

> <r_i_glide_esite>
0

> <r_i_glide_emodel>
-52.4217296873703

> <r_i_glide_energy>
-37.5516905784607

> <r_i_glide_einternal>
1.76005232334137

> <i_i_glide_confnum>
1

> <i_i_glide_posenum>
389

> <r_i_glide_eff_state_penalty>
0

> <s_user_duplicate_titles>
CHEMBL1957_lig435

> <i_f3d_flags>
0

> <s_m_subgroup_title>
dock_pv

> <s_m_subgroupid>
dock_pv

> <b_m_subgroup_collapsed>
1

$$$$
CHEMBL1957_lig2787
                    3D
 Schrodinger Suite 2021-1.
 38 40  0  0  1  0            999 V2000
    6.3440   -1.4724   23.0920 C   0  0  0  0  0  0
    6.0471   -2.3589   22.1107 C   0  0  0  0  0  0
    6.5328   -3.6396   22.1307 N   0  0  0  0  0  0
    7.3102   -4.0200   23.0922 C   0  0  0  0  0  0
    7.5962   -3.1517   24.1034 N   0  0  0  0  0  0
    7.1029   -1.9037   24.2380 C   0  0  0  0  0  0
    7.2375   -1.2536   25.2674 O   0  0  0  0  0  0
    7.8839   -5.3151   23.1734 N   0  0  0  0  0  0
    7.5714   -6.3788   22.2196 C   0  0  0  0  0  0
    8.6475   -7.4899   22.2697 C   0  0  0  0  0  0
    8.6360   -8.2746   23.5997 C   0  0  0  0  0  0
    7.2433   -8.8662   23.8943 C   0  0  0  0  0  0
    6.1251   -7.8087   23.8027 C   0  0  0  0  0  0
    6.1869   -7.0347   22.4679 C   0  0  0  0  0  0
    5.3171   -1.9695   20.8862 C   0  0  0  0  0  0
    5.6379   -0.7779   20.2183 C   0  0  0  0  0  0
    4.9624   -0.4537   19.0441 C   0  0  0  0  0  0
    3.9683   -1.2244   18.5386 N   0  0  0  0  0  0
    3.6365   -2.3611   19.2012 C   0  0  0  0  0  0
    4.2895   -2.7705   20.3648 C   0  0  0  0  0  0
    6.0162   -0.4493   23.0578 H   0  0  0  0  0  0
    8.1656   -3.4569   24.8713 H   0  0  0  0  0  0
    8.3055   -5.6089   24.0415 H   0  0  0  0  0  0
    7.5734   -5.9950   21.1977 H   0  0  0  0  0  0
    8.5037   -8.1790   21.4382 H   0  0  0  0  0  0
    9.6373   -7.0548   22.1177 H   0  0  0  0  0  0
    9.3783   -9.0731   23.5630 H   0  0  0  0  0  0
    8.9364   -7.6223   24.4204 H   0  0  0  0  0  0
    7.0351   -9.6698   23.1857 H   0  0  0  0  0  0
    7.2410   -9.3270   24.8828 H   0  0  0  0  0  0
    5.1512   -8.2903   23.9046 H   0  0  0  0  0  0
    6.2081   -7.1145   24.6407 H   0  0  0  0  0  0
    5.4071   -6.2708   22.4625 H   0  0  0  0  0  0
    5.9429   -7.6989   21.6369 H   0  0  0  0  0  0
    6.4318   -0.1352   20.5745 H   0  0  0  0  0  0
    5.2373    0.4343   18.4910 H   0  0  0  0  0  0
    2.8468   -2.9567   18.7669 H   0  0  0  0  0  0
    4.0125   -3.6951   20.8506 H   0  0  0  0  0  0
  1  2  2  0  0  0
  1  6  1  0  0  0
  1 21  1  0  0  0
  2  3  1  0  0  0
  2 15  1  0  0  0
  3  4  2  0  0  0
  4  5  1  0  0  0
  4  8  1  0  0  0
  5  6  1  0  0  0
  5 22  1  0  0  0
  6  7  2  0  0  0
  8  9  1  0  0  0
  8 23  1  0  0  0
  9 14  1  0  0  0
  9 10  1  0  0  0
  9 24  1  0  0  0
 10 11  1  0  0  0
 10 25  1  0  0  0
 10 26  1  0  0  0
 11 12  1  0  0  0
 11 27  1  0  0  0
 11 28  1  0  0  0
 12 13  1  0  0  0
 12 29  1  0  0  0
 12 30  1  0  0  0
 13 14  1  0  0  0
 13 31  1  0  0  0
 13 32  1  0  0  0
 14 33  1  0  0  0
 14 34  1  0  0  0
 15 16  2  0  0  0
 15 20  1  0  0  0
 16 17  1  0  0  0
 16 35  1  0  0  0
 17 18  2  0  0  0
 17 36  1  0  0  0
 18 19  1  0  0  0
 19 20  2  0  0  0
 19 37  1  0  0  0
 20 38  1  0  0  0
M  END
> <s_m_entry_id>
5891

> <s_m_entry_name>
dock_pv.286

> <s_m_Source_Path>
/home/csk/Desktop/cluster/DUD-E-result/igf1r

> <s_m_Source_File>
dock_pv.maegz

> <i_m_Source_File_Index>
286

> <chembl_id>
CHEMBL1958401

> <chembl_pref_name>
None

> <i_lp_mmshare_version>
53161

> <r_lp_tautomer_probability>
0.878315377147829

> <s_lp_Force_Field>
OPLS_2005

> <r_lp_Energy>
15.796325

> <b_lp_Chiralities_Consistent>
1

> <s_lp_Variant>
CHEMBL1957_lig2787-1

> <s_i_glide_gridfile>
glide-grid_2oj9

> <i_i_glide_lignum>
3854

> <i_i_glide_rotatable_bonds>
3

> <r_i_docking_score>
-6.93966067494333

> <r_i_glide_ligand_efficiency>
-0.346983033747166

> <r_i_glide_ligand_efficiency_sa>
-0.941856858522336

> <r_i_glide_ligand_efficiency_ln>
-1.73676818161064

> <r_i_glide_gscore>
-6.93966067494333

> <r_i_glide_lipo>
-2.41799062539083

> <r_i_glide_hbond>
-0.32

> <r_i_glide_metal>
0

> <r_i_glide_rewards>
-2.51327514493817

> <r_i_glide_evdw>
-37.528392791748

> <r_i_glide_ecoul>
-3.64106559753418

> <r_i_glide_erotb>
0.734184574603199

> <r_i_glide_esite>
0

> <r_i_glide_emodel>
-57.6144787094689

> <r_i_glide_energy>
-41.1694583892822

> <r_i_glide_einternal>
1.62081933021545

> <i_i_glide_confnum>
19

> <i_i_glide_posenum>
391

> <r_i_glide_eff_state_penalty>
0

> <s_user_duplicate_titles>
CHEMBL1957_lig2787

> <i_f3d_flags>
0

> <s_m_subgroup_title>
dock_pv

> <s_m_subgroupid>
dock_pv

> <b_m_subgroup_collapsed>
1

$$$$
CHEMBL1957_lig3137
                    3D
 Schrodinger Suite 2021-1.
 35 37  0  0  1  0            999 V2000
    9.6379   -3.1801   26.2165 Br  0  0  0  0  0  0
    7.6792   -6.3895   21.4378 O   0  0  0  0  0  0
    9.3550   -7.5131   23.3413 O   0  0  0  0  0  0
    5.7566   -0.9082   21.0915 N   0  0  0  0  0  0
    5.0640   -2.7754   22.1025 N   0  0  0  0  0  0
    6.2147    1.0046   24.2498 N   0  0  0  0  0  0
    5.8721   -1.6603   22.1620 C   0  0  0  0  0  0
    6.6829   -1.3712   23.3383 C   0  0  0  0  0  0
    4.9002   -1.5851   20.2648 C   0  0  0  0  0  0
    4.4710   -2.7959   20.8613 C   0  0  0  0  0  0
    8.0910   -3.5335   23.7556 C   0  0  0  0  0  0
    7.5911   -2.1453   23.9813 C   0  0  0  0  0  0
    8.9586   -4.1274   24.6984 C   0  0  0  0  0  0
    8.1134   -5.6361   22.5029 C   0  0  0  0  0  0
    7.7386   -4.2958   22.6309 C   0  0  0  0  0  0
    8.9493   -6.2090   23.4612 C   0  0  0  0  0  0
    9.3828   -5.4479   24.5421 C   0  0  0  0  0  0
    4.4381   -1.2345   18.9902 C   0  0  0  0  0  0
    3.6376   -3.7005   20.1991 C   0  0  0  0  0  0
    6.4362   -0.0550   23.8385 C   0  0  0  0  0  0
    3.6045   -2.1345   18.3254 C   0  0  0  0  0  0
    3.2377   -3.3449   18.9093 C   0  0  0  0  0  0
    6.2692   -6.5767   21.3711 C   0  0  0  0  0  0
   10.2474   -7.6529   23.6692 H   0  0  0  0  0  0
    5.0143   -3.4623   22.8407 H   0  0  0  0  0  0
    8.0437   -1.6523   24.8265 H   0  0  0  0  0  0
    7.1805   -3.8751   21.8171 H   0  0  0  0  0  0
   10.0394   -5.8855   25.2793 H   0  0  0  0  0  0
    4.7469   -0.3099   18.5235 H   0  0  0  0  0  0
    3.3256   -4.6355   20.6382 H   0  0  0  0  0  0
    3.2381   -1.9013   17.3360 H   0  0  0  0  0  0
    2.6018   -4.0143   18.3473 H   0  0  0  0  0  0
    6.0380   -7.3491   20.6389 H   0  0  0  0  0  0
    5.8505   -6.8947   22.3287 H   0  0  0  0  0  0
    5.7629   -5.6661   21.0500 H   0  0  0  0  0  0
  1 13  1  0  0  0
  2 14  1  0  0  0
  2 23  1  0  0  0
  3 16  1  0  0  0
  3 24  1  0  0  0
  4  7  2  0  0  0
  4  9  1  0  0  0
  5  7  1  0  0  0
  5 10  1  0  0  0
  5 25  1  0  0  0
  6 20  3  0  0  0
  7  8  1  0  0  0
  8 12  2  3  0  0
  8 20  1  0  0  0
  9 10  1  0  0  0
  9 18  2  0  0  0
 10 19  2  0  0  0
 11 12  1  0  0  0
 11 13  2  0  0  0
 11 15  1  0  0  0
 12 26  1  0  0  0
 13 17  1  0  0  0
 14 15  2  0  0  0
 14 16  1  0  0  0
 15 27  1  0  0  0
 16 17  2  0  0  0
 17 28  1  0  0  0
 18 21  1  0  0  0
 18 29  1  0  0  0
 19 22  1  0  0  0
 19 30  1  0  0  0
 21 22  2  0  0  0
 21 31  1  0  0  0
 22 32  1  0  0  0
 23 33  1  0  0  0
 23 34  1  0  0  0
 23 35  1  0  0  0
M  END
> <s_m_entry_id>
5892

> <s_m_entry_name>
dock_pv.287

> <s_m_Source_Path>
/home/csk/Desktop/cluster/DUD-E-result/igf1r

> <s_m_Source_File>
dock_pv.maegz

> <i_m_Source_File_Index>
287

> <chembl_id>
CHEMBL1994241

> <chembl_pref_name>
None

> <i_lp_mmshare_version>
53161

> <r_lp_tautomer_probability>
1

> <s_lp_Force_Field>
OPLS_2005

> <r_lp_Energy>
21.468457

> <b_lp_Chiralities_Consistent>
1

> <s_lp_Variant>
CHEMBL1957_lig3137-2

> <s_i_glide_gridfile>
glide-grid_2oj9

> <i_i_glide_lignum>
4361

> <i_i_glide_rotatable_bonds>
4

> <r_i_docking_score>
-6.9381484859651

> <r_i_glide_ligand_efficiency>
-0.301658629824569

> <r_i_glide_ligand_efficiency_sa>
-0.857877015648737

> <r_i_glide_ligand_efficiency_ln>
-1.67770721555858

> <r_i_glide_gscore>
-6.9381484859651

> <r_i_glide_lipo>
-2.95850276279585

> <r_i_glide_hbond>
0

> <r_i_glide_metal>
0

> <r_i_glide_rewards>
-1.70269296224667

> <r_i_glide_evdw>
-40.5655479431152

> <r_i_glide_ecoul>
-3.53449583053589

> <r_i_glide_erotb>
0.281499010813569

> <r_i_glide_esite>
0

> <r_i_glide_emodel>
-59.7375083254987

> <r_i_glide_energy>
-44.1000437736511

> <r_i_glide_einternal>
6.11078262329102

> <i_i_glide_confnum>
8

> <i_i_glide_posenum>
343

> <r_i_glide_eff_state_penalty>
0

> <s_user_duplicate_titles>
CHEMBL1957_lig3137

> <i_f3d_flags>
0

> <s_m_subgroup_title>
dock_pv

> <s_m_subgroupid>
dock_pv

> <b_m_subgroup_collapsed>
1

$$$$
CHEMBL1957_lig3365
                    3D
 Schrodinger Suite 2021-1.
 32 33  0  0  1  0            999 V2000
    6.8415  -10.4818   22.9086 O   0  0  0  0  0  0
    5.8073  -11.6599   20.6300 O   0  0  0  0  0  0
    7.8736   -6.3287   21.5726 N   0  0  0  0  0  0
    9.0956   -6.2155   22.0792 N   0  0  0  0  0  0
   10.4379   -4.8540   23.4378 N   0  0  0  0  0  0
    7.3602   -2.3633   24.2364 N   0  0  0  0  0  0
    4.8061   -2.7708   21.8313 N   0  0  0  0  0  0
    7.1552   -5.3479   22.0973 C   0  0  0  0  0  0
    7.9846   -4.5347   22.9207 C   0  0  0  0  0  0
    5.7210   -5.1889   21.7897 C   0  0  0  0  0  0
    9.2301   -5.1429   22.8941 C   0  0  0  0  0  0
    5.0740   -7.6081   21.3181 C   0  0  0  0  0  0
    4.8434   -6.1585   21.4437 C   0  0  0  0  0  0
    6.0780   -9.7156   22.0464 C   0  0  0  0  0  0
    7.6381   -3.3254   23.6570 C   0  0  0  0  0  0
    5.7955   -8.3530   22.2585 C   0  0  0  0  0  0
    5.5751  -10.3333   20.8915 C   0  0  0  0  0  0
    5.2376   -3.8452   21.8360 C   0  0  0  0  0  0
    4.5809   -8.2487   20.1857 C   0  0  0  0  0  0
    4.8380   -9.5967   19.9683 C   0  0  0  0  0  0
    7.5402   -9.8429   23.9696 C   0  0  0  0  0  0
    5.4516  -11.9354   19.7779 H   0  0  0  0  0  0
    9.8590   -6.8374   21.8404 H   0  0  0  0  0  0
   10.6888   -3.8696   23.5209 H   0  0  0  0  0  0
   11.2155   -5.4813   23.2633 H   0  0  0  0  0  0
    3.8260   -5.8559   21.2354 H   0  0  0  0  0  0
    6.1604   -7.8477   23.1396 H   0  0  0  0  0  0
    4.0252   -7.6977   19.4397 H   0  0  0  0  0  0
    4.4580  -10.0541   19.0686 H   0  0  0  0  0  0
    8.0956  -10.5873   24.5397 H   0  0  0  0  0  0
    8.2551   -9.1109   23.5900 H   0  0  0  0  0  0
    6.8528   -9.3457   24.6521 H   0  0  0  0  0  0
  1 14  1  0  0  0
  1 21  1  0  0  0
  2 17  1  0  0  0
  2 22  1  0  0  0
  3  4  1  0  0  0
  3  8  2  0  0  0
  4 11  1  0  0  0
  4 23  1  0  0  0
  5 11  1  0  0  0
  5 24  1  0  0  0
  5 25  1  0  0  0
  6 15  3  0  0  0
  7 18  3  0  0  0
  8  9  1  0  0  0
  8 10  1  0  0  0
  9 11  2  0  0  0
  9 15  1  0  0  0
 10 13  2  3  0  0
 10 18  1  0  0  0
 12 13  1  0  0  0
 12 16  1  0  0  0
 12 19  2  0  0  0
 13 26  1  0  0  0
 14 16  2  0  0  0
 14 17  1  0  0  0
 16 27  1  0  0  0
 17 20  2  0  0  0
 19 20  1  0  0  0
 19 28  1  0  0  0
 20 29  1  0  0  0
 21 30  1  0  0  0
 21 31  1  0  0  0
 21 32  1  0  0  0
M  END
> <s_m_entry_id>
5893

> <s_m_entry_name>
dock_pv.288

> <s_m_Source_Path>
/home/csk/Desktop/cluster/DUD-E-result/igf1r

> <s_m_Source_File>
dock_pv.maegz

> <i_m_Source_File_Index>
288

> <chembl_id>
CHEMBL2002407

> <chembl_pref_name>
None

> <i_lp_mmshare_version>
53161

> <r_lp_tautomer_probability>
1

> <s_lp_Force_Field>
OPLS_2005

> <r_lp_Energy>
18.873651

> <b_lp_Chiralities_Consistent>
1

> <s_lp_Variant>
CHEMBL1957_lig3365-1

> <s_i_glide_gridfile>
glide-grid_2oj9

> <i_i_glide_lignum>
4736

> <i_i_glide_rotatable_bonds>
4

> <r_i_docking_score>
-6.9348841714372

> <r_i_glide_ligand_efficiency>
-0.330232579592247

> <r_i_glide_ligand_efficiency_sa>
-0.911086646741146

> <r_i_glide_ligand_efficiency_ln>
-1.71463609813491

> <r_i_glide_gscore>
-6.9348841714372

> <r_i_glide_lipo>
-2.14674762413203

> <r_i_glide_hbond>
-0.430335086082464

> <r_i_glide_metal>
0

> <r_i_glide_rewards>
-1.91298407017382

> <r_i_glide_evdw>
-29.8388423919678

> <r_i_glide_ecoul>
-8.97853469848633

> <r_i_glide_erotb>
0.456921438063654

> <r_i_glide_esite>
-0.0630165047411985

> <r_i_glide_emodel>
-55.0209479900138

> <r_i_glide_energy>
-38.8173770904541

> <r_i_glide_einternal>
0.627710580825806

> <i_i_glide_confnum>
4

> <i_i_glide_posenum>
284

> <r_i_glide_eff_state_penalty>
0

> <s_user_duplicate_titles>
CHEMBL1957_lig3365

> <i_f3d_flags>
0

> <s_m_subgroup_title>
dock_pv

> <s_m_subgroupid>
dock_pv

> <b_m_subgroup_collapsed>
1

$$$$
CHEMBL1957_lig1502
                    3D
 Schrodinger Suite 2021-1.
 45 48  0  0  1  0            999 V2000
    7.3614   -2.6338   23.3071 N   0  0  0  0  0  0
    6.2916   -3.1048   22.6185 C   0  0  0  0  0  0
    5.8729   -4.3925   22.6287 N   0  0  0  0  0  0
    6.5894   -5.2890   23.3536 C   0  0  0  0  0  0
    6.1386   -6.6164   23.4278 N   0  0  0  0  0  0
    5.6329   -2.1622   21.8185 N   0  0  0  0  0  0
    5.6221   -7.3843   22.4171 C   0  0  0  0  0  0
    5.7152   -8.7753   22.3596 C   0  0  0  0  0  0
    5.2384   -9.1609   21.1248 C   0  0  0  0  0  0
    4.8380   -7.9838   20.5542 N   0  0  0  0  0  0
    5.0603   -6.9125   21.3218 N   0  0  0  0  0  0
    5.1501  -10.4892   20.4246 C   0  0  0  0  0  0
    6.2348  -11.5192   20.6348 C   0  0  0  0  0  0
    4.8373  -11.7596   21.1694 C   0  0  0  0  0  0
    8.0989   -3.5479   23.9909 C   0  0  0  0  0  0
    7.7728   -4.9078   24.0205 C   0  0  0  0  0  0
    8.6597   -5.8159   24.6375 N   0  0  0  0  0  0
    9.2590   -6.8352   23.9797 C   0  0  0  0  0  0
   10.2389   -7.7042   24.7578 C   0  0  0  0  0  0
    9.0502   -7.1070   22.7965 O   0  0  0  0  0  0
    4.7671   -2.2716   20.7100 C   0  0  0  0  0  0
    4.6735   -1.1793   19.8304 C   0  0  0  0  0  0
    3.9275   -1.2821   18.6548 C   0  0  0  0  0  0
    3.2377   -2.4533   18.3572 C   0  0  0  0  0  0
    3.2824   -3.5252   19.2420 C   0  0  0  0  0  0
    4.0382   -3.4340   20.4101 C   0  0  0  0  0  0
    5.4654    0.3232   20.1694 Cl  0  0  0  0  0  0
    6.6728   -7.1071   24.1266 H   0  0  0  0  0  0
    6.0613   -1.2522   21.8878 H   0  0  0  0  0  0
    6.1386   -9.4250   23.1107 H   0  0  0  0  0  0
    4.4392   -7.9063   19.6284 H   0  0  0  0  0  0
    4.7046  -10.4266   19.4379 H   0  0  0  0  0  0
    7.0434  -11.2965   21.3318 H   0  0  0  0  0  0
    6.5786  -12.0833   19.7671 H   0  0  0  0  0  0
    4.2012  -12.4991   20.6821 H   0  0  0  0  0  0
    4.6541  -11.7010   22.2379 H   0  0  0  0  0  0
    8.9953   -3.1755   24.4671 H   0  0  0  0  0  0
    8.8895   -5.6532   25.6086 H   0  0  0  0  0  0
    9.8597   -8.7229   24.8285 H   0  0  0  0  0  0
   11.1954   -7.7352   24.2346 H   0  0  0  0  0  0
   10.4231   -7.3340   25.7640 H   0  0  0  0  0  0
    3.8825   -0.4542   17.9651 H   0  0  0  0  0  0
    2.6712   -2.5236   17.4409 H   0  0  0  0  0  0
    2.7523   -4.4372   19.0141 H   0  0  0  0  0  0
    4.0523   -4.2967   21.0534 H   0  0  0  0  0  0
  1 15  1  0  0  0
  1  2  2  0  0  0
  2  3  1  0  0  0
  2  6  1  0  0  0
  3  4  2  0  0  0
  4 16  1  0  0  0
  4  5  1  0  0  0
  5  7  1  0  0  0
  5 28  1  0  0  0
  6 21  1  0  0  0
  6 29  1  0  0  0
  7 11  2  0  0  0
  7  8  1  0  0  0
  8  9  2  0  0  0
  8 30  1  0  0  0
  9 12  1  0  0  0
  9 10  1  0  0  0
 10 31  1  0  0  0
 10 11  1  0  0  0
 12 13  1  0  0  0
 12 14  1  0  0  0
 12 32  1  0  0  0
 13 14  1  0  0  0
 13 33  1  0  0  0
 13 34  1  0  0  0
 14 35  1  0  0  0
 14 36  1  0  0  0
 15 16  2  0  0  0
 15 37  1  0  0  0
 16 17  1  0  0  0
 17 18  1  0  0  0
 17 38  1  0  0  0
 18 19  1  0  0  0
 18 20  2  0  0  0
 19 39  1  0  0  0
 19 40  1  0  0  0
 19 41  1  0  0  0
 21 22  2  0  0  0
 21 26  1  0  0  0
 22 23  1  0  0  0
 22 27  1  0  0  0
 23 24  2  0  0  0
 23 42  1  0  0  0
 24 25  1  0  0  0
 24 43  1  0  0  0
 25 26  2  0  0  0
 25 44  1  0  0  0
 26 45  1  0  0  0
M  END
> <s_m_entry_id>
5894

> <s_m_entry_name>
dock_pv.289

> <s_m_Source_Path>
/home/csk/Desktop/cluster/DUD-E-result/igf1r

> <s_m_Source_File>
dock_pv.maegz

> <i_m_Source_File_Index>
289

> <chembl_id>
CHEMBL3891655

> <chembl_pref_name>
None

> <i_lp_mmshare_version>
53161

> <r_lp_tautomer_probability>
0.842599949391031

> <s_lp_Force_Field>
OPLS_2005

> <r_lp_Energy>
13.509206

> <b_lp_Chiralities_Consistent>
1

> <s_lp_Variant>
CHEMBL1957_lig1502-1

> <s_i_glide_gridfile>
glide-grid_2oj9

> <i_i_glide_lignum>
2138

> <i_i_glide_rotatable_bonds>
7

> <r_i_docking_score>
-6.93385603789539

> <r_i_glide_ligand_efficiency>
-0.256809482885015

> <r_i_glide_ligand_efficiency_sa>
-0.770428447808642

> <r_i_glide_ligand_efficiency_ln>
-1.61408737207117

> <r_i_glide_gscore>
-6.93385603789539

> <r_i_glide_lipo>
-3.01280034116218

> <r_i_glide_hbond>
-0.0836605135093535

> <r_i_glide_metal>
0

> <r_i_glide_rewards>
-1.36942393117072

> <r_i_glide_evdw>
-47.6090049743652

> <r_i_glide_ecoul>
-5.77391386032104

> <r_i_glide_erotb>
0.791546538232488

> <r_i_glide_esite>
-0.0129804625192051

> <r_i_glide_emodel>
-68.7558617176263

> <r_i_glide_energy>
-53.3829188346863

> <r_i_glide_einternal>
10.2913303375244

> <i_i_glide_confnum>
16

> <i_i_glide_posenum>
21

> <r_i_glide_eff_state_penalty>
0

> <s_user_duplicate_titles>
CHEMBL1957_lig1502

> <i_f3d_flags>
0

> <s_m_subgroup_title>
dock_pv

> <s_m_subgroupid>
dock_pv

> <b_m_subgroup_collapsed>
1

$$$$
CHEMBL1957_lig2144
                    3D
 Schrodinger Suite 2021-1.
 51 55  0  0  1  0            999 V2000
    4.0763   -6.8205   22.5871 C   0  0  0  0  0  0
    5.2591   -6.7458   21.6029 C   0  0  0  0  0  0
    5.0285   -7.3700   20.2121 C   0  0  0  0  0  0
    6.6197   -6.9741   22.2809 C   0  0  0  0  0  0
    7.4470   -6.0179   22.8892 C   0  0  0  0  0  0
    8.5723   -6.7098   23.3296 C   0  0  0  0  0  0
    9.7520   -6.0014   23.9797 C   0  0  0  0  0  0
    9.2181   -4.8109   24.8186 C   0  0  0  0  0  0
    8.1936   -3.9653   24.0600 C   0  0  0  0  0  0
    8.0566   -2.5853   24.2385 C   0  0  0  0  0  0
    7.1803   -1.8262   23.5411 N   0  0  0  0  0  0
    6.4245   -2.4724   22.6261 C   0  0  0  0  0  0
    5.6491   -1.6388   21.8199 N   0  0  0  0  0  0
    4.8377   -1.9220   20.7174 C   0  0  0  0  0  0
    4.0550   -3.0784   20.6371 C   0  0  0  0  0  0
    3.2668   -3.3081   19.5133 C   0  0  0  0  0  0
    3.2385   -2.3626   18.4942 C   0  0  0  0  0  0
    3.9904   -1.1935   18.5905 C   0  0  0  0  0  0
    4.7923   -0.9709   19.7011 C   0  0  0  0  0  0
    6.4454   -3.8086   22.3962 N   0  0  0  0  0  0
    7.3300   -4.5452   23.1137 C   0  0  0  0  0  0
    8.4691   -7.9910   23.1212 N   0  0  0  0  0  0
    7.2980   -8.1841   22.4807 N   0  0  0  0  0  0
    6.9902   -9.5296   22.1131 C   0  0  0  0  0  0
    5.6749  -10.0049   22.0176 C   0  0  0  0  0  0
    5.4233  -11.3091   21.5865 C   0  0  0  0  0  0
    6.5081  -12.1359   21.3018 C   0  0  0  0  0  0
    7.7952  -11.7297   21.4314 N   0  0  0  0  0  0
    8.0167  -10.4539   21.8379 C   0  0  0  0  0  0
    4.0499   -5.9285   23.2065 H   0  0  0  0  0  0
    3.1168   -6.8550   22.0768 H   0  0  0  0  0  0
    4.1403   -7.6537   23.2819 H   0  0  0  0  0  0
    5.2703   -5.6949   21.3332 H   0  0  0  0  0  0
    5.6368   -6.8545   19.4710 H   0  0  0  0  0  0
    5.2460   -8.4285   20.1334 H   0  0  0  0  0  0
    3.9953   -7.2421   19.8888 H   0  0  0  0  0  0
   10.4422   -5.6486   23.2135 H   0  0  0  0  0  0
   10.3318   -6.6814   24.6055 H   0  0  0  0  0  0
   10.0380   -4.1687   25.1233 H   0  0  0  0  0  0
    8.7932   -5.1901   25.7440 H   0  0  0  0  0  0
    8.6848   -2.0546   24.9402 H   0  0  0  0  0  0
    5.8399   -0.6615   21.9686 H   0  0  0  0  0  0
    4.0531   -3.7980   21.4385 H   0  0  0  0  0  0
    2.6845   -4.2140   19.4335 H   0  0  0  0  0  0
    2.6226   -2.5322   17.6227 H   0  0  0  0  0  0
    3.9522   -0.4541   17.8063 H   0  0  0  0  0  0
    5.3850   -0.0681   19.7564 H   0  0  0  0  0  0
    4.8382   -9.3763   22.2499 H   0  0  0  0  0  0
    4.4092  -11.6703   21.4898 H   0  0  0  0  0  0
    6.3550  -13.1508   20.9662 H   0  0  0  0  0  0
    9.0595  -10.1720   21.9044 H   0  0  0  0  0  0
  1  2  1  0  0  0
  1 30  1  0  0  0
  1 31  1  0  0  0
  1 32  1  0  0  0
  2  3  1  0  0  0
  2  4  1  0  0  0
  2 33  1  0  0  0
  3 34  1  0  0  0
  3 35  1  0  0  0
  3 36  1  0  0  0
  4  5  2  0  0  0
  4 23  1  0  0  0
  5  6  1  0  0  0
  5 21  1  0  0  0
  6  7  1  0  0  0
  6 22  2  0  0  0
  7  8  1  0  0  0
  7 37  1  0  0  0
  7 38  1  0  0  0
  8  9  1  0  0  0
  8 39  1  0  0  0
  8 40  1  0  0  0
  9 10  2  0  0  0
  9 21  1  0  0  0
 10 11  1  0  0  0
 10 41  1  0  0  0
 11 12  2  0  0  0
 12 13  1  0  0  0
 12 20  1  0  0  0
 13 14  1  0  0  0
 13 42  1  0  0  0
 14 15  2  0  0  0
 14 19  1  0  0  0
 15 16  1  0  0  0
 15 43  1  0  0  0
 16 17  2  0  0  0
 16 44  1  0  0  0
 17 18  1  0  0  0
 17 45  1  0  0  0
 18 19  2  0  0  0
 18 46  1  0  0  0
 19 47  1  0  0  0
 20 21  2  0  0  0
 22 23  1  0  0  0
 23 24  1  0  0  0
 24 25  2  0  0  0
 24 29  1  0  0  0
 25 26  1  0  0  0
 25 48  1  0  0  0
 26 27  2  0  0  0
 26 49  1  0  0  0
 27 28  1  0  0  0
 27 50  1  0  0  0
 28 29  2  0  0  0
 29 51  1  0  0  0
M  END
> <s_m_entry_id>
5895

> <s_m_entry_name>
dock_pv.290

> <s_m_Source_Path>
/home/csk/Desktop/cluster/DUD-E-result/igf1r

> <s_m_Source_File>
dock_pv.maegz

> <i_m_Source_File_Index>
290

> <chembl_id>
CHEMBL3656587

> <chembl_pref_name>
None

> <i_lp_mmshare_version>
53161

> <r_lp_tautomer_probability>
0.999999987636

> <s_lp_Force_Field>
OPLS_2005

> <r_lp_Energy>
19.003868

> <b_lp_Chiralities_Consistent>
1

> <s_lp_Variant>
CHEMBL1957_lig2144-1

> <s_i_glide_gridfile>
glide-grid_2oj9

> <i_i_glide_lignum>
3118

> <i_i_glide_rotatable_bonds>
4

> <r_i_docking_score>
-6.93348116015456

> <r_i_glide_ligand_efficiency>
-0.239085557246709

> <r_i_glide_ligand_efficiency_sa>
-0.734546579483062

> <r_i_glide_ligand_efficiency_ln>
-1.58759136776316

> <r_i_glide_gscore>
-6.93348116015456

> <r_i_glide_lipo>
-3.37333347880019

> <r_i_glide_hbond>
0

> <r_i_glide_metal>
0

> <r_i_glide_rewards>
-1.56213568863634

> <r_i_glide_evdw>
-43.2288246154785

> <r_i_glide_ecoul>
-1.56597447395325

> <r_i_glide_erotb>
0.398325409148878

> <r_i_glide_esite>
0

> <r_i_glide_emodel>
-57.2256011943951

> <r_i_glide_energy>
-44.7947990894318

> <r_i_glide_einternal>
3.53223896026611

> <i_i_glide_confnum>
3

> <i_i_glide_posenum>
67

> <r_i_glide_eff_state_penalty>
0

> <s_user_duplicate_titles>
CHEMBL1957_lig2144

> <i_f3d_flags>
0

> <s_m_subgroup_title>
dock_pv

> <s_m_subgroupid>
dock_pv

> <b_m_subgroup_collapsed>
1

$$$$
CHEMBL1957_lig3298
                    3D
 Schrodinger Suite 2021-1.
 42 45  0  0  1  0            999 V2000
    6.2364   -1.6540   22.2344 N   0  0  0  0  0  0
    5.5263   -1.5032   21.0405 C   0  0  0  0  0  0
    4.6347   -2.4699   20.5235 C   0  0  0  0  0  0
    4.4556   -3.7001   21.1601 N   0  0  0  0  0  0
    5.3340   -4.5528   21.8358 C   0  0  0  0  0  0
    6.4653   -4.1123   22.5567 C   0  0  0  0  0  0
    6.8043   -2.6712   22.8976 C   0  0  0  0  0  0
    3.9273   -2.1695   19.3401 C   0  0  0  0  0  0
    4.1381   -0.9776   18.6537 C   0  0  0  0  0  0
    5.0524   -0.0562   19.1437 C   0  0  0  0  0  0
    5.7264   -0.3188   20.3264 C   0  0  0  0  0  0
    7.3552   -5.0716   23.0737 C   0  0  0  0  0  0
    7.1599   -6.4298   22.8490 C   0  0  0  0  0  0
    6.0415   -6.8873   22.1521 C   0  0  0  0  0  0
    5.1220   -5.9295   21.7108 C   0  0  0  0  0  0
    7.6013   -2.4137   23.7985 O   0  0  0  0  0  0
    5.8684   -8.3333   21.8108 C   0  0  0  0  0  0
    6.4079   -9.3551   22.6079 C   0  0  0  0  0  0
    6.3149  -10.7112   22.2382 C   0  0  0  0  0  0
    5.6376  -11.0410   21.0573 C   0  0  0  0  0  0
    5.0738  -10.0418   20.2736 C   0  0  0  0  0  0
    5.1983   -8.7081   20.6382 C   0  0  0  0  0  0
    6.8544  -11.7510   22.9765 O   0  0  0  0  0  0
    7.5164  -11.4681   24.2039 C   0  0  0  0  0  0
    5.5167  -12.3427   20.6383 O   0  0  0  0  0  0
    3.0370   -3.0677   18.8027 O   0  0  0  0  0  0
    6.6006   -0.7896   22.5994 H   0  0  0  0  0  0
    3.7146   -4.2116   20.6997 H   0  0  0  0  0  0
    3.5985   -0.7653   17.7443 H   0  0  0  0  0  0
    5.2407    0.8689   18.6181 H   0  0  0  0  0  0
    6.4367    0.4146   20.6788 H   0  0  0  0  0  0
    8.2377   -4.7811   23.6303 H   0  0  0  0  0  0
    7.9091   -7.1184   23.2099 H   0  0  0  0  0  0
    4.2437   -6.2546   21.1733 H   0  0  0  0  0  0
    6.9189   -9.0840   23.5177 H   0  0  0  0  0  0
    4.5370  -10.2909   19.3745 H   0  0  0  0  0  0
    4.7795   -7.9674   19.9726 H   0  0  0  0  0  0
    7.8693  -12.4006   24.6447 H   0  0  0  0  0  0
    8.3845  -10.8247   24.0534 H   0  0  0  0  0  0
    6.8395  -10.9991   24.9197 H   0  0  0  0  0  0
    5.1583  -12.4045   19.7461 H   0  0  0  0  0  0
    2.6835   -2.7941   17.9512 H   0  0  0  0  0  0
  1  2  1  0  0  0
  1  7  1  0  0  0
  1 27  1  0  0  0
  2  3  1  0  0  0
  2 11  2  0  0  0
  3  4  1  0  0  0
  3  8  2  0  0  0
  4  5  1  0  0  0
  4 28  1  0  0  0
  5  6  1  0  0  0
  5 15  2  0  0  0
  6  7  1  0  0  0
  6 12  2  0  0  0
  7 16  2  0  0  0
  8  9  1  0  0  0
  8 26  1  0  0  0
  9 10  2  0  0  0
  9 29  1  0  0  0
 10 11  1  0  0  0
 10 30  1  0  0  0
 11 31  1  0  0  0
 12 13  1  0  0  0
 12 32  1  0  0  0
 13 14  2  0  0  0
 13 33  1  0  0  0
 14 15  1  0  0  0
 14 17  1  0  0  0
 15 34  1  0  0  0
 17 18  1  0  0  0
 17 22  2  0  0  0
 18 19  2  0  0  0
 18 35  1  0  0  0
 19 20  1  0  0  0
 19 23  1  0  0  0
 20 21  2  0  0  0
 20 25  1  0  0  0
 21 22  1  0  0  0
 21 36  1  0  0  0
 22 37  1  0  0  0
 23 24  1  0  0  0
 24 38  1  0  0  0
 24 39  1  0  0  0
 24 40  1  0  0  0
 25 41  1  0  0  0
 26 42  1  0  0  0
M  END
> <s_m_entry_id>
5896

> <s_m_entry_name>
dock_pv.291

> <s_m_Source_Path>
/home/csk/Desktop/cluster/DUD-E-result/igf1r

> <s_m_Source_File>
dock_pv.maegz

> <i_m_Source_File_Index>
291

> <chembl_id>
CHEMBL550418

> <chembl_pref_name>
None

> <i_lp_mmshare_version>
53161

> <r_lp_tautomer_probability>
1

> <s_lp_Force_Field>
OPLS_2005

> <r_lp_Energy>
42.685997

> <b_lp_Chiralities_Consistent>
1

> <s_lp_Variant>
CHEMBL1957_lig3298-1

> <s_i_glide_gridfile>
glide-grid_2oj9

> <i_i_glide_lignum>
4628

> <i_i_glide_rotatable_bonds>
4

> <r_i_docking_score>
-6.93337182007977

> <r_i_glide_ligand_efficiency>
-0.266668146926145

> <r_i_glide_ligand_efficiency_sa>
-0.790003335980215

> <r_i_glide_ligand_efficiency_ln>
-1.6282796216972

> <r_i_glide_gscore>
-6.93337182007977

> <r_i_glide_lipo>
-3.0138452292606

> <r_i_glide_hbond>
0

> <r_i_glide_metal>
0

> <r_i_glide_rewards>
-1.47807031298275

> <r_i_glide_evdw>
-40.4462051391602

> <r_i_glide_ecoul>
-3.84007954597473

> <r_i_glide_erotb>
0.156865911017793

> <r_i_glide_esite>
0

> <r_i_glide_emodel>
-61.8339895365715

> <r_i_glide_energy>
-44.2862846851349

> <r_i_glide_einternal>
0.991273522377014

> <i_i_glide_confnum>
3

> <i_i_glide_posenum>
111

> <r_i_glide_eff_state_penalty>
0

> <s_user_duplicate_titles>
CHEMBL1957_lig3298

> <i_f3d_flags>
0

> <s_m_subgroup_title>
dock_pv

> <s_m_subgroupid>
dock_pv

> <b_m_subgroup_collapsed>
1

$$$$
CHEMBL1957_lig2251
                    3D
 Schrodinger Suite 2021-1.
 55 59  0  0  1  0            999 V2000
    6.6187   -7.8065   24.6444 C   0  0  0  0  0  0
    7.1363   -8.8218   23.6075 C   0  0  0  0  0  0
    8.5531   -8.4751   23.1120 C   0  0  0  0  0  0
    6.2366   -8.9164   22.4554 N   0  0  0  0  0  0
    5.9936  -10.0326   21.7016 C   0  0  0  0  0  0
    5.1712   -9.6015   20.6833 C   0  0  0  0  0  0
    4.9592   -8.2339   20.9036 C   0  0  0  0  0  0
    4.1743   -7.4294   20.1241 N   0  0  0  0  0  0
    3.9127   -6.0540   20.1172 C   0  0  0  0  0  0
    3.2380   -5.6856   18.9976 N   0  0  0  0  0  0
    3.1293   -4.3611   18.7420 C   0  0  0  0  0  0
    3.6380   -3.3825   19.5896 C   0  0  0  0  0  0
    3.4757   -1.8830   19.3318 C   0  0  0  0  0  0
    4.7727   -1.0835   19.6236 C   0  0  0  0  0  0
    5.3257   -1.5274   20.9689 C   0  0  0  0  0  0
    6.0380   -0.7806   21.7828 N   0  0  0  0  0  0
    6.2977   -1.5803   22.8216 N   0  0  0  0  0  0
    7.0924   -1.0751   23.9317 C   0  0  0  0  0  0
    5.8299   -2.8604   22.6406 C   0  0  0  0  0  0
    6.1632   -3.9895   23.5813 C   0  0  0  0  0  0
    7.5926   -4.4594   23.4676 C   0  0  0  0  0  0
    8.3190   -4.3355   22.2901 C   0  0  0  0  0  0
    9.6443   -4.7182   22.2916 C   0  0  0  0  0  0
   10.2375   -5.2540   23.4380 C   0  0  0  0  0  0
    9.5000   -5.4264   24.5966 C   0  0  0  0  0  0
    8.1799   -5.0137   24.5938 C   0  0  0  0  0  0
    5.1107   -2.8247   21.4644 C   0  0  0  0  0  0
    4.3375   -3.8547   20.7161 C   0  0  0  0  0  0
    4.4380   -5.1852   21.0380 N   0  0  0  0  0  0
    5.6378   -7.8212   21.9498 N   0  0  0  0  0  0
    7.2967   -7.7098   25.4927 H   0  0  0  0  0  0
    6.4913   -6.8304   24.1944 H   0  0  0  0  0  0
    5.6380   -8.0540   25.0296 H   0  0  0  0  0  0
    7.1565   -9.8044   24.0820 H   0  0  0  0  0  0
    9.2579   -8.4056   23.9411 H   0  0  0  0  0  0
    8.9341   -9.2313   22.4246 H   0  0  0  0  0  0
    8.5683   -7.5191   22.5872 H   0  0  0  0  0  0
    6.4224  -10.9923   21.9505 H   0  0  0  0  0  0
    4.7627  -10.2026   19.8838 H   0  0  0  0  0  0
    3.7600   -7.8488   19.3056 H   0  0  0  0  0  0
    2.5915   -4.0865   17.8446 H   0  0  0  0  0  0
    2.6791   -1.5280   19.9852 H   0  0  0  0  0  0
    3.1422   -1.6955   18.3099 H   0  0  0  0  0  0
    4.5711   -0.0116   19.6114 H   0  0  0  0  0  0
    5.5075   -1.2537   18.8368 H   0  0  0  0  0  0
    6.6718   -1.4273   24.8729 H   0  0  0  0  0  0
    8.1125   -1.4463   23.8380 H   0  0  0  0  0  0
    7.0946    0.0157   23.9454 H   0  0  0  0  0  0
    5.5167   -4.8541   23.4368 H   0  0  0  0  0  0
    6.0380   -3.6745   24.6165 H   0  0  0  0  0  0
    7.8929   -3.8944   21.4011 H   0  0  0  0  0  0
   10.2342   -4.4540   21.4381 H   0  0  0  0  0  0
   11.2844   -5.5159   23.4380 H   0  0  0  0  0  0
    9.9428   -5.8585   25.4817 H   0  0  0  0  0  0
    7.5519   -5.1556   25.4380 H   0  0  0  0  0  0
  1  2  1  0  0  0
  1 31  1  0  0  0
  1 32  1  0  0  0
  1 33  1  0  0  0
  2  3  1  0  0  0
  2  4  1  0  0  0
  2 34  1  0  0  0
  3 35  1  0  0  0
  3 36  1  0  0  0
  3 37  1  0  0  0
  4  5  1  0  0  0
  4 30  1  0  0  0
  5  6  2  0  0  0
  5 38  1  0  0  0
  6  7  1  0  0  0
  6 39  1  0  0  0
  7  8  1  0  0  0
  7 30  2  0  0  0
  8  9  1  0  0  0
  8 40  1  0  0  0
  9 10  2  0  0  0
  9 29  1  0  0  0
 10 11  1  0  0  0
 11 12  2  0  0  0
 11 41  1  0  0  0
 12 13  1  0  0  0
 12 28  1  0  0  0
 13 14  1  0  0  0
 13 42  1  0  0  0
 13 43  1  0  0  0
 14 15  1  0  0  0
 14 44  1  0  0  0
 14 45  1  0  0  0
 15 16  2  0  0  0
 15 27  1  0  0  0
 16 17  1  0  0  0
 17 18  1  0  0  0
 17 19  1  0  0  0
 18 46  1  0  0  0
 18 47  1  0  0  0
 18 48  1  0  0  0
 19 20  1  0  0  0
 19 27  2  0  0  0
 20 21  1  0  0  0
 20 49  1  0  0  0
 20 50  1  0  0  0
 21 22  2  0  0  0
 21 26  1  0  0  0
 22 23  1  0  0  0
 22 51  1  0  0  0
 23 24  2  0  0  0
 23 52  1  0  0  0
 24 25  1  0  0  0
 24 53  1  0  0  0
 25 26  2  0  0  0
 25 54  1  0  0  0
 26 55  1  0  0  0
 27 28  1  0  0  0
 28 29  2  0  0  0
M  END
> <s_m_entry_id>
5897

> <s_m_entry_name>
dock_pv.292

> <s_m_Source_Path>
/home/csk/Desktop/cluster/DUD-E-result/igf1r

> <s_m_Source_File>
dock_pv.maegz

> <i_m_Source_File_Index>
292

> <chembl_id>
CHEMBL3656693

> <chembl_pref_name>
None

> <i_lp_mmshare_version>
53161

> <r_lp_tautomer_probability>
0.999999987636

> <s_lp_Force_Field>
OPLS_2005

> <r_lp_Energy>
9.839168

> <b_lp_Chiralities_Consistent>
1

> <s_lp_Variant>
CHEMBL1957_lig2251-1

> <s_i_glide_gridfile>
glide-grid_2oj9

> <i_i_glide_lignum>
3231

> <i_i_glide_rotatable_bonds>
5

> <r_i_docking_score>
-6.93298600107918

> <r_i_glide_ligand_efficiency>
-0.231099533369306

> <r_i_glide_ligand_efficiency_sa>
-0.718079981381765

> <r_i_glide_ligand_efficiency_ln>
-1.57524996037803

> <r_i_glide_gscore>
-6.93298600107918

> <r_i_glide_lipo>
-3.5818865638555

> <r_i_glide_hbond>
-0.050334818921335

> <r_i_glide_metal>
0

> <r_i_glide_rewards>
-1.44554626945116

> <r_i_glide_evdw>
-36.5596656799316

> <r_i_glide_ecoul>
-3.455721616745

> <r_i_glide_erotb>
0.491123177657148

> <r_i_glide_esite>
0

> <r_i_glide_emodel>
-47.5368201166964

> <r_i_glide_energy>
-40.0153872966766

> <r_i_glide_einternal>
3.9884078502655

> <i_i_glide_confnum>
2

> <i_i_glide_posenum>
15

> <r_i_glide_eff_state_penalty>
0

> <s_user_duplicate_titles>
CHEMBL1957_lig2251

> <i_f3d_flags>
0

> <s_m_subgroup_title>
dock_pv

> <s_m_subgroupid>
dock_pv

> <b_m_subgroup_collapsed>
1

$$$$
CHEMBL1957_lig1993
                    3D
 Schrodinger Suite 2021-1.
 38 39  0  0  1  0            999 V2000
    8.4380   -3.1967   23.5271 O   0  0  0  0  0  0
    8.0347   -4.4981   23.6615 C   0  0  0  0  0  0
    6.8003   -4.7551   24.2380 C   0  0  0  0  0  0
    6.3692   -6.0650   24.4011 C   0  0  0  0  0  0
    7.1718   -7.1339   23.9888 C   0  0  0  0  0  0
    6.5995   -8.5374   24.1481 C   0  0  0  0  0  0
    6.6360   -9.4436   22.9895 N   0  0  0  0  0  0
    5.8526   -9.3181   21.8791 C   0  0  0  0  0  0
    5.4544  -10.6966   21.0380 S   0  0  0  0  0  0
    5.4382   -8.0052   21.4755 C   0  0  0  0  0  0
    4.3799   -7.6556   20.7095 C   0  0  0  0  0  0
    4.0380   -6.2577   20.3695 C   0  0  0  0  0  0
    3.4086   -5.9815   19.1532 C   0  0  0  0  0  0
    3.2380   -4.6622   18.7261 C   0  0  0  0  0  0
    2.8380   -4.4540   17.4380 O   0  0  0  0  0  0
    3.6009   -3.5915   19.5539 C   0  0  0  0  0  0
    3.4414   -2.2937   19.1298 O   0  0  0  0  0  0
    4.1996   -3.8595   20.7877 C   0  0  0  0  0  0
    4.7461   -2.4540   21.9541 Br  0  0  0  0  0  0
    4.4380   -5.1808   21.1733 C   0  0  0  0  0  0
    8.4289   -6.8828   23.4090 C   0  0  0  0  0  0
    9.2380   -7.9249   23.0085 O   0  0  0  0  0  0
    8.8465   -5.5553   23.2355 C   0  0  0  0  0  0
   10.0381   -5.2529   22.6339 O   0  0  0  0  0  0
    9.3672   -3.1450   23.2534 H   0  0  0  0  0  0
    6.1787   -3.9359   24.5669 H   0  0  0  0  0  0
    5.4028   -6.2411   24.8529 H   0  0  0  0  0  0
    5.5633   -8.4540   24.4784 H   0  0  0  0  0  0
    7.1440   -9.0186   24.9612 H   0  0  0  0  0  0
    6.9740  -10.3746   23.1870 H   0  0  0  0  0  0
    6.0676   -7.2133   21.8335 H   0  0  0  0  0  0
    3.7197   -8.4179   20.3175 H   0  0  0  0  0  0
    3.1463   -6.7931   18.4905 H   0  0  0  0  0  0
    2.3316   -3.6540   17.2481 H   0  0  0  0  0  0
    3.5707   -2.1982   18.1832 H   0  0  0  0  0  0
    4.9287   -5.3549   22.1182 H   0  0  0  0  0  0
   10.1272   -7.6725   22.7361 H   0  0  0  0  0  0
   10.6424   -5.9656   22.3783 H   0  0  0  0  0  0
  1  2  1  0  0  0
  1 25  1  0  0  0
  2  3  2  0  0  0
  2 23  1  0  0  0
  3  4  1  0  0  0
  3 26  1  0  0  0
  4  5  2  0  0  0
  4 27  1  0  0  0
  5  6  1  0  0  0
  5 21  1  0  0  0
  6  7  1  0  0  0
  6 28  1  0  0  0
  6 29  1  0  0  0
  7  8  1  0  0  0
  7 30  1  0  0  0
  8  9  2  0  0  0
  8 10  1  0  0  0
 10 11  2  0  0  0
 10 31  1  0  0  0
 11 12  1  0  0  0
 11 32  1  0  0  0
 12 13  2  0  0  0
 12 20  1  0  0  0
 13 14  1  0  0  0
 13 33  1  0  0  0
 14 15  1  0  0  0
 14 16  2  0  0  0
 15 34  1  0  0  0
 16 17  1  0  0  0
 16 18  1  0  0  0
 17 35  1  0  0  0
 18 19  1  0  0  0
 18 20  2  0  0  0
 20 36  1  0  0  0
 21 22  1  0  0  0
 21 23  2  0  0  0
 22 37  1  0  0  0
 23 24  1  0  0  0
 24 38  1  0  0  0
M  END
> <s_m_entry_id>
5898

> <s_m_entry_name>
dock_pv.293

> <s_m_Source_Path>
/home/csk/Desktop/cluster/DUD-E-result/igf1r

> <s_m_Source_File>
dock_pv.maegz

> <i_m_Source_File_Index>
293

> <chembl_id>
CHEMBL3679683

> <chembl_pref_name>
None

> <i_lp_mmshare_version>
53161

> <r_lp_tautomer_probability>
0.999999999957461

> <s_lp_Force_Field>
OPLS_2005

> <r_lp_Energy>
18.945857

> <b_lp_Chiralities_Consistent>
1

> <s_lp_Variant>
CHEMBL1957_lig1993-1

> <s_i_glide_gridfile>
glide-grid_2oj9

> <i_i_glide_lignum>
2891

> <i_i_glide_rotatable_bonds>
10

> <r_i_docking_score>
-6.93236303609984

> <r_i_glide_ligand_efficiency>
-0.288848459837493

> <r_i_glide_ligand_efficiency_sa>
-0.833183133286529

> <r_i_glide_ligand_efficiency_ln>
-1.65923257995039

> <r_i_glide_gscore>
-6.93236303609984

> <r_i_glide_lipo>
-2.83387226110831

> <r_i_glide_hbond>
0

> <r_i_glide_metal>
0

> <r_i_glide_rewards>
-1.28431190153917

> <r_i_glide_evdw>
-31.5208187103271

> <r_i_glide_ecoul>
-12.1213998794556

> <r_i_glide_erotb>
0.58007204398234

> <r_i_glide_esite>
0

> <r_i_glide_emodel>
-54.4461874990104

> <r_i_glide_energy>
-43.6422185897827

> <r_i_glide_einternal>
11.3917551040649

> <i_i_glide_confnum>
105

> <i_i_glide_posenum>
139

> <r_i_glide_eff_state_penalty>
0

> <s_user_duplicate_titles>
CHEMBL1957_lig1993

> <i_f3d_flags>
0

> <s_m_subgroup_title>
dock_pv

> <s_m_subgroupid>
dock_pv

> <b_m_subgroup_collapsed>
1

$$$$
CHEMBL1957_lig85
                    3D
 Schrodinger Suite 2021-1.
 58 62  0  0  1  0            999 V2000
    4.2361   -6.4561   20.6375 C   0  0  0  0  0  0
    4.3079   -7.7555   20.1074 C   0  0  0  0  0  0
    5.0244   -8.7919   20.7057 C   0  0  0  0  0  0
    4.8888   -6.1656   21.8532 C   0  0  0  0  0  0
    4.9731  -10.1859   20.1076 C   0  0  0  0  0  0
    5.6430   -7.1908   22.4345 C   0  0  0  0  0  0
    5.7393   -8.4816   21.8689 C   0  0  0  0  0  0
    6.5760   -9.2801   22.6005 N   0  0  0  0  0  0
    6.9898   -8.5413   23.6027 C   0  0  0  0  0  0
    7.9500   -8.9868   24.6364 C   0  0  0  0  0  0
    8.9001   -8.1413   25.1508 C   0  0  0  0  0  0
    9.6908   -8.5955   26.2909 C   0  0  0  0  0  0
    9.4496   -9.8188   26.7863 C   0  0  0  0  0  0
    7.8528  -10.3866   25.1066 C   0  0  0  0  0  0
    7.2551  -11.3110   24.5648 O   0  0  0  0  0  0
    9.7688   -5.7132   25.1870 C   0  0  0  0  0  0
    8.9125   -4.4252   25.1506 C   0  0  2  0  0  0
    8.2341   -4.0940   23.8363 C   0  0  0  0  0  0
    8.8385   -4.4283   22.6249 C   0  0  0  0  0  0
    8.2833   -3.9902   21.4356 C   0  0  0  0  0  0
    7.0931   -3.2624   21.4376 C   0  0  0  0  0  0
    6.4589   -2.9617   22.6375 C   0  0  0  0  0  0
    7.0329   -3.3714   23.8367 C   0  0  0  0  0  0
    4.9777   -2.0800   22.6386 Cl  0  0  0  0  0  0
    3.4767   -5.3946   19.8528 C   0  0  0  0  0  0
    2.8380   -5.7000   18.8429 O   0  0  0  0  0  0
    3.6379   -4.1122   20.2379 N   0  0  0  0  0  0
    3.0714   -2.9446   19.5631 C   0  0  0  0  0  0
    3.9965   -1.8129   19.1803 C   0  0  0  0  0  0
    3.3989   -2.6868   18.1066 C   0  0  0  0  0  0
    6.4220   -7.2822   23.5642 N   0  0  0  0  0  0
    8.5517  -10.6771   26.2312 N   0  0  0  0  0  0
    9.0779   -6.8769   24.6382 N   0  0  0  0  0  0
    9.6380   -3.3046   25.6165 O   0  0  0  0  0  0
    3.7692   -7.9797   19.1964 H   0  0  0  0  0  0
    4.8426   -5.1936   22.3172 H   0  0  0  0  0  0
    5.8931  -10.4220   19.5742 H   0  0  0  0  0  0
    4.8547  -10.9243   20.9019 H   0  0  0  0  0  0
    4.1206  -10.3060   19.4383 H   0  0  0  0  0  0
   10.4378   -7.9700   26.7434 H   0  0  0  0  0  0
    9.9952  -10.2609   27.6098 H   0  0  0  0  0  0
   10.0379   -5.8897   26.2275 H   0  0  0  0  0  0
   10.6990   -5.5853   24.6317 H   0  0  0  0  0  0
    8.1039   -4.6059   25.8380 H   0  0  0  0  0  0
    9.7826   -4.9550   22.5953 H   0  0  0  0  0  0
    8.8100   -4.1918   20.5141 H   0  0  0  0  0  0
    6.6738   -2.9310   20.5013 H   0  0  0  0  0  0
    6.5510   -3.1037   24.7634 H   0  0  0  0  0  0
    4.0583   -3.9394   21.1367 H   0  0  0  0  0  0
    2.0820   -2.6678   19.9247 H   0  0  0  0  0  0
    5.0594   -1.8974   19.3976 H   0  0  0  0  0  0
    3.6410   -0.7891   19.2840 H   0  0  0  0  0  0
    2.6185   -2.2802   17.4640 H   0  0  0  0  0  0
    4.0372   -3.3960   17.5781 H   0  0  0  0  0  0
    6.6210   -6.5782   24.2604 H   0  0  0  0  0  0
    8.4783  -11.6414   26.5162 H   0  0  0  0  0  0
    8.7297   -6.7166   23.7036 H   0  0  0  0  0  0
   10.1336   -2.9516   24.8679 H   0  0  0  0  0  0
  1 25  1  0  0  0
  1  2  2  0  0  0
  1  4  1  0  0  0
  2  3  1  0  0  0
  2 35  1  0  0  0
  3  7  2  0  0  0
  3  5  1  0  0  0
  4  6  2  0  0  0
  4 36  1  0  0  0
  5 37  1  0  0  0
  5 38  1  0  0  0
  5 39  1  0  0  0
  6  7  1  0  0  0
  6 31  1  0  0  0
  7  8  1  0  0  0
  8  9  2  0  0  0
  9 10  1  0  0  0
  9 31  1  0  0  0
 10 11  2  0  0  0
 10 14  1  0  0  0
 11 12  1  0  0  0
 11 33  1  0  0  0
 12 13  2  0  0  0
 12 40  1  0  0  0
 13 32  1  0  0  0
 13 41  1  0  0  0
 14 15  2  0  0  0
 14 32  1  0  0  0
 16 17  1  0  0  0
 16 33  1  0  0  0
 16 42  1  0  0  0
 16 43  1  0  0  0
 17 18  1  0  0  0
 17 34  1  0  0  0
 17 44  1  0  0  0
 18 19  2  0  0  0
 18 23  1  0  0  0
 19 20  1  0  0  0
 19 45  1  0  0  0
 20 21  2  0  0  0
 20 46  1  0  0  0
 21 22  1  0  0  0
 21 47  1  0  0  0
 22 23  2  0  0  0
 22 24  1  0  0  0
 23 48  1  0  0  0
 25 26  2  0  0  0
 25 27  1  0  0  0
 27 28  1  0  0  0
 27 49  1  0  0  0
 28 29  1  0  0  0
 28 30  1  0  0  0
 28 50  1  0  0  0
 29 30  1  0  0  0
 29 51  1  0  0  0
 29 52  1  0  0  0
 30 53  1  0  0  0
 30 54  1  0  0  0
 31 55  1  0  0  0
 32 56  1  0  0  0
 33 57  1  0  0  0
 34 58  1  0  0  0
M  END
> <s_m_entry_id>
5899

> <s_m_entry_name>
dock_pv.294

> <s_m_Source_Path>
/home/csk/Desktop/cluster/DUD-E-result/igf1r

> <s_m_Source_File>
dock_pv.maegz

> <i_m_Source_File_Index>
294

> <chembl_id>
CHEMBL231510

> <chembl_pref_name>
None

> <i_lp_mmshare_version>
53161

> <r_lp_tautomer_probability>
0.999206294981429

> <s_lp_Force_Field>
OPLS_2005

> <r_lp_Energy>
51.794162

> <b_lp_Chiralities_Consistent>
1

> <s_lp_Variant>
CHEMBL1957_lig85-1

> <s_i_glide_gridfile>
glide-grid_2oj9

> <i_i_glide_lignum>
245

> <i_i_glide_rotatable_bonds>
9

> <r_i_docking_score>
-6.92558997571812

> <r_i_glide_ligand_efficiency>
-0.203693822815239

> <r_i_glide_ligand_efficiency_sa>
-0.659888911463904

> <r_i_glide_ligand_efficiency_ln>
-1.53005708185506

> <r_i_glide_gscore>
-6.92558997571812

> <r_i_glide_lipo>
-3.72107400347344

> <r_i_glide_hbond>
-0.219478839882326

> <r_i_glide_metal>
0

> <r_i_glide_rewards>
-0.823897681018202

> <r_i_glide_evdw>
-44.3536109924316

> <r_i_glide_ecoul>
-3.76222348213196

> <r_i_glide_erotb>
0.620874620597222

> <r_i_glide_esite>
0

> <r_i_glide_emodel>
-64.7523896680733

> <r_i_glide_energy>
-48.1158344745636

> <r_i_glide_einternal>
6.66895771026611

> <i_i_glide_confnum>
9

> <i_i_glide_posenum>
142

> <r_i_glide_eff_state_penalty>
0

> <s_user_duplicate_titles>
CHEMBL1957_lig85,383741

> <i_f3d_flags>
0

> <s_m_subgroup_title>
dock_pv

> <s_m_subgroupid>
dock_pv

> <b_m_subgroup_collapsed>
1

$$$$
CHEMBL1957_lig3193
                    3D
 Schrodinger Suite 2021-1.
 46 48  0  0  1  0            999 V2000
    7.5674   -3.6563   23.4306 O   0  0  0  0  0  0
    6.0376   -6.7268   24.6370 N   0  0  0  0  0  0
    7.0539  -11.8147   21.8176 N   0  0  0  0  0  0
    6.4449   -0.8735   23.8018 N   0  0  0  0  0  0
    6.8282   -4.8209   23.3665 C   0  0  0  0  0  0
    5.4559   -6.5245   22.2986 C   0  0  0  0  0  0
    6.1814   -5.3295   22.2273 C   0  0  0  0  0  0
    6.7378   -5.5718   24.5345 C   0  0  0  0  0  0
    5.3910   -7.1749   23.5336 C   0  0  0  0  0  0
    4.8052   -7.0651   21.0964 C   0  0  0  0  0  0
    5.6374   -9.4964   21.0526 C   0  0  0  0  0  0
    6.1779   -1.7734   22.6892 C   0  0  2  0  0  0
    4.8608   -8.3193   20.5969 C   0  0  0  0  0  0
    7.4195   -2.6619   22.4196 C   0  0  0  0  0  0
    4.8368   -1.6481   20.4364 C   0  0  0  0  0  0
    5.7628   -0.9516   21.4420 C   0  0  0  0  0  0
    5.2130  -10.7692   20.6510 C   0  0  0  0  0  0
    6.7994   -9.4107   21.8384 C   0  0  0  0  0  0
    4.5133   -0.9595   19.2643 C   0  0  0  0  0  0
    4.2566   -2.9025   20.6732 C   0  0  0  0  0  0
    5.9374  -11.8924   21.0519 C   0  0  0  0  0  0
    7.4687  -10.5813   22.1998 C   0  0  0  0  0  0
    3.6384   -1.5221   18.3392 C   0  0  0  0  0  0
    3.4028   -3.4732   19.7356 C   0  0  0  0  0  0
    3.1046   -2.7838   18.5675 C   0  0  0  0  0  0
    6.7312   -1.4375   24.5901 H   0  0  0  0  0  0
    7.2432   -0.2924   23.5920 H   0  0  0  0  0  0
    6.2477   -4.8277   21.2769 H   0  0  0  0  0  0
    7.2414   -5.2349   25.4274 H   0  0  0  0  0  0
    4.8419   -8.0990   23.6497 H   0  0  0  0  0  0
    4.1830   -6.3564   20.5697 H   0  0  0  0  0  0
    5.3455   -2.3827   23.0371 H   0  0  0  0  0  0
    4.2712   -8.4953   19.7087 H   0  0  0  0  0  0
    8.3258   -2.0547   22.4291 H   0  0  0  0  0  0
    7.4011   -3.0916   21.4197 H   0  0  0  0  0  0
    5.2493   -0.0384   21.7412 H   0  0  0  0  0  0
    6.6518   -0.6005   20.9186 H   0  0  0  0  0  0
    4.3442  -10.8923   20.0227 H   0  0  0  0  0  0
    7.2071   -8.4609   22.1453 H   0  0  0  0  0  0
    4.9334    0.0164   19.0679 H   0  0  0  0  0  0
    4.4346   -3.4557   21.5777 H   0  0  0  0  0  0
    5.6280  -12.8826   20.7510 H   0  0  0  0  0  0
    8.3694  -10.5412   22.7958 H   0  0  0  0  0  0
    3.3716   -0.9789   17.4460 H   0  0  0  0  0  0
    2.9609   -4.4418   19.9171 H   0  0  0  0  0  0
    2.4384   -3.2218   17.8397 H   0  0  0  0  0  0
  1  5  1  0  0  0
  1 14  1  0  0  0
  2  8  1  0  0  0
  2  9  2  0  0  0
  3 21  2  0  0  0
  3 22  1  0  0  0
  4 12  1  0  0  0
  4 26  1  0  0  0
  4 27  1  0  0  0
  5  7  1  0  0  0
  5  8  2  0  0  0
  6  7  2  0  0  0
  6  9  1  0  0  0
  6 10  1  0  0  0
  7 28  1  0  0  0
  8 29  1  0  0  0
  9 30  1  0  0  0
 10 13  2  3  0  0
 10 31  1  0  0  0
 11 13  1  0  0  0
 11 17  2  0  0  0
 11 18  1  0  0  0
 12 14  1  0  0  0
 12 16  1  0  0  0
 12 32  1  0  0  0
 13 33  1  0  0  0
 14 34  1  0  0  0
 14 35  1  0  0  0
 15 16  1  0  0  0
 15 19  2  0  0  0
 15 20  1  0  0  0
 16 36  1  0  0  0
 16 37  1  0  0  0
 17 21  1  0  0  0
 17 38  1  0  0  0
 18 22  2  0  0  0
 18 39  1  0  0  0
 19 23  1  0  0  0
 19 40  1  0  0  0
 20 24  2  0  0  0
 20 41  1  0  0  0
 21 42  1  0  0  0
 22 43  1  0  0  0
 23 25  2  0  0  0
 23 44  1  0  0  0
 24 25  1  0  0  0
 24 45  1  0  0  0
 25 46  1  0  0  0
M  END
> <s_m_entry_id>
5900

> <s_m_entry_name>
dock_pv.295

> <s_m_Source_Path>
/home/csk/Desktop/cluster/DUD-E-result/igf1r

> <s_m_Source_File>
dock_pv.maegz

> <i_m_Source_File_Index>
295

> <chembl_id>
CHEMBL1991846

> <chembl_pref_name>
None

> <i_lp_mmshare_version>
53161

> <r_lp_tautomer_probability>
1

> <s_lp_Force_Field>
OPLS_2005

> <r_lp_Energy>
29.797831

> <b_lp_Chiralities_Consistent>
1

> <s_lp_Variant>
CHEMBL1957_lig3193-2

> <s_i_glide_gridfile>
glide-grid_2oj9

> <i_i_glide_lignum>
4444

> <i_i_glide_rotatable_bonds>
7

> <r_i_docking_score>
-6.92089975708886

> <r_i_glide_ligand_efficiency>
-0.276835990283554

> <r_i_glide_ligand_efficiency_sa>
-0.809473345296306

> <r_i_glide_ligand_efficiency_ln>
-1.64046064505941

> <r_i_glide_gscore>
-6.92089975708886

> <r_i_glide_lipo>
-4.32035663795168

> <r_i_glide_hbond>
0

> <r_i_glide_metal>
0

> <r_i_glide_rewards>
-1.49010853560629

> <r_i_glide_evdw>
-40.0126991271973

> <r_i_glide_ecoul>
-0.919709324836731

> <r_i_glide_erotb>
1.02815677155448

> <r_i_glide_esite>
0

> <r_i_glide_emodel>
-54.7813892983587

> <r_i_glide_energy>
-40.932408452034

> <r_i_glide_einternal>
8.08526802062988

> <i_i_glide_confnum>
4

> <i_i_glide_posenum>
333

> <r_i_glide_eff_state_penalty>
0

> <s_user_duplicate_titles>
CHEMBL1957_lig3193

> <i_f3d_flags>
0

> <s_m_subgroup_title>
dock_pv

> <s_m_subgroupid>
dock_pv

> <b_m_subgroup_collapsed>
1

$$$$
CHEMBL1957_lig2871
                    3D
 Schrodinger Suite 2021-1.
 34 36  0  0  1  0            999 V2000
    3.6380   -5.4803   20.6495 Cl  0  0  0  0  0  0
    3.6380   -0.8540   18.1192 Cl  0  0  0  0  0  0
    6.2771   -1.7815   24.3522 O   0  0  0  0  0  0
    6.0674   -5.5982   22.3705 N   0  0  0  0  0  0
    6.3669   -8.4257   22.4832 N   0  0  0  0  0  0
    7.2382  -10.4308   23.5046 N   0  0  0  0  0  0
    8.4192   -2.4540   24.4721 N   0  0  0  0  0  0
    5.9460  -10.5303   21.5534 N   0  0  0  0  0  0
    6.0387   -4.2293   22.4709 C   0  0  0  0  0  0
    6.8381   -3.9320   23.5968 C   0  0  0  0  0  0
    6.7871   -6.2043   23.3645 C   0  0  0  0  0  0
    5.3098   -3.3921   21.4477 C   0  0  0  0  0  0
    7.2577   -5.1605   24.1449 C   0  0  0  0  0  0
    6.9559   -7.6829   23.4636 C   0  0  0  0  0  0
    4.2423   -3.8557   20.6380 C   0  0  0  0  0  0
    7.1347   -2.6420   24.1673 C   0  0  0  0  0  0
    5.7784   -2.0858   21.2305 C   0  0  0  0  0  0
    3.6865   -3.0283   19.6672 C   0  0  0  0  0  0
    7.6928   -8.2747   24.4954 C   0  0  0  0  0  0
    4.2061   -1.7623   19.4479 C   0  0  0  0  0  0
    5.2380   -1.2749   20.2380 C   0  0  0  0  0  0
    6.5362   -9.7681   22.5523 C   0  0  0  0  0  0
    7.8108   -9.6666   24.4710 C   0  0  0  0  0  0
    5.5895   -6.1127   21.6443 H   0  0  0  0  0  0
    9.1128   -3.1356   24.1979 H   0  0  0  0  0  0
    8.7261   -1.5481   24.8131 H   0  0  0  0  0  0
    5.9695  -11.5348   21.6428 H   0  0  0  0  0  0
    5.3560  -10.0764   20.8742 H   0  0  0  0  0  0
    7.8654   -5.2730   25.0322 H   0  0  0  0  0  0
    6.6126   -1.6912   21.7865 H   0  0  0  0  0  0
    2.9039   -3.3996   19.0210 H   0  0  0  0  0  0
    8.1576   -7.6866   25.2732 H   0  0  0  0  0  0
    5.6513   -0.2936   20.0510 H   0  0  0  0  0  0
    8.3715  -10.1893   25.2322 H   0  0  0  0  0  0
  1 15  1  0  0  0
  2 20  1  0  0  0
  3 16  2  0  0  0
  4  9  1  0  0  0
  4 11  1  0  0  0
  4 24  1  0  0  0
  5 14  1  0  0  0
  5 22  2  0  0  0
  6 22  1  0  0  0
  6 23  2  0  0  0
  7 16  1  0  0  0
  7 25  1  0  0  0
  7 26  1  0  0  0
  8 22  1  0  0  0
  8 27  1  0  0  0
  8 28  1  0  0  0
  9 10  2  0  0  0
  9 12  1  0  0  0
 10 13  1  0  0  0
 10 16  1  0  0  0
 11 13  2  0  0  0
 11 14  1  0  0  0
 12 15  1  0  0  0
 12 17  2  0  0  0
 13 29  1  0  0  0
 14 19  2  0  0  0
 15 18  2  0  0  0
 17 21  1  0  0  0
 17 30  1  0  0  0
 18 20  1  0  0  0
 18 31  1  0  0  0
 19 23  1  0  0  0
 19 32  1  0  0  0
 20 21  2  0  0  0
 21 33  1  0  0  0
 23 34  1  0  0  0
M  END
> <s_m_entry_id>
5901

> <s_m_entry_name>
dock_pv.296

> <s_m_Source_Path>
/home/csk/Desktop/cluster/DUD-E-result/igf1r

> <s_m_Source_File>
dock_pv.maegz

> <i_m_Source_File_Index>
296

> <chembl_id>
CHEMBL1965660

> <chembl_pref_name>
None

> <i_lp_mmshare_version>
53161

> <r_lp_tautomer_probability>
0.999999987636

> <s_lp_Force_Field>
OPLS_2005

> <r_lp_Energy>
0.92001

> <b_lp_Chiralities_Consistent>
1

> <s_lp_Variant>
CHEMBL1957_lig2871-1

> <s_i_glide_gridfile>
glide-grid_2oj9

> <i_i_glide_lignum>
3973

> <i_i_glide_rotatable_bonds>
3

> <r_i_docking_score>
-6.91999400621317

> <r_i_glide_ligand_efficiency>
-0.300869304617964

> <r_i_glide_ligand_efficiency_sa>
-0.855632279759653

> <r_i_glide_ligand_efficiency_ln>
-1.67331729773884

> <r_i_glide_gscore>
-6.91999400621317

> <r_i_glide_lipo>
-2.45143467727807

> <r_i_glide_hbond>
-0.338591120184976

> <r_i_glide_metal>
0

> <r_i_glide_rewards>
-1.67030817272657

> <r_i_glide_evdw>
-36.1015586853027

> <r_i_glide_ecoul>
-6.2150731086731

> <r_i_glide_erotb>
0.313997491508238

> <r_i_glide_esite>
-0.0363186269656911

> <r_i_glide_emodel>
-58.652160493071

> <r_i_glide_energy>
-42.3166317939758

> <r_i_glide_einternal>
3.94132304191589

> <i_i_glide_confnum>
3

> <i_i_glide_posenum>
30

> <r_i_glide_eff_state_penalty>
0

> <s_user_duplicate_titles>
CHEMBL1957_lig2871

> <i_f3d_flags>
0

> <s_m_subgroup_title>
dock_pv

> <s_m_subgroupid>
dock_pv

> <b_m_subgroup_collapsed>
1

$$$$
CHEMBL1957_lig809
                    3D
 Schrodinger Suite 2021-1.
 56 60  0  0  1  0            999 V2000
    4.0455   -1.6468   19.2498 C   0  0  0  0  0  0
    6.7470   -9.2674   22.8162 N   0  0  0  0  0  0
    8.8177  -10.7474   24.1841 O   0  0  0  0  0  0
    7.7383  -10.1749   24.9113 C   0  0  0  0  0  0
    5.5190   -1.6171   21.2064 N   0  0  0  0  0  0
    5.2425  -10.0599   20.4011 O   0  0  0  0  0  0
    7.2456   -8.9303   24.1546 C   0  0  0  0  0  0
    7.5790   -2.1828   24.2382 N   0  0  0  0  0  0
    3.5997   -4.2813   19.7609 C   0  0  0  0  0  0
    3.0494   -3.7636   18.6369 N   0  0  0  0  0  0
    7.8431   -9.9475   22.0956 C   0  0  0  0  0  0
    4.3366   -3.5737   20.6415 N   0  0  0  0  0  0
    8.4235  -11.1484   22.8786 C   0  0  0  0  0  0
    3.4978   -5.6712   19.9250 N   0  0  0  0  0  0
    8.5258   -5.3031   22.4559 C   0  0  0  0  0  0
    9.3122   -5.9014   23.4347 C   0  0  0  0  0  0
    9.5003   -5.2823   24.6657 C   0  0  0  0  0  0
    8.9436   -4.0333   24.9307 C   0  0  0  0  0  0
    4.8450   -6.2097   21.9240 C   0  0  0  0  0  0
    4.2623   -6.5608   20.7065 C   0  0  0  0  0  0
    4.4406   -7.8621   20.2407 C   0  0  0  0  0  0
    5.2091   -8.7937   20.9430 C   0  0  0  0  0  0
    5.8829   -8.4091   22.1276 C   0  0  0  0  0  0
    5.6487   -7.1102   22.6092 C   0  0  0  0  0  0
    4.7780  -11.1242   21.2307 C   0  0  0  0  0  0
    6.4356   -2.2173   22.0946 C   0  0  0  0  0  0
    7.0509   -3.4330   21.7859 C   0  0  0  0  0  0
    7.9050   -4.0585   22.7155 C   0  0  0  0  0  0
    8.1279   -3.3999   23.9618 C   0  0  0  0  0  0
    6.7605   -1.6204   23.3114 C   0  0  0  0  0  0
    3.2608   -2.4409   18.4022 C   0  0  0  0  0  0
    4.6115   -2.2795   20.3606 C   0  0  0  0  0  0
    4.2532   -0.6140   19.0174 H   0  0  0  0  0  0
    8.0668   -9.9014   25.9161 H   0  0  0  0  0  0
    6.9297  -10.8970   25.0409 H   0  0  0  0  0  0
    5.5893   -0.6183   21.0886 H   0  0  0  0  0  0
    6.4438   -8.4604   24.7106 H   0  0  0  0  0  0
    8.0395   -8.1916   24.0807 H   0  0  0  0  0  0
    8.6294   -9.2253   21.8730 H   0  0  0  0  0  0
    7.4934  -10.3279   21.1422 H   0  0  0  0  0  0
    9.3002  -11.5394   22.3581 H   0  0  0  0  0  0
    7.7043  -11.9674   22.9388 H   0  0  0  0  0  0
    3.0173   -6.1139   19.1572 H   0  0  0  0  0  0
    8.3697   -5.7946   21.5063 H   0  0  0  0  0  0
    9.7825   -6.8550   23.2386 H   0  0  0  0  0  0
   10.0816   -5.7777   25.4265 H   0  0  0  0  0  0
    9.1228   -3.5471   25.8794 H   0  0  0  0  0  0
    4.7061   -5.2362   22.3631 H   0  0  0  0  0  0
    3.9665   -8.1751   19.3209 H   0  0  0  0  0  0
    6.1090   -6.7479   23.5158 H   0  0  0  0  0  0
    4.4890  -11.9560   20.5926 H   0  0  0  0  0  0
    5.5404  -11.4917   21.9151 H   0  0  0  0  0  0
    3.8965  -10.8569   21.8145 H   0  0  0  0  0  0
    6.8701   -3.9203   20.8410 H   0  0  0  0  0  0
    6.3273   -0.6715   23.5873 H   0  0  0  0  0  0
    2.8299   -2.0467   17.4897 H   0  0  0  0  0  0
  1 31  2  0  0  0
  1 32  1  0  0  0
  1 33  1  0  0  0
  2  7  1  0  0  0
  2 11  1  0  0  0
  2 23  1  0  0  0
  3  4  1  0  0  0
  3 13  1  0  0  0
  4  7  1  0  0  0
  4 34  1  0  0  0
  4 35  1  0  0  0
  5 26  1  0  0  0
  5 32  1  0  0  0
  5 36  1  0  0  0
  6 22  1  0  0  0
  6 25  1  0  0  0
  7 37  1  0  0  0
  7 38  1  0  0  0
  8 29  2  0  0  0
  8 30  1  0  0  0
  9 10  2  0  0  0
  9 12  1  0  0  0
  9 14  1  0  0  0
 10 31  1  0  0  0
 11 13  1  0  0  0
 11 39  1  0  0  0
 11 40  1  0  0  0
 12 32  2  0  0  0
 13 41  1  0  0  0
 13 42  1  0  0  0
 14 20  1  0  0  0
 14 43  1  0  0  0
 15 16  2  0  0  0
 15 28  1  0  0  0
 15 44  1  0  0  0
 16 17  1  0  0  0
 16 45  1  0  0  0
 17 18  2  0  0  0
 17 46  1  0  0  0
 18 29  1  0  0  0
 18 47  1  0  0  0
 19 20  2  0  0  0
 19 24  1  0  0  0
 19 48  1  0  0  0
 20 21  1  0  0  0
 21 22  2  0  0  0
 21 49  1  0  0  0
 22 23  1  0  0  0
 23 24  2  0  0  0
 24 50  1  0  0  0
 25 51  1  0  0  0
 25 52  1  0  0  0
 25 53  1  0  0  0
 26 27  1  0  0  0
 26 30  2  0  0  0
 27 28  2  0  0  0
 27 54  1  0  0  0
 28 29  1  0  0  0
 30 55  1  0  0  0
 31 56  1  0  0  0
M  END
> <s_m_entry_id>
5902

> <s_m_entry_name>
dock_pv.297

> <s_m_Source_Path>
/home/csk/Desktop/cluster/DUD-E-result/igf1r

> <s_m_Source_File>
dock_pv.maegz

> <i_m_Source_File_Index>
297

> <chembl_id>
CHEMBL1738698

> <chembl_pref_name>
None

> <i_lp_mmshare_version>
53161

> <r_lp_tautomer_probability>
0.999999624730965

> <s_lp_Force_Field>
OPLS_2005

> <r_lp_Energy>
31.628902

> <b_lp_Chiralities_Consistent>
1

> <s_lp_Variant>
CHEMBL1957_lig809-1

> <s_i_glide_gridfile>
glide-grid_2oj9

> <i_i_glide_lignum>
1039

> <i_i_glide_rotatable_bonds>
6

> <r_i_docking_score>
-6.91350819244594

> <r_i_glide_ligand_efficiency>
-0.216047131013936

> <r_i_glide_ligand_efficiency_sa>
-0.685906885300075

> <r_i_glide_ligand_efficiency_ln>
-1.54812293940437

> <r_i_glide_gscore>
-6.91350819244594

> <r_i_glide_lipo>
-3.96332090526776

> <r_i_glide_hbond>
0

> <r_i_glide_metal>
0

> <r_i_glide_rewards>
-1.12038328213978

> <r_i_glide_evdw>
-49.8844566345215

> <r_i_glide_ecoul>
0.823057591915131

> <r_i_glide_erotb>
0.540960187900403

> <r_i_glide_esite>
0

> <r_i_glide_emodel>
-59.1025492016249

> <r_i_glide_energy>
-49.0613990426064

> <r_i_glide_einternal>
14.1802196502686

> <i_i_glide_confnum>
16

> <i_i_glide_posenum>
31

> <r_i_glide_eff_state_penalty>
0

> <s_user_duplicate_titles>
CHEMBL1957_lig809

> <i_f3d_flags>
0

> <s_m_subgroup_title>
dock_pv

> <s_m_subgroupid>
dock_pv

> <b_m_subgroup_collapsed>
1

$$$$
CHEMBL1957_lig2984
                    3D
 Schrodinger Suite 2021-1.
 47 50  0  0  1  0            999 V2000
    2.8386   -4.8647   18.8366 F   0  0  0  0  0  0
    6.1552   -4.4485   22.4867 O   0  0  0  0  0  0
    4.8380    1.1460   19.8380 O   0  0  0  0  0  0
   11.9429  -10.3397   26.2380 N   0  0  0  0  0  0
   12.0809   -9.2537   25.4595 N   0  0  0  0  0  0
   10.6558   -7.8585   24.2380 N   0  0  0  0  0  0
    5.2566   -6.5390   22.2347 N   0  0  0  0  0  0
    4.4380   -4.8800   21.0380 N   0  0  0  0  0  0
    9.8803   -9.8227   25.5518 C   0  0  0  0  0  0
    8.4794   -9.9875   25.4271 C   0  0  0  0  0  0
   10.6273  -10.7486   26.3291 C   0  0  0  0  0  0
   10.8829   -8.9218   25.0578 C   0  0  0  0  0  0
    7.6380   -9.0645   24.6187 C   0  0  0  0  0  0
    7.9020  -11.0840   26.0785 C   0  0  0  0  0  0
   10.0334  -11.8236   26.9950 C   0  0  0  0  0  0
    7.6191   -7.6934   24.8894 C   0  0  0  0  0  0
    6.8380   -9.5615   23.5855 C   0  0  0  0  0  0
    8.6552  -11.9694   26.8451 C   0  0  0  0  0  0
    6.0600   -7.3300   23.0761 C   0  0  0  0  0  0
    4.2285   -3.6540   20.3677 C   0  0  0  0  0  0
    6.8367   -6.8275   24.1297 C   0  0  0  0  0  0
    6.0513   -8.7026   22.8227 C   0  0  0  0  0  0
    3.4164   -3.7012   19.2247 C   0  0  0  0  0  0
    5.3457   -5.2192   21.9739 C   0  0  0  0  0  0
    4.8582   -2.4465   20.7064 C   0  0  0  0  0  0
    4.6990   -1.3132   19.9034 C   0  0  0  0  0  0
    3.2380   -2.5654   18.4390 C   0  0  0  0  0  0
    3.8834   -1.3787   18.7704 C   0  0  0  0  0  0
    5.4750   -0.0511   20.2377 C   0  0  0  0  0  0
    5.5263    1.7521   19.5025 H   0  0  0  0  0  0
   12.7539  -10.7684   26.6588 H   0  0  0  0  0  0
    9.7279   -7.6540   23.8969 H   0  0  0  0  0  0
   11.4107   -7.4022   23.7318 H   0  0  0  0  0  0
    4.5914   -7.0622   21.6883 H   0  0  0  0  0  0
    3.8518   -5.6260   20.6965 H   0  0  0  0  0  0
    6.8380  -11.2540   25.9922 H   0  0  0  0  0  0
   10.6090  -12.5211   27.5854 H   0  0  0  0  0  0
    8.2142   -7.2924   25.6983 H   0  0  0  0  0  0
    6.8246  -10.6205   23.3708 H   0  0  0  0  0  0
    8.1561  -12.7952   27.3318 H   0  0  0  0  0  0
    6.8455   -5.7779   24.3811 H   0  0  0  0  0  0
    5.4484   -9.1152   22.0265 H   0  0  0  0  0  0
    5.5067   -2.3769   21.5654 H   0  0  0  0  0  0
    2.6279   -2.6124   17.5499 H   0  0  0  0  0  0
    3.7634   -0.5156   18.1319 H   0  0  0  0  0  0
    6.4380   -0.1082   19.7372 H   0  0  0  0  0  0
    5.6722    0.0067   21.3091 H   0  0  0  0  0  0
  1 23  1  0  0  0
  2 24  2  0  0  0
  3 29  1  0  0  0
  3 30  1  0  0  0
  4  5  1  0  0  0
  4 11  1  0  0  0
  4 31  1  0  0  0
  5 12  2  0  0  0
  6 12  1  0  0  0
  6 32  1  0  0  0
  6 33  1  0  0  0
  7 19  1  0  0  0
  7 24  1  0  0  0
  7 34  1  0  0  0
  8 20  1  0  0  0
  8 24  1  0  0  0
  8 35  1  0  0  0
  9 10  2  0  0  0
  9 11  1  0  0  0
  9 12  1  0  0  0
 10 13  1  0  0  0
 10 14  1  0  0  0
 11 15  2  0  0  0
 13 16  2  0  0  0
 13 17  1  0  0  0
 14 18  2  0  0  0
 14 36  1  0  0  0
 15 18  1  0  0  0
 15 37  1  0  0  0
 16 21  1  0  0  0
 16 38  1  0  0  0
 17 22  2  0  0  0
 17 39  1  0  0  0
 18 40  1  0  0  0
 19 21  2  0  0  0
 19 22  1  0  0  0
 20 23  1  0  0  0
 20 25  2  0  0  0
 21 41  1  0  0  0
 22 42  1  0  0  0
 23 27  2  0  0  0
 25 26  1  0  0  0
 25 43  1  0  0  0
 26 28  2  0  0  0
 26 29  1  0  0  0
 27 28  1  0  0  0
 27 44  1  0  0  0
 28 45  1  0  0  0
 29 46  1  0  0  0
 29 47  1  0  0  0
M  END
> <s_m_entry_id>
5903

> <s_m_entry_name>
dock_pv.298

> <s_m_Source_Path>
/home/csk/Desktop/cluster/DUD-E-result/igf1r

> <s_m_Source_File>
dock_pv.maegz

> <i_m_Source_File_Index>
298

> <chembl_id>
CHEMBL1985311

> <chembl_pref_name>
None

> <i_lp_mmshare_version>
53161

> <r_lp_tautomer_probability>
1

> <s_lp_Force_Field>
OPLS_2005

> <r_lp_Energy>
30.096898

> <b_lp_Chiralities_Consistent>
1

> <s_lp_Variant>
CHEMBL1957_lig2984-1

> <s_i_glide_gridfile>
glide-grid_2oj9

> <i_i_glide_lignum>
4130

> <i_i_glide_rotatable_bonds>
7

> <r_i_docking_score>
-6.91269690384237

> <r_i_glide_ligand_efficiency>
-0.238368858753185

> <r_i_glide_ligand_efficiency_sa>
-0.732344654644937

> <r_i_glide_ligand_efficiency_ln>
-1.58283230011093

> <r_i_glide_gscore>
-6.91269690384237

> <r_i_glide_lipo>
-2.42464428713242

> <r_i_glide_hbond>
-0.42292808074529

> <r_i_glide_metal>
0

> <r_i_glide_rewards>
-1.61397996228063

> <r_i_glide_evdw>
-33.6806526184082

> <r_i_glide_ecoul>
-8.26070785522461

> <r_i_glide_erotb>
0.535011040476608

> <r_i_glide_esite>
-0.0630168049565261

> <r_i_glide_emodel>
-58.7078778026867

> <r_i_glide_energy>
-41.9413604736328

> <r_i_glide_einternal>
2.74960589408875

> <i_i_glide_confnum>
1

> <i_i_glide_posenum>
298

> <r_i_glide_eff_state_penalty>
0

> <s_user_duplicate_titles>
CHEMBL1957_lig2984

> <i_f3d_flags>
0

> <s_m_subgroup_title>
dock_pv

> <s_m_subgroupid>
dock_pv

> <b_m_subgroup_collapsed>
1

$$$$
CHEMBL1957_lig2905
                    3D
 Schrodinger Suite 2021-1.
 43 45  0  0  1  0            999 V2000
    8.8374   -6.9641   21.8737 O   0  0  0  0  0  0
   10.4274   -7.9695   23.8380 O   0  0  0  0  0  0
    5.3291   -4.3033   22.1764 N   0  0  0  0  0  0
    8.4075   -4.9881   22.9188 N   0  0  0  0  0  0
    4.0382   -5.7087   20.7107 N   0  0  0  0  0  0
    3.1290   -4.9657   18.5854 N   0  0  0  0  0  0
    3.2384   -2.5875   18.2372 N   0  0  0  0  0  0
    4.4778   -4.4508   21.0380 C   0  0  0  0  0  0
    4.1389   -3.3726   20.1701 C   0  0  0  0  0  0
    6.5827   -3.5155   21.9843 C   0  0  1  0  0  0
    3.4580   -3.7312   18.9653 C   0  0  0  0  0  0
    6.9166   -2.4722   23.0845 C   0  0  2  0  0  0
    7.8086   -4.4238   21.6757 C   0  0  0  0  0  0
    4.3307   -1.9486   20.0952 C   0  0  0  0  0  0
    7.4714   -3.1476   24.3358 C   0  0  0  0  0  0
    3.4289   -5.8989   19.5160 C   0  0  0  0  0  0
    3.7727   -1.5166   18.9080 C   0  0  0  0  0  0
    8.6445   -4.1229   24.1019 C   0  0  0  0  0  0
    8.9445   -6.2432   22.8734 C   0  0  0  0  0  0
    5.3519   -5.4540   23.0965 C   0  0  0  0  0  0
    5.7853   -1.4866   23.4430 C   0  0  0  0  0  0
    9.6918   -6.7884   24.1245 C   0  0  0  0  0  0
   11.0327   -7.7664   23.1040 H   0  0  0  0  0  0
    2.7831   -2.5181   17.3353 H   0  0  0  0  0  0
    6.4718   -2.9303   21.0745 H   0  0  0  0  0  0
    7.7382   -1.8786   22.6782 H   0  0  0  0  0  0
    8.5632   -3.8550   21.1303 H   0  0  0  0  0  0
    7.4186   -5.2186   21.0382 H   0  0  0  0  0  0
    4.8419   -1.3076   20.7895 H   0  0  0  0  0  0
    6.6592   -3.6426   24.8596 H   0  0  0  0  0  0
    7.8025   -2.3837   25.0396 H   0  0  0  0  0  0
    3.2389   -6.9220   19.2308 H   0  0  0  0  0  0
    3.7296   -0.5309   18.4689 H   0  0  0  0  0  0
    8.6495   -4.7129   25.0194 H   0  0  0  0  0  0
    9.5939   -3.6023   23.9959 H   0  0  0  0  0  0
    4.3437   -5.7958   23.3205 H   0  0  0  0  0  0
    5.8655   -6.2976   22.6340 H   0  0  0  0  0  0
    5.8320   -5.2562   24.0462 H   0  0  0  0  0  0
    4.8377   -1.9911   23.6263 H   0  0  0  0  0  0
    6.0281   -0.9113   24.3365 H   0  0  0  0  0  0
    5.6381   -0.7555   22.6529 H   0  0  0  0  0  0
    8.9779   -6.9949   24.9227 H   0  0  0  0  0  0
   10.4105   -6.0529   24.4877 H   0  0  0  0  0  0
  1 19  2  0  0  0
  2 22  1  0  0  0
  2 23  1  0  0  0
  3  8  1  0  0  0
  3 10  1  0  0  0
  3 20  1  0  0  0
  4 13  1  0  0  0
  4 18  1  0  0  0
  4 19  1  0  0  0
  5  8  2  0  0  0
  5 16  1  0  0  0
  6 11  1  0  0  0
  6 16  2  0  0  0
  7 11  1  0  0  0
  7 17  1  0  0  0
  7 24  1  0  0  0
  8  9  1  0  0  0
  9 11  2  0  0  0
  9 14  1  0  0  0
 10 12  1  0  0  0
 10 13  1  0  0  0
 10 25  1  0  0  0
 12 15  1  0  0  0
 12 21  1  0  0  0
 12 26  1  0  0  0
 13 27  1  0  0  0
 13 28  1  0  0  0
 14 17  2  0  0  0
 14 29  1  0  0  0
 15 18  1  0  0  0
 15 30  1  0  0  0
 15 31  1  0  0  0
 16 32  1  0  0  0
 17 33  1  0  0  0
 18 34  1  0  0  0
 18 35  1  0  0  0
 19 22  1  0  0  0
 20 36  1  0  0  0
 20 37  1  0  0  0
 20 38  1  0  0  0
 21 39  1  0  0  0
 21 40  1  0  0  0
 21 41  1  0  0  0
 22 42  1  0  0  0
 22 43  1  0  0  0
M  END
> <s_m_entry_id>
5904

> <s_m_entry_name>
dock_pv.299

> <s_m_Source_Path>
/home/csk/Desktop/cluster/DUD-E-result/igf1r

> <s_m_Source_File>
dock_pv.maegz

> <i_m_Source_File_Index>
299

> <chembl_id>
CHEMBL1969879

> <chembl_pref_name>
None

> <i_lp_mmshare_version>
53161

> <r_lp_tautomer_probability>
0.999998369746258

> <s_lp_Force_Field>
OPLS_2005

> <r_lp_Energy>
39.692297

> <b_lp_Chiralities_Consistent>
1

> <s_lp_Variant>
CHEMBL1957_lig2905-2

> <s_i_glide_gridfile>
glide-grid_2oj9

> <i_i_glide_lignum>
4017

> <i_i_glide_rotatable_bonds>
5

> <r_i_docking_score>
-6.9123352695589

> <r_i_glide_ligand_efficiency>
-0.314197057707223

> <r_i_glide_ligand_efficiency_sa>
-0.880392512364728

> <r_i_glide_ligand_efficiency_ln>
-1.6896268734353

> <r_i_glide_gscore>
-6.9123352695589

> <r_i_glide_lipo>
-1.98424547698406

> <r_i_glide_hbond>
-0.206092726739007

> <r_i_glide_metal>
0

> <r_i_glide_rewards>
-2.90987084660604

> <r_i_glide_evdw>
-29.4209537506104

> <r_i_glide_ecoul>
-7.33659791946411

> <r_i_glide_erotb>
0.800895927891503

> <r_i_glide_esite>
-0.0414847716711561

> <r_i_glide_emodel>
-48.6879076708731

> <r_i_glide_energy>
-36.7575516700745

> <r_i_glide_einternal>
7.37303304672241

> <i_i_glide_confnum>
49

> <i_i_glide_posenum>
232

> <r_i_glide_eff_state_penalty>
0

> <s_user_duplicate_titles>
CHEMBL1957_lig2905

> <i_f3d_flags>
0

> <s_m_subgroup_title>
dock_pv

> <s_m_subgroupid>
dock_pv

> <b_m_subgroup_collapsed>
1

$$$$
CHEMBL1957_lig2147
                    3D
 Schrodinger Suite 2021-1.
 45 48  0  0  1  0            999 V2000
    3.2432   -6.1125   19.1745 C   0  0  0  0  0  0
    4.2595   -7.0631   19.8275 C   0  0  0  0  0  0
    4.4623   -6.8050   21.3335 C   0  0  0  0  0  0
    5.7888   -7.3185   21.8741 C   0  0  0  0  0  0
    6.8428   -6.6679   22.5177 C   0  0  0  0  0  0
    7.7877   -7.6716   22.7761 C   0  0  0  0  0  0
    9.1002   -7.3681   23.4825 C   0  0  0  0  0  0
    8.8494   -6.2355   24.5119 C   0  0  0  0  0  0
    8.1017   -5.0500   23.8922 C   0  0  0  0  0  0
    8.3530   -3.7207   24.2383 C   0  0  0  0  0  0
    7.6743   -2.6760   23.7042 N   0  0  0  0  0  0
    6.7371   -2.9701   22.7727 C   0  0  0  0  0  0
    6.1645   -1.8429   22.1752 N   0  0  0  0  0  0
    5.3611   -1.7023   21.0376 C   0  0  0  0  0  0
    5.6331   -0.6328   20.1839 C   0  0  0  0  0  0
    4.8831   -0.4549   19.0274 C   0  0  0  0  0  0
    3.8333   -1.3263   18.7464 C   0  0  0  0  0  0
    3.5241   -2.3683   19.6174 C   0  0  0  0  0  0
    4.2953   -2.5638   20.7615 C   0  0  0  0  0  0
    6.4024   -4.2249   22.3632 N   0  0  0  0  0  0
    7.0921   -5.2531   22.9309 C   0  0  0  0  0  0
    7.4023   -8.8491   22.3572 N   0  0  0  0  0  0
    6.1870   -8.6435   21.8379 N   0  0  0  0  0  0
    5.5153   -9.7904   21.2428 C   0  0  0  0  0  0
    2.9947   -6.4447   18.1687 H   0  0  0  0  0  0
    2.3185   -6.0532   19.7420 H   0  0  0  0  0  0
    3.6379   -5.1026   19.0958 H   0  0  0  0  0  0
    5.2087   -6.9761   19.2990 H   0  0  0  0  0  0
    3.9314   -8.0898   19.6664 H   0  0  0  0  0  0
    3.6345   -7.2415   21.8913 H   0  0  0  0  0  0
    4.3943   -5.7348   21.5201 H   0  0  0  0  0  0
    9.8591   -7.0655   22.7620 H   0  0  0  0  0  0
    9.5001   -8.2534   23.9777 H   0  0  0  0  0  0
    9.7960   -5.9092   24.9455 H   0  0  0  0  0  0
    8.2605   -6.6327   25.3398 H   0  0  0  0  0  0
    9.1151   -3.4724   24.9628 H   0  0  0  0  0  0
    6.5807   -0.9868   22.5048 H   0  0  0  0  0  0
    6.4385    0.0551   20.3912 H   0  0  0  0  0  0
    5.1334    0.3462   18.3483 H   0  0  0  0  0  0
    3.2475   -1.1909   17.8482 H   0  0  0  0  0  0
    2.6949   -3.0241   19.3984 H   0  0  0  0  0  0
    4.0579   -3.3736   21.4339 H   0  0  0  0  0  0
    5.8371   -9.8993   20.2066 H   0  0  0  0  0  0
    5.7594  -10.6998   21.7946 H   0  0  0  0  0  0
    4.4380   -9.6558   21.2727 H   0  0  0  0  0  0
  1  2  1  0  0  0
  1 25  1  0  0  0
  1 26  1  0  0  0
  1 27  1  0  0  0
  2  3  1  0  0  0
  2 28  1  0  0  0
  2 29  1  0  0  0
  3  4  1  0  0  0
  3 30  1  0  0  0
  3 31  1  0  0  0
  4  5  2  0  0  0
  4 23  1  0  0  0
  5  6  1  0  0  0
  5 21  1  0  0  0
  6  7  1  0  0  0
  6 22  2  0  0  0
  7  8  1  0  0  0
  7 32  1  0  0  0
  7 33  1  0  0  0
  8  9  1  0  0  0
  8 34  1  0  0  0
  8 35  1  0  0  0
  9 10  2  0  0  0
  9 21  1  0  0  0
 10 11  1  0  0  0
 10 36  1  0  0  0
 11 12  2  0  0  0
 12 13  1  0  0  0
 12 20  1  0  0  0
 13 14  1  0  0  0
 13 37  1  0  0  0
 14 15  2  0  0  0
 14 19  1  0  0  0
 15 16  1  0  0  0
 15 38  1  0  0  0
 16 17  2  0  0  0
 16 39  1  0  0  0
 17 18  1  0  0  0
 17 40  1  0  0  0
 18 19  2  0  0  0
 18 41  1  0  0  0
 19 42  1  0  0  0
 20 21  2  0  0  0
 22 23  1  0  0  0
 23 24  1  0  0  0
 24 43  1  0  0  0
 24 44  1  0  0  0
 24 45  1  0  0  0
M  END
> <s_m_entry_id>
5905

> <s_m_entry_name>
dock_pv.300

> <s_m_Source_Path>
/home/csk/Desktop/cluster/DUD-E-result/igf1r

> <s_m_Source_File>
dock_pv.maegz

> <i_m_Source_File_Index>
300

> <chembl_id>
CHEMBL3656590

> <chembl_pref_name>
None

> <i_lp_mmshare_version>
53161

> <r_lp_tautomer_probability>
0.999999987636

> <s_lp_Force_Field>
OPLS_2005

> <r_lp_Energy>
10.622055

> <b_lp_Chiralities_Consistent>
1

> <s_lp_Variant>
CHEMBL1957_lig2147-1

> <s_i_glide_gridfile>
glide-grid_2oj9

> <i_i_glide_lignum>
3121

> <i_i_glide_rotatable_bonds>
4

> <r_i_docking_score>
-6.91217870782619

> <r_i_glide_ligand_efficiency>
-0.288007446159424

> <r_i_glide_ligand_efficiency_sa>
-0.830757230057464

> <r_i_glide_ligand_efficiency_ln>
-1.65440154399603

> <r_i_glide_gscore>
-6.91217870782619

> <r_i_glide_lipo>
-3.23648853635916

> <r_i_glide_hbond>
0

> <r_i_glide_metal>
0

> <r_i_glide_rewards>
-2.01535574542607

> <r_i_glide_evdw>
-41.0955200195312

> <r_i_glide_ecoul>
-1.02822577953339

> <r_i_glide_erotb>
0.548675441865619

> <r_i_glide_esite>
0

> <r_i_glide_emodel>
-56.9874328161871

> <r_i_glide_energy>
-42.1237457990646

> <r_i_glide_einternal>
4.33250045776367

> <i_i_glide_confnum>
19

> <i_i_glide_posenum>
379

> <r_i_glide_eff_state_penalty>
0

> <s_user_duplicate_titles>
CHEMBL1957_lig2147

> <i_f3d_flags>
0

> <s_m_subgroup_title>
dock_pv

> <s_m_subgroupid>
dock_pv

> <b_m_subgroup_collapsed>
1

$$$$
CHEMBL1957_lig3255
                    3D
 Schrodinger Suite 2021-1.
 53 56  0  0  1  0            999 V2000
    4.0399   -6.7261   19.4343 F   0  0  0  0  0  0
    5.4839  -10.4804   21.8827 F   0  0  0  0  0  0
    9.2380   -7.1280   21.7421 O   0  0  0  0  0  0
    5.4767   -2.7326   21.3157 N   0  0  0  0  0  0
    4.0376   -4.3402   20.6380 N   0  0  0  0  0  0
    7.4783   -5.1239   23.3235 N   0  0  0  0  0  0
    4.5740   -0.8759   19.4357 N   0  0  0  0  0  0
    9.0265   -4.0527   24.8304 N   0  0  0  0  0  0
    9.1009   -6.3338   24.6575 N   0  0  0  0  0  0
    5.7518   -3.8779   22.0639 C   0  0  0  0  0  0
    4.8874   -4.8657   21.4992 C   0  0  0  0  0  0
    4.4372   -3.0728   20.4398 C   0  0  0  0  0  0
    6.8493   -3.9300   23.1112 C   0  0  0  0  0  0
    4.8644   -6.3683   21.6662 C   0  0  0  0  0  0
    4.0304   -2.1186   19.4825 C   0  0  0  0  0  0
    6.0377   -1.4762   21.2482 C   0  0  0  0  0  0
    4.5740   -7.2123   20.5734 C   0  0  0  0  0  0
    5.1913   -6.9766   22.8827 C   0  0  0  0  0  0
    7.2328   -2.7930   23.8375 C   0  0  0  0  0  0
    5.5624   -0.5725   20.3035 C   0  0  0  0  0  0
    8.5192   -5.1412   24.2109 C   0  0  0  0  0  0
    4.8122   -8.5815   20.6365 C   0  0  0  0  0  0
    5.3855   -8.3569   22.9560 C   0  0  0  0  0  0
    5.2425   -9.1527   21.8230 C   0  0  0  0  0  0
    8.3678   -2.8902   24.6378 C   0  0  0  0  0  0
    3.0242   -2.4099   18.3905 C   0  0  0  0  0  0
    8.4728   -7.6489   24.5631 C   0  0  0  0  0  0
    9.2072   -8.6995   23.6788 C   0  0  0  0  0  0
    8.9867   -8.4511   22.1582 C   0  0  0  0  0  0
   10.7168   -8.7376   24.0256 C   0  0  0  0  0  0
    8.6300  -10.0979   24.0097 C   0  0  0  0  0  0
   10.1854   -6.9427   21.8636 H   0  0  0  0  0  0
    9.9030   -6.2486   25.2624 H   0  0  0  0  0  0
    6.8767   -1.2492   21.8729 H   0  0  0  0  0  0
    5.3345   -6.3803   23.7714 H   0  0  0  0  0  0
    6.6917   -1.8629   23.7977 H   0  0  0  0  0  0
    6.0012    0.4073   20.2033 H   0  0  0  0  0  0
    4.6342   -9.2035   19.7721 H   0  0  0  0  0  0
    5.6671   -8.8184   23.8856 H   0  0  0  0  0  0
    8.7244   -2.0548   25.2136 H   0  0  0  0  0  0
    3.2348   -3.3713   17.9208 H   0  0  0  0  0  0
    2.0381   -2.4544   18.8340 H   0  0  0  0  0  0
    3.0232   -1.6531   17.6050 H   0  0  0  0  0  0
    7.4428   -7.5364   24.2459 H   0  0  0  0  0  0
    8.4137   -8.0229   25.5863 H   0  0  0  0  0  0
    7.9631   -8.6842   21.8719 H   0  0  0  0  0  0
    9.6226   -9.1147   21.5694 H   0  0  0  0  0  0
   10.8809   -8.9766   25.0777 H   0  0  0  0  0  0
   11.2375   -9.4926   23.4378 H   0  0  0  0  0  0
   11.2105   -7.7844   23.8385 H   0  0  0  0  0  0
    8.7609  -10.3508   25.0630 H   0  0  0  0  0  0
    7.5638  -10.1627   23.7948 H   0  0  0  0  0  0
    9.1198  -10.8814   23.4288 H   0  0  0  0  0  0
  1 17  1  0  0  0
  2 24  1  0  0  0
  3 29  1  0  0  0
  3 32  1  0  0  0
  4 10  1  0  0  0
  4 12  1  0  0  0
  4 16  1  0  0  0
  5 11  1  0  0  0
  5 12  2  0  0  0
  6 13  1  0  0  0
  6 21  2  0  0  0
  7 15  2  0  0  0
  7 20  1  0  0  0
  8 21  1  0  0  0
  8 25  2  0  0  0
  9 21  1  0  0  0
  9 27  1  0  0  0
  9 33  1  0  0  0
 10 11  2  0  0  0
 10 13  1  0  0  0
 11 14  1  0  0  0
 12 15  1  0  0  0
 13 19  2  0  0  0
 14 17  1  0  0  0
 14 18  2  0  0  0
 15 26  1  0  0  0
 16 20  2  0  0  0
 16 34  1  0  0  0
 17 22  2  0  0  0
 18 23  1  0  0  0
 18 35  1  0  0  0
 19 25  1  0  0  0
 19 36  1  0  0  0
 20 37  1  0  0  0
 22 24  1  0  0  0
 22 38  1  0  0  0
 23 24  2  0  0  0
 23 39  1  0  0  0
 25 40  1  0  0  0
 26 41  1  0  0  0
 26 42  1  0  0  0
 26 43  1  0  0  0
 27 28  1  0  0  0
 27 44  1  0  0  0
 27 45  1  0  0  0
 28 29  1  0  0  0
 28 30  1  0  0  0
 28 31  1  0  0  0
 29 46  1  0  0  0
 29 47  1  0  0  0
 30 48  1  0  0  0
 30 49  1  0  0  0
 30 50  1  0  0  0
 31 51  1  0  0  0
 31 52  1  0  0  0
 31 53  1  0  0  0
M  END
> <s_m_entry_id>
5907

> <s_m_entry_name>
dock_pv.302

> <s_m_Source_Path>
/home/csk/Desktop/cluster/DUD-E-result/igf1r

> <s_m_Source_File>
dock_pv.maegz

> <i_m_Source_File_Index>
302

> <chembl_id>
CHEMBL1991678

> <chembl_pref_name>
None

> <i_lp_mmshare_version>
53161

> <r_lp_tautomer_probability>
0.999999987636

> <s_lp_Force_Field>
OPLS_2005

> <r_lp_Energy>
21.148238

> <b_lp_Chiralities_Consistent>
1

> <s_lp_Variant>
CHEMBL1957_lig3255-1

> <s_i_glide_gridfile>
glide-grid_2oj9

> <i_i_glide_lignum>
4548

> <i_i_glide_rotatable_bonds>
7

> <r_i_docking_score>
-6.90842732411

> <r_i_glide_ligand_efficiency>
-0.222852494326129

> <r_i_glide_ligand_efficiency_sa>
-0.700064513211927

> <r_i_glide_ligand_efficiency_ln>
-1.55806207945794

> <r_i_glide_gscore>
-6.90842732411

> <r_i_glide_lipo>
-2.97547225147893

> <r_i_glide_hbond>
-0.36391206469868

> <r_i_glide_metal>
0

> <r_i_glide_rewards>
-1.47925195200953

> <r_i_glide_evdw>
-42.9712677001953

> <r_i_glide_ecoul>
-4.01071071624756

> <r_i_glide_erotb>
0.660378936524038

> <r_i_glide_esite>
0

> <r_i_glide_emodel>
-60.5651221742825

> <r_i_glide_energy>
-46.9819784164429

> <r_i_glide_einternal>
7.13501882553101

> <i_i_glide_confnum>
5

> <i_i_glide_posenum>
78

> <r_i_glide_eff_state_penalty>
0

> <s_user_duplicate_titles>
CHEMBL1957_lig3255

> <i_f3d_flags>
0

> <s_m_subgroup_title>
dock_pv

> <s_m_subgroupid>
dock_pv

> <b_m_subgroup_collapsed>
1

$$$$
CHEMBL1957_lig2961
                    3D
 Schrodinger Suite 2021-1.
 33 35  0  0  1  0            999 V2000
    3.6378   -5.0997   20.2903 Cl  0  0  0  0  0  0
    2.8384   -2.4359   18.8361 Cl  0  0  0  0  0  0
    5.9623  -12.4704   20.3622 Cl  0  0  0  0  0  0
    7.4803   -2.4702   23.0163 S   0  0  0  0  0  0
    8.2094   -6.1335   24.0818 O   0  0  0  0  0  0
    5.2176   -6.6963   23.8005 O   0  0  0  0  0  0
    6.1779   -6.0206   21.8374 N   0  0  0  0  0  0
    9.6376   -4.4540   23.8595 N   0  0  0  0  0  0
    5.6277   -3.6180   21.5116 C   0  0  0  0  0  0
    6.3776   -4.6835   22.1381 C   0  0  0  0  0  0
    6.2151   -2.3498   21.8110 C   0  0  0  0  0  0
    7.4542   -4.2218   22.9167 C   0  0  0  0  0  0
    4.5018   -3.6334   20.6384 C   0  0  0  0  0  0
    4.1204   -2.4486   19.9955 C   0  0  0  0  0  0
    5.8055   -1.1723   21.1754 C   0  0  0  0  0  0
    8.4366   -5.0018   23.6667 C   0  0  0  0  0  0
    4.7853   -1.2537   20.2380 C   0  0  0  0  0  0
    5.6288   -6.9283   22.6634 C   0  0  0  0  0  0
    5.6389   -8.3199   22.0992 C   0  0  0  0  0  0
    5.1586   -8.5778   20.8077 C   0  0  0  0  0  0
    6.1897   -9.3586   22.8551 C   0  0  0  0  0  0
    5.2379   -9.8623   20.2793 C   0  0  0  0  0  0
    6.2889  -10.6377   22.3140 C   0  0  0  0  0  0
    5.8149  -10.8856   21.0290 C   0  0  0  0  0  0
    6.6001   -6.3737   20.9932 H   0  0  0  0  0  0
    9.9116   -3.5668   23.4394 H   0  0  0  0  0  0
   10.3356   -5.0075   24.3306 H   0  0  0  0  0  0
    6.2938   -0.2287   21.3766 H   0  0  0  0  0  0
    4.4842   -0.3641   19.7023 H   0  0  0  0  0  0
    4.7239   -7.7934   20.2039 H   0  0  0  0  0  0
    6.5674   -9.1736   23.8513 H   0  0  0  0  0  0
    4.8642  -10.0536   19.2846 H   0  0  0  0  0  0
    6.7278  -11.4352   22.8951 H   0  0  0  0  0  0
  1 13  1  0  0  0
  2 14  1  0  0  0
  3 24  1  0  0  0
  4 11  1  0  0  0
  4 12  1  0  0  0
  5 16  2  0  0  0
  6 18  2  0  0  0
  7 10  1  0  0  0
  7 18  1  0  0  0
  7 25  1  0  0  0
  8 16  1  0  0  0
  8 26  1  0  0  0
  8 27  1  0  0  0
  9 10  1  0  0  0
  9 11  1  0  0  0
  9 13  2  0  0  0
 10 12  2  0  0  0
 11 15  2  0  0  0
 12 16  1  0  0  0
 13 14  1  0  0  0
 14 17  2  0  0  0
 15 17  1  0  0  0
 15 28  1  0  0  0
 17 29  1  0  0  0
 18 19  1  0  0  0
 19 20  2  0  0  0
 19 21  1  0  0  0
 20 22  1  0  0  0
 20 30  1  0  0  0
 21 23  2  0  0  0
 21 31  1  0  0  0
 22 24  2  0  0  0
 22 32  1  0  0  0
 23 24  1  0  0  0
 23 33  1  0  0  0
M  END
> <s_m_entry_id>
5908

> <s_m_entry_name>
dock_pv.303

> <s_m_Source_Path>
/home/csk/Desktop/cluster/DUD-E-result/igf1r

> <s_m_Source_File>
dock_pv.maegz

> <i_m_Source_File_Index>
303

> <chembl_id>
CHEMBL2003271

> <chembl_pref_name>
None

> <i_lp_mmshare_version>
53161

> <r_lp_tautomer_probability>
1

> <s_lp_Force_Field>
OPLS_2005

> <r_lp_Energy>
27.090165

> <b_lp_Chiralities_Consistent>
1

> <s_lp_Variant>
CHEMBL1957_lig2961-1

> <s_i_glide_gridfile>
glide-grid_2oj9

> <i_i_glide_lignum>
4095

> <i_i_glide_rotatable_bonds>
4

> <r_i_docking_score>
-6.90687474493357

> <r_i_glide_ligand_efficiency>
-0.287786447705566

> <r_i_glide_ligand_efficiency_sa>
-0.830119760207906

> <r_i_glide_ligand_efficiency_ln>
-1.65313206229283

> <r_i_glide_gscore>
-6.90687474493357

> <r_i_glide_lipo>
-3.18811523409952

> <r_i_glide_hbond>
-0.32

> <r_i_glide_metal>
0

> <r_i_glide_rewards>
-1.4457611253751

> <r_i_glide_evdw>
-39.7285346984863

> <r_i_glide_ecoul>
-2.03371572494507

> <r_i_glide_erotb>
0.368031498085728

> <r_i_glide_esite>
-0.029545789878608

> <r_i_glide_emodel>
-52.6566726407976

> <r_i_glide_energy>
-41.7622504234314

> <r_i_glide_einternal>
9.98813724517822

> <i_i_glide_confnum>
6

> <i_i_glide_posenum>
161

> <r_i_glide_eff_state_penalty>
0

> <s_user_duplicate_titles>
CHEMBL1957_lig2961

> <i_f3d_flags>
0

> <s_m_subgroup_title>
dock_pv

> <s_m_subgroupid>
dock_pv

> <b_m_subgroup_collapsed>
1

$$$$
CHEMBL1957_lig1553
                    3D
 Schrodinger Suite 2021-1.
 40 43  0  0  1  0            999 V2000
    8.3443   -5.4426   22.8791 N   0  0  0  0  0  0
    8.2995   -7.7689   22.7744 N   0  0  0  0  0  0
    7.6715   -6.6065   22.4867 C   0  0  0  0  0  0
    6.4551   -6.5144   21.8962 N   0  0  0  0  0  0
    5.8135   -7.6656   21.5552 C   0  0  0  0  0  0
    4.5842   -7.5554   20.8814 N   0  0  0  0  0  0
    7.6430   -8.9108   22.4566 C   0  0  0  0  0  0
    6.3859   -8.9293   21.8325 C   0  0  0  0  0  0
    4.0572   -6.4267   20.3021 C   0  0  0  0  0  0
    4.0289   -5.0828   20.6380 C   0  0  0  0  0  0
    3.4176   -4.4184   19.5518 C   0  0  0  0  0  0
    3.1585   -5.2635   18.5808 N   0  0  0  0  0  0
    3.5417   -6.4540   19.0382 N   0  0  0  0  0  0
    3.0838   -2.9553   19.3518 C   0  0  0  0  0  0
    3.0586   -2.0546   20.5541 C   0  0  0  0  0  0
    4.1190   -1.8711   19.4807 C   0  0  0  0  0  0
    7.8601   -4.1355   23.0612 C   0  0  0  0  0  0
    8.1792   -3.4369   24.2371 C   0  0  0  0  0  0
    7.6386   -2.1720   24.4682 C   0  0  0  0  0  0
    6.7838   -1.5860   23.5408 C   0  0  0  0  0  0
    6.4802   -2.2613   22.3631 C   0  0  0  0  0  0
    7.0167   -3.5270   22.1222 C   0  0  0  0  0  0
    5.7661  -10.2282   21.4608 N   0  3  0  0  0  0
    6.2355  -11.2487   21.9536 O   0  5  0  0  0  0
    4.8380  -10.2470   20.6574 O   0  0  0  0  0  0
    9.2379   -4.1047   25.4368 Cl  0  0  0  0  0  0
    6.1165   -0.0228   23.8415 Cl  0  0  0  0  0  0
    9.2246   -5.6273   23.3386 H   0  0  0  0  0  0
    4.2338   -8.4676   20.6186 H   0  0  0  0  0  0
    8.1669   -9.8273   22.6962 H   0  0  0  0  0  0
    4.4378   -4.6398   21.5339 H   0  0  0  0  0  0
    3.5495   -7.2758   18.4464 H   0  0  0  0  0  0
    2.3328   -2.7765   18.5804 H   0  0  0  0  0  0
    3.3462   -2.4552   21.5263 H   0  0  0  0  0  0
    2.2354   -1.3470   20.6381 H   0  0  0  0  0  0
    4.0515   -1.0156   18.8083 H   0  0  0  0  0  0
    5.1483   -2.1924   19.6337 H   0  0  0  0  0  0
    7.8893   -1.6538   25.3791 H   0  0  0  0  0  0
    5.8324   -1.7958   21.6405 H   0  0  0  0  0  0
    6.7741   -4.0316   21.1995 H   0  0  0  0  0  0
  1  3  1  0  0  0
  1 17  1  0  0  0
  1 28  1  0  0  0
  2  7  1  0  0  0
  2  3  2  0  0  0
  3  4  1  0  0  0
  4  5  2  0  0  0
  5  8  1  0  0  0
  5  6  1  0  0  0
  6  9  1  0  0  0
  6 29  1  0  0  0
  7  8  2  0  0  0
  7 30  1  0  0  0
  8 23  1  0  0  0
  9 10  2  0  0  0
  9 13  1  0  0  0
 10 11  1  0  0  0
 10 31  1  0  0  0
 11 12  2  0  0  0
 11 14  1  0  0  0
 12 13  1  0  0  0
 13 32  1  0  0  0
 14 15  1  0  0  0
 14 16  1  0  0  0
 14 33  1  0  0  0
 15 16  1  0  0  0
 15 34  1  0  0  0
 15 35  1  0  0  0
 16 36  1  0  0  0
 16 37  1  0  0  0
 17 18  2  0  0  0
 17 22  1  0  0  0
 18 19  1  0  0  0
 18 26  1  0  0  0
 19 20  2  0  0  0
 19 38  1  0  0  0
 20 21  1  0  0  0
 20 27  1  0  0  0
 21 22  2  0  0  0
 21 39  1  0  0  0
 22 40  1  0  0  0
 23 24  1  0  0  0
 23 25  2  0  0  0
M  CHG  2  23   1  24  -1
M  END
> <s_m_entry_id>
5909

> <s_m_entry_name>
dock_pv.304

> <s_m_Source_Path>
/home/csk/Desktop/cluster/DUD-E-result/igf1r

> <s_m_Source_File>
dock_pv.maegz

> <i_m_Source_File_Index>
304

> <chembl_id>
CHEMBL3938497

> <chembl_pref_name>
None

> <i_lp_mmshare_version>
53161

> <r_lp_tautomer_probability>
0.157399990546105

> <s_lp_Force_Field>
OPLS_2005

> <r_lp_Energy>
10.119433

> <b_lp_Chiralities_Consistent>
1

> <s_lp_Variant>
CHEMBL1957_lig1553-2

> <s_i_glide_gridfile>
glide-grid_2oj9

> <i_i_glide_lignum>
2224

> <i_i_glide_rotatable_bonds>
6

> <r_i_docking_score>
-6.90507804239501

> <r_i_glide_ligand_efficiency>
-0.255743631199815

> <r_i_glide_ligand_efficiency_sa>
-0.767230892756557

> <r_i_glide_ligand_efficiency_ln>
-1.60738832916102

> <r_i_glide_gscore>
-6.90507804239501

> <r_i_glide_lipo>
-2.83995067795466

> <r_i_glide_hbond>
-0.28017369277675

> <r_i_glide_metal>
0

> <r_i_glide_rewards>
-1.87086282390337

> <r_i_glide_evdw>
-40.7882766723633

> <r_i_glide_ecoul>
-1.94442915916443

> <r_i_glide_erotb>
0.41698735973259

> <r_i_glide_esite>
0

> <r_i_glide_emodel>
-57.7178435414307

> <r_i_glide_energy>
-42.7327058315277

> <r_i_glide_einternal>
2.40775942802429

> <i_i_glide_confnum>
3

> <i_i_glide_posenum>
19

> <r_i_glide_eff_state_penalty>
0

> <s_user_duplicate_titles>
CHEMBL1957_lig1553

> <i_f3d_flags>
0

> <s_m_subgroup_title>
dock_pv

> <s_m_subgroupid>
dock_pv

> <b_m_subgroup_collapsed>
1

$$$$
CHEMBL1957_lig2745
                    3D
 Schrodinger Suite 2021-1.
 41 44  0  0  1  0            999 V2000
    5.9136   -8.6267   21.4394 O   0  0  0  0  0  0
    8.3920   -5.1873   23.3436 N   0  0  0  0  0  0
    7.5210   -9.1550   22.9115 N   0  0  0  0  0  0
    6.0380   -0.5407   22.8442 N   0  0  0  0  0  0
    7.1685   -6.8886   22.5320 C   0  0  0  0  0  0
    7.3160   -4.6180   22.7046 C   0  0  0  0  0  0
    8.3339   -6.5506   23.2064 C   0  0  0  0  0  0
    6.6012   -5.6709   22.1387 C   0  0  0  0  0  0
    6.9995   -3.1680   22.7159 C   0  0  0  0  0  0
    6.7664   -8.2487   22.2385 C   0  0  0  0  0  0
    9.2471   -7.5816   23.8230 C   0  0  0  0  0  0
    6.4379   -2.5609   21.5893 C   0  0  0  0  0  0
    7.1459   -2.4169   23.8849 C   0  0  0  0  0  0
    5.9471   -1.2536   21.6906 C   0  0  0  0  0  0
    8.3831   -8.8474   24.0782 C   0  0  0  0  0  0
    6.6509   -1.1139   23.9104 C   0  0  0  0  0  0
    5.2383   -0.5689   20.5930 C   0  0  0  0  0  0
    4.3746   -1.0596   19.6745 C   0  0  0  0  0  0
    3.8527   -2.4318   19.4857 C   0  0  0  0  0  0
    3.5538   -2.8287   18.1816 C   0  0  0  0  0  0
    3.7088   -3.3589   20.5238 C   0  0  0  0  0  0
    3.2380   -4.1525   17.8973 C   0  0  0  0  0  0
    3.4255   -4.6939   20.2380 C   0  0  0  0  0  0
    3.2323   -5.0937   18.9208 C   0  0  0  0  0  0
    9.1108   -4.6808   23.8411 H   0  0  0  0  0  0
    7.4003  -10.1196   22.6421 H   0  0  0  0  0  0
    5.6987   -5.5725   21.5558 H   0  0  0  0  0  0
    9.7167   -7.2352   24.7444 H   0  0  0  0  0  0
   10.0583   -7.8212   23.1354 H   0  0  0  0  0  0
    6.3447   -3.1132   20.6653 H   0  0  0  0  0  0
    7.5962   -2.8469   24.7657 H   0  0  0  0  0  0
    9.0214   -9.7053   24.2941 H   0  0  0  0  0  0
    7.7457   -8.7008   24.9527 H   0  0  0  0  0  0
    6.7358   -0.5077   24.8002 H   0  0  0  0  0  0
    5.4650    0.4858   20.5126 H   0  0  0  0  0  0
    3.9949   -0.3409   18.9629 H   0  0  0  0  0  0
    3.6077   -2.1196   17.3722 H   0  0  0  0  0  0
    3.8689   -3.0668   21.5504 H   0  0  0  0  0  0
    3.0379   -4.4537   16.8807 H   0  0  0  0  0  0
    3.3707   -5.4235   21.0334 H   0  0  0  0  0  0
    3.0267   -6.1312   18.6995 H   0  0  0  0  0  0
  1 10  2  0  0  0
  2  6  1  0  0  0
  2  7  1  0  0  0
  2 25  1  0  0  0
  3 10  1  0  0  0
  3 15  1  0  0  0
  3 26  1  0  0  0
  4 14  1  0  0  0
  4 16  2  0  0  0
  5  7  2  0  0  0
  5  8  1  0  0  0
  5 10  1  0  0  0
  6  8  2  0  0  0
  6  9  1  0  0  0
  7 11  1  0  0  0
  8 27  1  0  0  0
  9 12  1  0  0  0
  9 13  2  0  0  0
 11 15  1  0  0  0
 11 28  1  0  0  0
 11 29  1  0  0  0
 12 14  2  0  0  0
 12 30  1  0  0  0
 13 16  1  0  0  0
 13 31  1  0  0  0
 14 17  1  0  0  0
 15 32  1  0  0  0
 15 33  1  0  0  0
 16 34  1  0  0  0
 17 18  2  3  0  0
 17 35  1  0  0  0
 18 19  1  0  0  0
 18 36  1  0  0  0
 19 20  2  0  0  0
 19 21  1  0  0  0
 20 22  1  0  0  0
 20 37  1  0  0  0
 21 23  2  0  0  0
 21 38  1  0  0  0
 22 24  2  0  0  0
 22 39  1  0  0  0
 23 24  1  0  0  0
 23 40  1  0  0  0
 24 41  1  0  0  0
M  END
> <s_m_entry_id>
5910

> <s_m_entry_name>
dock_pv.305

> <s_m_Source_Path>
/home/csk/Desktop/cluster/DUD-E-result/igf1r

> <s_m_Source_File>
dock_pv.maegz

> <i_m_Source_File_Index>
305

> <chembl_id>
CHEMBL1997129

> <chembl_pref_name>
None

> <i_lp_mmshare_version>
53161

> <r_lp_tautomer_probability>
1

> <s_lp_Force_Field>
OPLS_2005

> <r_lp_Energy>
27.263764

> <b_lp_Chiralities_Consistent>
1

> <s_lp_Variant>
CHEMBL1957_lig2745-2

> <s_i_glide_gridfile>
glide-grid_2oj9

> <i_i_glide_lignum>
3797

> <i_i_glide_rotatable_bonds>
3

> <r_i_docking_score>
-6.90488733548679

> <r_i_glide_ligand_efficiency>
-0.287703638978616

> <r_i_glide_ligand_efficiency_sa>
-0.829880898506439

> <r_i_glide_ligand_efficiency_ln>
-1.65265638401594

> <r_i_glide_gscore>
-6.90488733548679

> <r_i_glide_lipo>
-3.41581138678747

> <r_i_glide_hbond>
0

> <r_i_glide_metal>
0

> <r_i_glide_rewards>
-1.90156492774302

> <r_i_glide_evdw>
-37.7969627380371

> <r_i_glide_ecoul>
-1.72504496574402

> <r_i_glide_erotb>
0.561093860807163

> <r_i_glide_esite>
0

> <r_i_glide_emodel>
-54.2507224051736

> <r_i_glide_energy>
-39.5220077037811

> <r_i_glide_einternal>
4.59021329879761

> <i_i_glide_confnum>
9

> <i_i_glide_posenum>
200

> <r_i_glide_eff_state_penalty>
0

> <s_user_duplicate_titles>
CHEMBL1957_lig2745

> <i_f3d_flags>
0

> <s_m_subgroup_title>
dock_pv

> <s_m_subgroupid>
dock_pv

> <b_m_subgroup_collapsed>
1

$$$$
CHEMBL1957_lig2304
                    3D
 Schrodinger Suite 2021-1.
 52 56  0  0  1  0            999 V2000
    5.8938  -11.6056   21.0924 C   0  0  0  0  0  0
    5.6384  -10.1872   21.2496 N   0  0  0  0  0  0
    6.1458   -9.3371   22.1942 C   0  0  0  0  0  0
    5.6317   -8.0978   21.8645 C   0  0  0  0  0  0
    4.8391   -8.3011   20.7236 C   0  0  0  0  0  0
    4.0817   -7.4356   19.9842 N   0  0  0  0  0  0
    3.9024   -6.0538   20.0910 C   0  0  0  0  0  0
    3.2380   -5.5153   19.0378 N   0  0  0  0  0  0
    3.2377   -4.1627   18.9414 C   0  0  0  0  0  0
    3.8262   -3.3254   19.8897 C   0  0  0  0  0  0
    3.7743   -1.7993   19.7976 C   0  0  0  0  0  0
    5.1122   -1.1351   20.2097 C   0  0  0  0  0  0
    5.5942   -1.7626   21.5090 C   0  0  0  0  0  0
    6.2563   -1.1344   22.4449 N   0  0  0  0  0  0
    6.5299   -2.0731   23.3555 N   0  0  0  0  0  0
    7.2199   -1.6685   24.5727 C   0  0  0  0  0  0
    6.0381   -3.3190   23.0209 C   0  0  0  0  0  0
    6.2172   -4.5497   23.8987 C   0  0  0  0  0  0
    7.5727   -5.2431   23.8462 C   0  0  0  0  0  0
    8.7019   -4.6402   23.2787 C   0  0  0  0  0  0
    9.9307   -5.2882   23.3105 C   0  0  0  0  0  0
   10.0375   -6.5525   23.8853 C   0  0  0  0  0  0
    8.9233   -7.1780   24.4507 C   0  0  0  0  0  0
    7.6934   -6.5114   24.4249 C   0  0  0  0  0  0
    9.0652   -8.5596   25.0874 C   0  0  0  0  0  0
    9.1265   -9.4794   24.1247 F   0  0  0  0  0  0
   10.1799   -8.6301   25.8170 F   0  0  0  0  0  0
    8.0346   -8.8557   25.8816 F   0  0  0  0  0  0
    5.3312   -3.1036   21.8362 C   0  0  0  0  0  0
    4.4927   -3.9730   20.9487 C   0  0  0  0  0  0
    4.5063   -5.3327   21.0783 N   0  0  0  0  0  0
    4.8719   -9.5602   20.3510 N   0  0  0  0  0  0
    6.2715  -12.0198   22.0281 H   0  0  0  0  0  0
    4.9695  -12.1194   20.8247 H   0  0  0  0  0  0
    6.6317  -11.7509   20.3025 H   0  0  0  0  0  0
    6.7986   -9.6850   22.9814 H   0  0  0  0  0  0
    5.8036   -7.1680   22.3807 H   0  0  0  0  0  0
    3.6462   -7.7980   19.1492 H   0  0  0  0  0  0
    2.7166   -3.7485   18.0891 H   0  0  0  0  0  0
    2.9744   -1.4472   20.4489 H   0  0  0  0  0  0
    3.5004   -1.4828   18.7898 H   0  0  0  0  0  0
    4.9903   -0.0555   20.3033 H   0  0  0  0  0  0
    5.8617   -1.2696   19.4298 H   0  0  0  0  0  0
    8.0287   -2.3644   24.7954 H   0  0  0  0  0  0
    7.6378   -0.6687   24.4592 H   0  0  0  0  0  0
    6.5085   -1.6540   25.3974 H   0  0  0  0  0  0
    5.4502   -5.2875   23.6640 H   0  0  0  0  0  0
    6.0380   -4.3118   24.9475 H   0  0  0  0  0  0
    8.6543   -3.6660   22.8161 H   0  0  0  0  0  0
   10.8013   -4.8251   22.8675 H   0  0  0  0  0  0
   10.9951   -7.0535   23.8603 H   0  0  0  0  0  0
    6.8246   -6.9712   24.8743 H   0  0  0  0  0  0
  1  2  1  0  0  0
  1 33  1  0  0  0
  1 34  1  0  0  0
  1 35  1  0  0  0
  2  3  1  0  0  0
  2 32  1  0  0  0
  3  4  2  0  0  0
  3 36  1  0  0  0
  4  5  1  0  0  0
  4 37  1  0  0  0
  5  6  1  0  0  0
  5 32  2  0  0  0
  6  7  1  0  0  0
  6 38  1  0  0  0
  7  8  2  0  0  0
  7 31  1  0  0  0
  8  9  1  0  0  0
  9 10  2  0  0  0
  9 39  1  0  0  0
 10 11  1  0  0  0
 10 30  1  0  0  0
 11 12  1  0  0  0
 11 40  1  0  0  0
 11 41  1  0  0  0
 12 13  1  0  0  0
 12 42  1  0  0  0
 12 43  1  0  0  0
 13 14  2  0  0  0
 13 29  1  0  0  0
 14 15  1  0  0  0
 15 16  1  0  0  0
 15 17  1  0  0  0
 16 44  1  0  0  0
 16 45  1  0  0  0
 16 46  1  0  0  0
 17 18  1  0  0  0
 17 29  2  0  0  0
 18 19  1  0  0  0
 18 47  1  0  0  0
 18 48  1  0  0  0
 19 20  2  0  0  0
 19 24  1  0  0  0
 20 21  1  0  0  0
 20 49  1  0  0  0
 21 22  2  0  0  0
 21 50  1  0  0  0
 22 23  1  0  0  0
 22 51  1  0  0  0
 23 24  2  0  0  0
 23 25  1  0  0  0
 24 52  1  0  0  0
 25 26  1  0  0  0
 25 27  1  0  0  0
 25 28  1  0  0  0
 29 30  1  0  0  0
 30 31  2  0  0  0
M  END
> <s_m_entry_id>
5911

> <s_m_entry_name>
dock_pv.306

> <s_m_Source_Path>
/home/csk/Desktop/cluster/DUD-E-result/igf1r

> <s_m_Source_File>
dock_pv.maegz

> <i_m_Source_File_Index>
306

> <chembl_id>
CHEMBL3656745

> <chembl_pref_name>
None

> <i_lp_mmshare_version>
53161

> <r_lp_tautomer_probability>
0.999999987636

> <s_lp_Force_Field>
OPLS_2005

> <r_lp_Energy>
9.264273

> <b_lp_Chiralities_Consistent>
1

> <s_lp_Variant>
CHEMBL1957_lig2304-1

> <s_i_glide_gridfile>
glide-grid_2oj9

> <i_i_glide_lignum>
3286

> <i_i_glide_rotatable_bonds>
5

> <r_i_docking_score>
-6.90410828174993

> <r_i_glide_ligand_efficiency>
-0.215753383804685

> <r_i_glide_ligand_efficiency_sa>
-0.684974296043199

> <r_i_glide_ligand_efficiency_ln>
-1.54601804316765

> <r_i_glide_gscore>
-6.90410828174993

> <r_i_glide_lipo>
-2.98641975150753

> <r_i_glide_hbond>
-0.0913467128259946

> <r_i_glide_metal>
0

> <r_i_glide_rewards>
-1.48995704085424

> <r_i_glide_evdw>
-41.4012832641602

> <r_i_glide_ecoul>
-4.49608421325684

> <r_i_glide_erotb>
0.413418552813026

> <r_i_glide_esite>
-0.00532653417865751

> <r_i_glide_emodel>
-60.2484268843607

> <r_i_glide_energy>
-45.897367477417

> <r_i_glide_einternal>
4.32750034332275

> <i_i_glide_confnum>
5

> <i_i_glide_posenum>
33

> <r_i_glide_eff_state_penalty>
0

> <s_user_duplicate_titles>
CHEMBL1957_lig2304

> <i_f3d_flags>
0

> <s_m_subgroup_title>
dock_pv

> <s_m_subgroupid>
dock_pv

> <b_m_subgroup_collapsed>
1

$$$$
CHEMBL1957_lig115
                    3D
 Schrodinger Suite 2021-1.
 40 43  0  0  1  0            999 V2000
    7.8252   -2.4613   24.3022 N   0  0  0  0  0  0
    7.1167   -1.3914   23.8935 C   0  0  0  0  0  0
    6.1021   -1.4925   22.9573 C   0  0  0  0  0  0
    7.5124   -3.6852   23.8224 C   0  0  0  0  0  0
    6.4372   -3.9017   22.9319 C   0  0  0  0  0  0
    5.7816   -2.7398   22.4834 N   0  0  0  0  0  0
    4.8743   -3.1551   21.5340 C   0  0  0  0  0  0
    4.8500   -4.4667   21.4390 N   0  0  0  0  0  0
    5.7335   -4.9674   22.2845 C   0  0  0  0  0  0
    4.0913   -2.2008   20.6442 C   0  0  0  0  0  0
    4.9165   -1.0720   19.9967 C   0  0  0  0  0  0
    4.0936   -1.2650   18.7311 C   0  0  0  0  0  0
    3.7522   -2.6771   19.2195 C   0  0  0  0  0  0
    8.3552   -4.7016   24.2375 N   0  0  0  0  0  0
    5.8575   -6.4487   22.4696 C   0  0  0  0  0  0
    5.5388   -7.3272   21.4254 C   0  0  0  0  0  0
    5.6381   -8.7103   21.5808 C   0  0  0  0  0  0
    6.1277   -9.2217   22.7923 C   0  0  0  0  0  0
    6.4613   -8.3609   23.8345 C   0  0  0  0  0  0
    6.2950   -6.9874   23.6843 C   0  0  0  0  0  0
    5.2294   -9.4848   20.5151 O   0  0  0  0  0  0
    5.1115  -10.8905   20.6981 C   0  0  0  0  0  0
    7.4127   -0.4340   24.2990 H   0  0  0  0  0  0
    5.5564   -0.6450   22.5816 H   0  0  0  0  0  0
    3.1985   -1.8452   21.1586 H   0  0  0  0  0  0
    4.8372   -0.0792   20.4379 H   0  0  0  0  0  0
    5.9668   -1.3249   19.8289 H   0  0  0  0  0  0
    3.2382   -0.5988   18.6382 H   0  0  0  0  0  0
    4.6993   -1.2129   17.8380 H   0  0  0  0  0  0
    4.4372   -3.4194   18.8091 H   0  0  0  0  0  0
    2.7162   -2.9731   19.0491 H   0  0  0  0  0  0
    8.2726   -5.6192   23.8278 H   0  0  0  0  0  0
    9.1449   -4.4424   24.8083 H   0  0  0  0  0  0
    5.1827   -6.9409   20.4816 H   0  0  0  0  0  0
    6.2394  -10.2839   22.9490 H   0  0  0  0  0  0
    6.8363   -8.7579   24.7661 H   0  0  0  0  0  0
    6.4919   -6.3518   24.5336 H   0  0  0  0  0  0
    4.5995  -11.3157   19.8388 H   0  0  0  0  0  0
    6.0907  -11.3643   20.7786 H   0  0  0  0  0  0
    4.5159  -11.1405   21.5783 H   0  0  0  0  0  0
  1  2  1  0  0  0
  1  4  2  0  0  0
  2  3  2  0  0  0
  2 23  1  0  0  0
  3  6  1  0  0  0
  3 24  1  0  0  0
  4 14  1  0  0  0
  4  5  1  0  0  0
  5  6  1  0  0  0
  5  9  2  0  0  0
  6  7  1  0  0  0
  7  8  2  0  0  0
  7 10  1  0  0  0
  8  9  1  0  0  0
  9 15  1  0  0  0
 10 11  1  0  0  0
 10 13  1  0  0  0
 10 25  1  0  0  0
 11 12  1  0  0  0
 11 26  1  0  0  0
 11 27  1  0  0  0
 12 13  1  0  0  0
 12 28  1  0  0  0
 12 29  1  0  0  0
 13 30  1  0  0  0
 13 31  1  0  0  0
 14 32  1  0  0  0
 14 33  1  0  0  0
 15 16  2  0  0  0
 15 20  1  0  0  0
 16 17  1  0  0  0
 16 34  1  0  0  0
 17 18  2  0  0  0
 17 21  1  0  0  0
 18 19  1  0  0  0
 18 35  1  0  0  0
 19 20  2  0  0  0
 19 36  1  0  0  0
 20 37  1  0  0  0
 21 22  1  0  0  0
 22 38  1  0  0  0
 22 39  1  0  0  0
 22 40  1  0  0  0
M  END
> <s_m_entry_id>
5913

> <s_m_entry_name>
dock_pv.308

> <s_m_Source_Path>
/home/csk/Desktop/cluster/DUD-E-result/igf1r

> <s_m_Source_File>
dock_pv.maegz

> <i_m_Source_File_Index>
308

> <chembl_id>
CHEMBL397638

> <chembl_pref_name>
None

> <i_lp_mmshare_version>
53161

> <r_lp_tautomer_probability>
1

> <s_lp_Force_Field>
OPLS_2005

> <r_lp_Energy>
35.594279

> <b_lp_Chiralities_Consistent>
1

> <s_lp_Variant>
CHEMBL1957_lig115-1

> <s_i_glide_gridfile>
glide-grid_2oj9

> <i_i_glide_lignum>
280

> <i_i_glide_rotatable_bonds>
3

> <r_i_docking_score>
-6.90168489463283

> <r_i_glide_ligand_efficiency>
-0.313712949756038

> <r_i_glide_ligand_efficiency_sa>
-0.879036022846623

> <r_i_glide_ligand_efficiency_ln>
-1.68702353332151

> <r_i_glide_gscore>
-6.90168489463283

> <r_i_glide_lipo>
-3.28513050468859

> <r_i_glide_hbond>
0

> <r_i_glide_metal>
0

> <r_i_glide_rewards>
-2.21328237114115

> <r_i_glide_evdw>
-35.3852844238281

> <r_i_glide_ecoul>
-0.374260723590851

> <r_i_glide_erotb>
0.422131310926944

> <r_i_glide_esite>
0

> <r_i_glide_emodel>
-46.2272736384783

> <r_i_glide_energy>
-35.759545147419

> <r_i_glide_einternal>
7.04038333892822

> <i_i_glide_confnum>
2

> <i_i_glide_posenum>
55

> <r_i_glide_eff_state_penalty>
0

> <s_user_duplicate_titles>
CHEMBL1957_lig115

> <i_f3d_flags>
0

> <s_m_subgroup_title>
dock_pv

> <s_m_subgroupid>
dock_pv

> <b_m_subgroup_collapsed>
1

$$$$
CHEMBL1957_lig3374
                    3D
 Schrodinger Suite 2021-1.
 49 51  0  0  1  0            999 V2000
    3.1003   -6.1522   18.7288 C   0  0  0  0  0  0
    2.8381   -4.8950   18.1082 O   0  0  0  0  0  0
    3.2381   -3.7387   18.7464 C   0  0  0  0  0  0
    3.4530   -2.6186   17.9495 C   0  0  0  0  0  0
    4.0381   -1.4763   18.4877 C   0  0  0  0  0  0
    4.3896   -1.4365   19.8344 C   0  0  0  0  0  0
    5.3191   -0.3082   20.2951 C   0  0  0  0  0  0
    5.6381   -0.3003   21.6902 O   0  0  0  0  0  0
    6.3627   -1.3098   22.3051 C   0  0  0  0  0  0
    6.8379   -2.4534   21.6445 C   0  0  0  0  0  0
    7.5232   -3.4447   22.3317 C   0  0  0  0  0  0
    7.7494   -3.3163   23.6994 C   0  0  0  0  0  0
    8.4813   -4.4273   24.4462 C   0  0  0  0  0  0
    7.9292   -5.8450   24.2328 C   0  0  0  0  0  0
    6.5507   -6.0838   24.1151 C   0  0  0  0  0  0
    6.0318   -7.3133   23.8586 N   0  0  0  0  0  0
    6.9276   -8.3211   23.7316 C   0  0  0  0  0  0
    6.4383   -9.5851   23.4384 N   0  0  0  0  0  0
    8.2698   -8.2122   23.8528 N   0  0  0  0  0  0
    8.7569   -6.9742   24.1103 C   0  0  0  0  0  0
   10.1378   -6.8885   24.2380 N   0  0  0  0  0  0
    7.3119   -2.1634   24.3594 C   0  0  0  0  0  0
    6.6034   -1.1611   23.6774 C   0  0  0  0  0  0
    6.1323   -0.0009   24.2705 O   0  0  0  0  0  0
    6.4119    0.2553   25.6395 C   0  0  0  0  0  0
    3.9714   -2.4724   20.6741 C   0  0  0  0  0  0
    3.4439   -3.6334   20.1269 C   0  0  0  0  0  0
    2.5157   -6.9281   18.2381 H   0  0  0  0  0  0
    4.1500   -6.4285   18.6382 H   0  0  0  0  0  0
    2.8379   -6.1879   19.7807 H   0  0  0  0  0  0
    3.2435   -2.6696   16.8919 H   0  0  0  0  0  0
    4.3021   -0.6557   17.8379 H   0  0  0  0  0  0
    4.8466    0.6473   20.0633 H   0  0  0  0  0  0
    6.2438   -0.3397   19.7174 H   0  0  0  0  0  0
    6.6873   -2.5868   20.5844 H   0  0  0  0  0  0
    7.8750   -4.3172   21.7995 H   0  0  0  0  0  0
    8.4953   -4.2330   25.5154 H   0  0  0  0  0  0
    9.5214   -4.3696   24.1236 H   0  0  0  0  0  0
    5.8367   -5.2787   24.2085 H   0  0  0  0  0  0
    7.0988  -10.3469   23.4373 H   0  0  0  0  0  0
    5.4470   -9.7635   23.5113 H   0  0  0  0  0  0
   10.5706   -5.9799   24.2780 H   0  0  0  0  0  0
   10.6857   -7.7015   23.9944 H   0  0  0  0  0  0
    7.5322   -2.0539   25.4086 H   0  0  0  0  0  0
    6.0227    1.2369   25.9093 H   0  0  0  0  0  0
    5.9267   -0.4772   26.2831 H   0  0  0  0  0  0
    7.4837    0.2617   25.8382 H   0  0  0  0  0  0
    4.1447   -2.4458   21.7385 H   0  0  0  0  0  0
    3.2383   -4.4501   20.7925 H   0  0  0  0  0  0
  1  2  1  0  0  0
  1 28  1  0  0  0
  1 29  1  0  0  0
  1 30  1  0  0  0
  2  3  1  0  0  0
  3  4  2  0  0  0
  3 27  1  0  0  0
  4  5  1  0  0  0
  4 31  1  0  0  0
  5  6  2  0  0  0
  5 32  1  0  0  0
  6  7  1  0  0  0
  6 26  1  0  0  0
  7  8  1  0  0  0
  7 33  1  0  0  0
  7 34  1  0  0  0
  8  9  1  0  0  0
  9 10  2  0  0  0
  9 23  1  0  0  0
 10 11  1  0  0  0
 10 35  1  0  0  0
 11 12  2  0  0  0
 11 36  1  0  0  0
 12 13  1  0  0  0
 12 22  1  0  0  0
 13 14  1  0  0  0
 13 37  1  0  0  0
 13 38  1  0  0  0
 14 15  2  0  0  0
 14 20  1  0  0  0
 15 16  1  0  0  0
 15 39  1  0  0  0
 16 17  2  0  0  0
 17 18  1  0  0  0
 17 19  1  0  0  0
 18 40  1  0  0  0
 18 41  1  0  0  0
 19 20  2  0  0  0
 20 21  1  0  0  0
 21 42  1  0  0  0
 21 43  1  0  0  0
 22 23  2  0  0  0
 22 44  1  0  0  0
 23 24  1  0  0  0
 24 25  1  0  0  0
 25 45  1  0  0  0
 25 46  1  0  0  0
 25 47  1  0  0  0
 26 27  2  0  0  0
 26 48  1  0  0  0
 27 49  1  0  0  0
M  END
> <s_m_entry_id>
5914

> <s_m_entry_name>
dock_pv.309

> <s_m_Source_Path>
/home/csk/Desktop/cluster/DUD-E-result/igf1r

> <s_m_Source_File>
dock_pv.maegz

> <i_m_Source_File_Index>
309

> <chembl_id>
CHEMBL261849

> <chembl_pref_name>
GW632580X

> <i_lp_mmshare_version>
53161

> <r_lp_tautomer_probability>
0.999999624730965

> <s_lp_Force_Field>
OPLS_2005

> <r_lp_Energy>
19.089743

> <b_lp_Chiralities_Consistent>
1

> <s_lp_Variant>
CHEMBL1957_lig3374-1

> <s_i_glide_gridfile>
glide-grid_2oj9

> <i_i_glide_lignum>
4748

> <i_i_glide_rotatable_bonds>
7

> <r_i_docking_score>
-6.90126955453634

> <r_i_glide_ligand_efficiency>
-0.255602576093939

> <r_i_glide_ligand_efficiency_sa>
-0.766807727439392

> <r_i_glide_ligand_efficiency_ln>
-1.60650177597535

> <r_i_glide_gscore>
-6.90126955453634

> <r_i_glide_lipo>
-3.20473172027943

> <r_i_glide_hbond>
-0.329143820513718

> <r_i_glide_metal>
0

> <r_i_glide_rewards>
-1.41904229864327

> <r_i_glide_evdw>
-41.6934661865234

> <r_i_glide_ecoul>
-3.6016526222229

> <r_i_glide_erotb>
0.716791966357308

> <r_i_glide_esite>
-0.0402224787976289

> <r_i_glide_emodel>
-59.2654975921439

> <r_i_glide_energy>
-45.2951188087463

> <r_i_glide_einternal>
4.90929985046387

> <i_i_glide_confnum>
8

> <i_i_glide_posenum>
88

> <r_i_glide_eff_state_penalty>
0

> <s_user_duplicate_titles>
CHEMBL1957_lig3374

> <i_f3d_flags>
0

> <s_m_subgroup_title>
dock_pv

> <s_m_subgroupid>
dock_pv

> <b_m_subgroup_collapsed>
1

$$$$
CHEMBL1957_lig2728
                    3D
 Schrodinger Suite 2021-1.
 29 31  0  0  1  0            999 V2000
    2.9616   -2.7405   18.6604 F   0  0  0  0  0  0
    4.2433   -1.4186   19.7882 F   0  0  0  0  0  0
    2.3526   -2.0541   20.6223 F   0  0  0  0  0  0
    6.7587   -4.3581   22.8995 O   0  0  0  0  0  0
    5.5364   -8.2087   22.1601 O   0  0  0  0  0  0
    7.7198   -8.9874   23.7364 O   0  0  0  0  0  0
    5.2768   -5.8983   21.7622 C   0  0  0  0  0  0
    5.7069   -4.6026   22.0536 C   0  0  0  0  0  0
    7.1192   -6.7226   23.2378 C   0  0  0  0  0  0
    5.9511   -7.0717   22.3907 C   0  0  0  0  0  0
    7.4467   -5.4106   23.4140 C   0  0  0  0  0  0
    4.0462   -3.6544   20.5604 C   0  0  0  0  0  0
    5.0995   -3.4906   21.4682 C   0  0  0  0  0  0
    7.9348   -7.7842   23.8816 C   0  0  0  0  0  0
    4.2260   -6.0647   20.8486 C   0  0  0  0  0  0
    3.3937   -2.4434   19.8882 C   0  0  0  0  0  0
    3.6354   -4.9556   20.2381 C   0  0  0  0  0  0
    8.6289   -4.8939   24.2274 C   0  0  0  0  0  0
    9.0465   -7.3303   24.8423 C   0  0  0  0  0  0
    9.6821   -5.9998   24.4051 C   0  0  0  0  0  0
    5.4663   -2.5071   21.7178 H   0  0  0  0  0  0
    3.9027   -7.0568   20.5720 H   0  0  0  0  0  0
    2.8385   -5.1139   19.5254 H   0  0  0  0  0  0
    8.2898   -4.4648   25.1693 H   0  0  0  0  0  0
    9.1079   -4.0667   23.6999 H   0  0  0  0  0  0
    9.7806   -8.1285   24.9577 H   0  0  0  0  0  0
    8.5730   -7.1988   25.8156 H   0  0  0  0  0  0
   10.4392   -5.6856   25.1227 H   0  0  0  0  0  0
   10.2178   -6.1537   23.4634 H   0  0  0  0  0  0
  1 16  1  0  0  0
  2 16  1  0  0  0
  3 16  1  0  0  0
  4  8  1  0  0  0
  4 11  1  0  0  0
  5 10  2  0  0  0
  6 14  2  0  0  0
  7  8  1  0  0  0
  7 10  1  0  0  0
  7 15  2  0  0  0
  8 13  2  0  0  0
  9 10  1  0  0  0
  9 11  2  0  0  0
  9 14  1  0  0  0
 11 18  1  0  0  0
 12 13  1  0  0  0
 12 16  1  0  0  0
 12 17  2  0  0  0
 13 21  1  0  0  0
 14 19  1  0  0  0
 15 17  1  0  0  0
 15 22  1  0  0  0
 17 23  1  0  0  0
 18 20  1  0  0  0
 18 24  1  0  0  0
 18 25  1  0  0  0
 19 20  1  0  0  0
 19 26  1  0  0  0
 19 27  1  0  0  0
 20 28  1  0  0  0
 20 29  1  0  0  0
M  END
> <s_m_entry_id>
5915

> <s_m_entry_name>
dock_pv.310

> <s_m_Source_Path>
/home/csk/Desktop/cluster/DUD-E-result/igf1r

> <s_m_Source_File>
dock_pv.maegz

> <i_m_Source_File_Index>
310

> <chembl_id>
CHEMBL2006493

> <chembl_pref_name>
None

> <i_lp_mmshare_version>
53161

> <r_lp_tautomer_probability>
0.99995

> <s_lp_Force_Field>
OPLS_2005

> <r_lp_Energy>
11.175998

> <b_lp_Chiralities_Consistent>
1

> <s_lp_Variant>
CHEMBL1957_lig2728-1

> <s_i_glide_gridfile>
glide-grid_2oj9

> <i_i_glide_lignum>
3775

> <i_i_glide_rotatable_bonds>
1

> <r_i_docking_score>
-6.89752721133159

> <r_i_glide_ligand_efficiency>
-0.344876360566579

> <r_i_glide_ligand_efficiency_sa>
-0.936138467734253

> <r_i_glide_ligand_efficiency_ln>
-1.72622356532326

> <r_i_glide_gscore>
-6.89752721133159

> <r_i_glide_lipo>
-2.29324974770731

> <r_i_glide_hbond>
0

> <r_i_glide_metal>
0

> <r_i_glide_rewards>
-2.94686000532845

> <r_i_glide_evdw>
-29.5034484863281

> <r_i_glide_ecoul>
-1.21496689319611

> <r_i_glide_erotb>
0

> <r_i_glide_esite>
0

> <r_i_glide_emodel>
-43.5908694905742

> <r_i_glide_energy>
-30.7184153795242

> <r_i_glide_einternal>
0.0518888048827648

> <i_i_glide_confnum>
1

> <i_i_glide_posenum>
120

> <r_i_glide_eff_state_penalty>
0

> <s_user_duplicate_titles>
CHEMBL1957_lig2728

> <i_f3d_flags>
0

> <s_m_subgroup_title>
dock_pv

> <s_m_subgroupid>
dock_pv

> <b_m_subgroup_collapsed>
1

$$$$
CHEMBL1957_lig2211
                    3D
 Schrodinger Suite 2021-1.
 46 50  0  0  1  0            999 V2000
    9.2279   -8.0835   26.1010 C   0  0  0  0  0  0
    9.2621   -7.1312   24.9235 C   0  0  0  0  0  0
    9.6383   -5.7859   25.0384 C   0  0  0  0  0  0
    9.5919   -5.0811   23.8524 C   0  0  0  0  0  0
    9.0041   -6.0468   22.5583 S   0  0  0  0  0  0
    8.8387   -7.4229   23.6178 C   0  0  0  0  0  0
    8.3036   -8.6814   23.0922 C   0  0  0  0  0  0
    7.1315   -8.9623   22.3896 C   0  0  0  0  0  0
    7.1306  -10.3511   22.2096 C   0  0  0  0  0  0
    5.9759  -11.0644   21.5206 C   0  0  0  0  0  0
    5.3948  -10.1473   20.4112 C   0  0  0  0  0  0
    5.2357   -8.6839   20.8440 C   0  0  0  0  0  0
    4.3335   -7.8093   20.2381 C   0  0  0  0  0  0
    4.2324   -6.4948   20.5635 N   0  0  0  0  0  0
    5.0646   -6.0365   21.5331 C   0  0  0  0  0  0
    5.1750   -4.6585   21.7878 N   0  0  0  0  0  0
    4.7609   -3.5410   21.0378 C   0  0  0  0  0  0
    5.5627   -2.3953   21.0711 C   0  0  0  0  0  0
    5.2401   -1.2856   20.2897 C   0  0  0  0  0  0
    4.1042   -1.3143   19.4848 C   0  0  0  0  0  0
    3.2797   -2.4354   19.4671 C   0  0  0  0  0  0
    3.6052   -3.5424   20.2478 C   0  0  0  0  0  0
    5.9406   -6.8100   22.2151 N   0  0  0  0  0  0
    6.0441   -8.1114   21.8408 C   0  0  0  0  0  0
    8.2260  -10.9134   22.6585 N   0  0  0  0  0  0
    8.9500   -9.9005   23.1551 N   0  0  0  0  0  0
   10.2716  -10.2044   23.6866 C   0  0  0  0  0  0
    8.3306   -8.7038   26.0886 H   0  0  0  0  0  0
   10.0834   -8.7575   26.1006 H   0  0  0  0  0  0
    9.2330   -7.5631   27.0597 H   0  0  0  0  0  0
    9.9596   -5.3441   25.9708 H   0  0  0  0  0  0
    9.8657   -4.0537   23.6814 H   0  0  0  0  0  0
    5.2006  -11.3239   22.2382 H   0  0  0  0  0  0
    6.3019  -12.0120   21.0910 H   0  0  0  0  0  0
    4.4382  -10.5471   20.0739 H   0  0  0  0  0  0
    6.0379  -10.1946   19.5385 H   0  0  0  0  0  0
    3.6893   -8.1535   19.4425 H   0  0  0  0  0  0
    5.8834   -4.4569   22.4752 H   0  0  0  0  0  0
    6.4585   -2.3717   21.6744 H   0  0  0  0  0  0
    5.8799   -0.4124   20.2947 H   0  0  0  0  0  0
    3.8639   -0.4610   18.8679 H   0  0  0  0  0  0
    2.3990   -2.4523   18.8417 H   0  0  0  0  0  0
    2.9474   -4.3963   20.2201 H   0  0  0  0  0  0
   10.8915   -9.3064   23.6920 H   0  0  0  0  0  0
   10.1720  -10.5978   24.7000 H   0  0  0  0  0  0
   10.7642  -10.9536   23.0618 H   0  0  0  0  0  0
  1  2  1  0  0  0
  1 28  1  0  0  0
  1 29  1  0  0  0
  1 30  1  0  0  0
  2  3  1  0  0  0
  2  6  2  0  0  0
  3  4  2  0  0  0
  3 31  1  0  0  0
  4  5  1  0  0  0
  4 32  1  0  0  0
  5  6  1  0  0  0
  6  7  1  0  0  0
  7  8  2  0  0  0
  7 26  1  0  0  0
  8  9  1  0  0  0
  8 24  1  0  0  0
  9 10  1  0  0  0
  9 25  2  0  0  0
 10 11  1  0  0  0
 10 33  1  0  0  0
 10 34  1  0  0  0
 11 12  1  0  0  0
 11 35  1  0  0  0
 11 36  1  0  0  0
 12 13  2  0  0  0
 12 24  1  0  0  0
 13 14  1  0  0  0
 13 37  1  0  0  0
 14 15  2  0  0  0
 15 16  1  0  0  0
 15 23  1  0  0  0
 16 17  1  0  0  0
 16 38  1  0  0  0
 17 18  2  0  0  0
 17 22  1  0  0  0
 18 19  1  0  0  0
 18 39  1  0  0  0
 19 20  2  0  0  0
 19 40  1  0  0  0
 20 21  1  0  0  0
 20 41  1  0  0  0
 21 22  2  0  0  0
 21 42  1  0  0  0
 22 43  1  0  0  0
 23 24  2  0  0  0
 25 26  1  0  0  0
 26 27  1  0  0  0
 27 44  1  0  0  0
 27 45  1  0  0  0
 27 46  1  0  0  0
M  END
> <s_m_entry_id>
5916

> <s_m_entry_name>
dock_pv.311

> <s_m_Source_Path>
/home/csk/Desktop/cluster/DUD-E-result/igf1r

> <s_m_Source_File>
dock_pv.maegz

> <i_m_Source_File_Index>
311

> <chembl_id>
CHEMBL3656653

> <chembl_pref_name>
None

> <i_lp_mmshare_version>
53161

> <r_lp_tautomer_probability>
0.999999987636

> <s_lp_Force_Field>
OPLS_2005

> <r_lp_Energy>
9.87295

> <b_lp_Chiralities_Consistent>
1

> <s_lp_Variant>
CHEMBL1957_lig2211-1

> <s_i_glide_gridfile>
glide-grid_2oj9

> <i_i_glide_lignum>
3187

> <i_i_glide_rotatable_bonds>
3

> <r_i_docking_score>
-6.89658217313365

> <r_i_glide_ligand_efficiency>
-0.25542896937532

> <r_i_glide_ligand_efficiency_sa>
-0.766286907284109

> <r_i_glide_ligand_efficiency_ln>
-1.60541063086233

> <r_i_glide_gscore>
-6.89658217313365

> <r_i_glide_lipo>
-3.31188634287088

> <r_i_glide_hbond>
0

> <r_i_glide_metal>
0

> <r_i_glide_rewards>
-1.41668028649623

> <r_i_glide_evdw>
-41.0885047912598

> <r_i_glide_ecoul>
-3.52827405929565

> <r_i_glide_erotb>
0.415650804690803

> <r_i_glide_esite>
0

> <r_i_glide_emodel>
-59.6670165524156

> <r_i_glide_energy>
-44.6167788505554

> <r_i_glide_einternal>
5.66906118392944

> <i_i_glide_confnum>
3

> <i_i_glide_posenum>
118

> <r_i_glide_eff_state_penalty>
0

> <s_user_duplicate_titles>
CHEMBL1957_lig2211

> <i_f3d_flags>
0

> <s_m_subgroup_title>
dock_pv

> <s_m_subgroupid>
dock_pv

> <b_m_subgroup_collapsed>
1

$$$$
CHEMBL1957_lig353
                    3D
 Schrodinger Suite 2021-1.
 45 48  0  0  1  0            999 V2000
    5.4322   -7.5553   22.8563 C   0  0  0  0  0  0
    5.7051   -8.7280   22.1391 C   0  0  0  0  0  0
    5.2314   -8.8434   20.8272 C   0  0  0  0  0  0
    4.5255   -7.7995   20.2380 C   0  0  0  0  0  0
    4.3002   -6.6038   20.9279 C   0  0  0  0  0  0
    4.7420   -6.5035   22.2578 C   0  0  0  0  0  0
    6.4890   -9.8279   22.7507 N   0  3  0  0  0  0
    6.7760  -10.8002   22.0565 O   0  5  0  0  0  0
    6.8381   -9.7171   23.9211 O   0  0  0  0  0  0
    3.6385   -5.4460   20.2040 C   0  0  0  0  0  0
    2.8912   -5.6536   19.2467 O   0  0  0  0  0  0
    4.0971   -2.9933   20.0415 C   0  0  0  0  0  0
    3.2380   -2.4579   18.7179 S   0  0  0  0  0  0
    5.8583   -2.2541   21.6807 C   0  0  0  0  0  0
    6.5921   -3.4306   21.8923 C   0  0  0  0  0  0
    7.4603   -3.5687   22.9849 C   0  0  0  0  0  0
    7.6228   -2.4608   23.8423 C   0  0  0  0  0  0
    6.8948   -1.2904   23.6338 C   0  0  0  0  0  0
    6.0381   -1.1785   22.5465 C   0  0  0  0  0  0
    8.5208   -2.4540   24.8764 O   0  0  0  0  0  0
    8.1366   -4.9005   23.2001 C   0  0  0  0  0  0
    8.4126   -5.3763   24.3832 N   0  0  0  0  0  0
    8.5408   -5.9677   21.8571 S   0  0  0  0  0  0
    9.0986   -7.1624   23.0219 C   0  0  0  0  0  0
    8.9537   -6.6221   24.3247 C   0  0  0  0  0  0
    9.3500   -7.3727   25.4394 C   0  0  0  0  0  0
    9.8943   -8.6406   25.2341 C   0  0  0  0  0  0
   10.0355   -9.1654   23.9510 C   0  0  0  0  0  0
    9.6320   -8.4474   22.8255 C   0  0  0  0  0  0
    4.9496   -2.0937   20.6157 N   0  0  0  0  0  0
    4.0384   -4.2267   20.6381 N   0  0  0  0  0  0
    5.7776   -7.4416   23.8745 H   0  0  0  0  0  0
    5.4079   -9.7416   20.2516 H   0  0  0  0  0  0
    4.1776   -7.9176   19.2225 H   0  0  0  0  0  0
    4.5725   -5.6130   22.8447 H   0  0  0  0  0  0
    6.4907   -4.2497   21.1978 H   0  0  0  0  0  0
    7.0324   -0.4436   24.2905 H   0  0  0  0  0  0
    5.5227   -0.2459   22.3850 H   0  0  0  0  0  0
    8.8688   -1.5661   25.0390 H   0  0  0  0  0  0
    9.2380   -6.9722   26.4360 H   0  0  0  0  0  0
   10.2156   -9.2262   26.0828 H   0  0  0  0  0  0
   10.4734  -10.1452   23.8249 H   0  0  0  0  0  0
    9.7678   -8.8568   21.8363 H   0  0  0  0  0  0
    4.9342   -1.1685   20.2102 H   0  0  0  0  0  0
    4.5877   -4.2768   21.4812 H   0  0  0  0  0  0
  1  6  1  0  0  0
  1  2  2  0  0  0
  1 32  1  0  0  0
  2  3  1  0  0  0
  2  7  1  0  0  0
  3  4  2  0  0  0
  3 33  1  0  0  0
  4  5  1  0  0  0
  4 34  1  0  0  0
  5 10  1  0  0  0
  5  6  2  0  0  0
  6 35  1  0  0  0
  7  8  1  0  0  0
  7  9  2  0  0  0
 10 31  1  0  0  0
 10 11  2  0  0  0
 12 31  1  0  0  0
 12 30  1  0  0  0
 12 13  2  0  0  0
 14 30  1  0  0  0
 14 15  2  0  0  0
 14 19  1  0  0  0
 15 16  1  0  0  0
 15 36  1  0  0  0
 16 17  2  0  0  0
 16 21  1  0  0  0
 17 18  1  0  0  0
 17 20  1  0  0  0
 18 19  2  0  0  0
 18 37  1  0  0  0
 19 38  1  0  0  0
 20 39  1  0  0  0
 21 22  2  0  0  0
 21 23  1  0  0  0
 22 25  1  0  0  0
 23 24  1  0  0  0
 24 25  2  0  0  0
 24 29  1  0  0  0
 25 26  1  0  0  0
 26 27  2  0  0  0
 26 40  1  0  0  0
 27 28  1  0  0  0
 27 41  1  0  0  0
 28 29  2  0  0  0
 28 42  1  0  0  0
 29 43  1  0  0  0
 30 44  1  0  0  0
 31 45  1  0  0  0
M  CHG  2   7   1   8  -1
M  END
> <s_m_entry_id>
5917

> <s_m_entry_name>
dock_pv.312

> <s_m_Source_Path>
/home/csk/Desktop/cluster/DUD-E-result/igf1r

> <s_m_Source_File>
dock_pv.maegz

> <i_m_Source_File_Index>
312

> <chembl_id>
CHEMBL460746

> <chembl_pref_name>
None

> <i_lp_mmshare_version>
53161

> <r_lp_tautomer_probability>
1

> <s_lp_Force_Field>
OPLS_2005

> <r_lp_Energy>
44.462428

> <b_lp_Chiralities_Consistent>
1

> <s_lp_Variant>
CHEMBL1957_lig353-1

> <s_i_glide_gridfile>
glide-grid_2oj9

> <i_i_glide_lignum>
532

> <i_i_glide_rotatable_bonds>
8

> <r_i_docking_score>
-6.89526894603438

> <r_i_glide_ligand_efficiency>
-0.222428030517238

> <r_i_glide_ligand_efficiency_sa>
-0.698731110816563

> <r_i_glide_ligand_efficiency_ln>
-1.55509446194602

> <r_i_glide_gscore>
-6.89526894603438

> <r_i_glide_lipo>
-2.8441900499475

> <r_i_glide_hbond>
-0.32

> <r_i_glide_metal>
0

> <r_i_glide_rewards>
-1.29364113183927

> <r_i_glide_evdw>
-50.1010284423828

> <r_i_glide_ecoul>
-3.50097465515137

> <r_i_glide_erotb>
0.592759856144246

> <r_i_glide_esite>
0

> <r_i_glide_emodel>
-69.012885094562

> <r_i_glide_energy>
-53.6020030975342

> <r_i_glide_einternal>
10.3226232528687

> <i_i_glide_confnum>
11

> <i_i_glide_posenum>
102

> <r_i_glide_eff_state_penalty>
0

> <s_user_duplicate_titles>
CHEMBL1957_lig353,457360

> <i_f3d_flags>
0

> <s_m_subgroup_title>
dock_pv

> <s_m_subgroupid>
dock_pv

> <b_m_subgroup_collapsed>
1

$$$$
CHEMBL1957_lig610
                    3D
 Schrodinger Suite 2021-1.
 28 30  0  0  1  0            999 V2000
    7.0485   -8.2128   24.0097 C   0  0  0  0  0  0
    6.6336   -6.9858   23.3613 C   0  0  0  0  0  0
    5.7998   -7.3691   21.8437 S   0  0  0  0  0  0
    6.0380   -9.0755   22.0943 C   0  0  0  0  0  0
    6.6887   -9.2649   23.2604 N   0  0  0  0  0  0
    5.5230  -10.2424   21.0394 S   0  0  0  0  0  0
    7.6388   -8.3282   25.0831 O   0  0  0  0  0  0
    6.8988   -5.7825   23.9166 C   0  0  0  0  0  0
    6.5754   -4.4550   23.4206 C   0  0  0  0  0  0
    6.8770   -3.1933   23.9060 C   0  0  0  0  0  0
    6.2847   -2.2669   23.0494 C   0  0  0  0  0  0
    5.6625   -2.9813   22.0323 C   0  0  0  0  0  0
    5.8401   -4.3086   22.2825 O   0  0  0  0  0  0
    4.8801   -2.6107   20.8038 C   0  0  0  0  0  0
    4.0222   -3.5718   20.2456 C   0  0  0  0  0  0
    3.2820   -3.2976   19.0941 C   0  0  0  0  0  0
    3.3947   -2.0558   18.4770 C   0  0  0  0  0  0
    4.2432   -1.0891   19.0153 C   0  0  0  0  0  0
    4.9845   -1.3575   20.1694 C   0  0  0  0  0  0
    6.0347   -0.1110   20.7449 Cl  0  0  0  0  0  0
    6.9054  -10.1972   23.5780 H   0  0  0  0  0  0
    7.4273   -5.7521   24.8610 H   0  0  0  0  0  0
    7.4616   -2.9685   24.7855 H   0  0  0  0  0  0
    6.3248   -1.1953   23.1668 H   0  0  0  0  0  0
    3.9324   -4.5524   20.6898 H   0  0  0  0  0  0
    2.6380   -4.0532   18.6652 H   0  0  0  0  0  0
    2.8428   -1.8534   17.5687 H   0  0  0  0  0  0
    4.3465   -0.1334   18.5226 H   0  0  0  0  0  0
  1  5  1  0  0  0
  1  2  1  0  0  0
  1  7  2  0  0  0
  2  3  1  0  0  0
  2  8  2  0  0  0
  3  4  1  0  0  0
  4  5  1  0  0  0
  4  6  2  0  0  0
  5 21  1  0  0  0
  8  9  1  0  0  0
  8 22  1  0  0  0
  9 13  1  0  0  0
  9 10  2  0  0  0
 10 11  1  0  0  0
 10 23  1  0  0  0
 11 12  2  0  0  0
 11 24  1  0  0  0
 12 13  1  0  0  0
 12 14  1  0  0  0
 14 15  2  0  0  0
 14 19  1  0  0  0
 15 16  1  0  0  0
 15 25  1  0  0  0
 16 17  2  0  0  0
 16 26  1  0  0  0
 17 18  1  0  0  0
 17 27  1  0  0  0
 18 19  2  0  0  0
 18 28  1  0  0  0
 19 20  1  0  0  0
M  END
> <s_m_entry_id>
5918

> <s_m_entry_name>
dock_pv.313

> <s_m_Source_Path>
/home/csk/Desktop/cluster/DUD-E-result/igf1r

> <s_m_Source_File>
dock_pv.maegz

> <i_m_Source_File_Index>
313

> <chembl_id>
CHEMBL226813

> <chembl_pref_name>
None

> <i_lp_mmshare_version>
53161

> <r_lp_tautomer_probability>
1

> <s_lp_Force_Field>
OPLS_2005

> <r_lp_Energy>
7.598863

> <b_lp_Chiralities_Consistent>
1

> <s_lp_Variant>
CHEMBL1957_lig610-1

> <s_i_glide_gridfile>
glide-grid_2oj9

> <i_i_glide_lignum>
822

> <i_i_glide_rotatable_bonds>
2

> <r_i_docking_score>
-6.89385231140902

> <r_i_glide_ligand_efficiency>
-0.344692615570451

> <r_i_glide_ligand_efficiency_sa>
-0.935639707080299

> <r_i_glide_ligand_efficiency_ln>
-1.72530385907895

> <r_i_glide_gscore>
-6.89385231140902

> <r_i_glide_lipo>
-2.84780863699243

> <r_i_glide_hbond>
0

> <r_i_glide_metal>
0

> <r_i_glide_rewards>
-2.47839873380309

> <r_i_glide_evdw>
-37.0640602111816

> <r_i_glide_ecoul>
-0.502879083156586

> <r_i_glide_erotb>
0.360989932419074

> <r_i_glide_esite>
0

> <r_i_glide_emodel>
-53.2216924702327

> <r_i_glide_energy>
-37.5669392943382

> <r_i_glide_einternal>
0.161861449480057

> <i_i_glide_confnum>
5

> <i_i_glide_posenum>
133

> <r_i_glide_eff_state_penalty>
0

> <s_user_duplicate_titles>
CHEMBL1957_lig610

> <i_f3d_flags>
0

> <s_m_subgroup_title>
dock_pv

> <s_m_subgroupid>
dock_pv

> <b_m_subgroup_collapsed>
1

$$$$
CHEMBL1957_lig2669
                    3D
 Schrodinger Suite 2021-1.
 51 53  0  0  1  0            999 V2000
    8.7709   -9.7736   24.6526 N   0  0  2  0  0  0
   10.1133   -9.1805   24.4002 C   0  0  0  0  0  0
   10.1456   -7.6945   24.8173 C   0  0  0  0  0  0
    9.0194   -6.9219   24.0933 C   0  0  0  0  0  0
    7.6365   -7.5638   24.3798 C   0  0  0  0  0  0
    7.6455   -9.0601   23.9948 C   0  0  0  0  0  0
    9.0223   -5.5209   24.5167 N   0  0  0  0  0  0
    8.4137   -4.5199   23.7429 C   0  0  0  0  0  0
    8.0326   -4.7786   22.4633 N   0  0  0  0  0  0
    7.3094   -3.8173   21.8378 C   0  0  0  0  0  0
    6.9211   -2.6183   22.4531 C   0  0  0  0  0  0
    7.4442   -2.4222   23.7470 C   0  0  0  0  0  0
    8.1880   -3.3534   24.3885 N   0  0  0  0  0  0
    6.0303   -1.6303   21.7382 C   0  0  0  0  0  0
    6.0380   -0.4394   22.0596 O   0  0  0  0  0  0
    5.0793   -2.0933   20.6667 C   0  0  0  0  0  0
    4.3382   -3.2770   20.8480 C   0  0  0  0  0  0
    3.4439   -3.7159   19.8757 C   0  0  0  0  0  0
    3.1794   -2.9275   18.7636 C   0  0  0  0  0  0
    3.8503   -1.7219   18.6027 C   0  0  0  0  0  0
    4.8400   -1.3153   19.5110 C   0  0  0  0  0  0
    5.6160   -0.2014   19.2586 O   0  0  0  0  0  0
    6.0189    0.0193   17.9023 C   0  0  0  0  0  0
    4.4805   -4.0356   21.9599 F   0  0  0  0  0  0
    2.8382   -4.9161   20.0148 F   0  0  0  0  0  0
    7.2342   -1.2538   24.4671 N   0  0  0  0  0  0
    8.4680  -10.5497   26.2210 S   0  0  0  0  0  0
    7.4000  -12.0264   25.7619 C   0  0  0  0  0  0
    9.7429  -11.0562   26.7404 O   0  0  0  0  0  0
    7.6459   -9.6541   27.0380 O   0  0  0  0  0  0
   10.3120   -9.2457   23.3289 H   0  0  0  0  0  0
   10.8807   -9.7741   24.8981 H   0  0  0  0  0  0
   11.1181   -7.2650   24.5699 H   0  0  0  0  0  0
   10.0364   -7.6136   25.9003 H   0  0  0  0  0  0
    9.2048   -6.9563   23.0167 H   0  0  0  0  0  0
    7.3722   -7.4528   25.4335 H   0  0  0  0  0  0
    6.8568   -7.0479   23.8196 H   0  0  0  0  0  0
    7.7847   -9.1485   22.9163 H   0  0  0  0  0  0
    6.7052   -9.5557   24.2384 H   0  0  0  0  0  0
    9.0404   -5.3414   25.5115 H   0  0  0  0  0  0
    7.0071   -4.0537   20.8289 H   0  0  0  0  0  0
    2.4555   -3.2493   18.0255 H   0  0  0  0  0  0
    3.6183   -1.1260   17.7364 H   0  0  0  0  0  0
    6.8166    0.7461   17.8379 H   0  0  0  0  0  0
    6.4436   -0.8544   17.4310 H   0  0  0  0  0  0
    5.1978    0.3493   17.2751 H   0  0  0  0  0  0
    6.7906   -0.5310   23.9148 H   0  0  0  0  0  0
    8.0290   -0.9991   25.0385 H   0  0  0  0  0  0
    7.1845  -12.5892   26.6678 H   0  0  0  0  0  0
    6.4716  -11.6711   25.3163 H   0  0  0  0  0  0
    7.9488  -12.6461   25.0556 H   0  0  0  0  0  0
  1  2  1  0  0  0
  1  6  1  0  0  0
  1 27  1  0  0  0
  2  3  1  0  0  0
  2 31  1  0  0  0
  2 32  1  0  0  0
  3  4  1  0  0  0
  3 33  1  0  0  0
  3 34  1  0  0  0
  4  5  1  0  0  0
  4  7  1  0  0  0
  4 35  1  0  0  0
  5  6  1  0  0  0
  5 36  1  0  0  0
  5 37  1  0  0  0
  6 38  1  0  0  0
  6 39  1  0  0  0
  7  8  1  0  0  0
  7 40  1  0  0  0
  8  9  2  0  0  0
  8 13  1  0  0  0
  9 10  1  0  0  0
 10 11  2  0  0  0
 10 41  1  0  0  0
 11 12  1  0  0  0
 11 14  1  0  0  0
 12 13  2  0  0  0
 12 26  1  0  0  0
 14 15  2  0  0  0
 14 16  1  0  0  0
 16 17  1  0  0  0
 16 21  2  0  0  0
 17 18  2  0  0  0
 17 24  1  0  0  0
 18 19  1  0  0  0
 18 25  1  0  0  0
 19 20  2  0  0  0
 19 42  1  0  0  0
 20 21  1  0  0  0
 20 43  1  0  0  0
 21 22  1  0  0  0
 22 23  1  0  0  0
 23 44  1  0  0  0
 23 45  1  0  0  0
 23 46  1  0  0  0
 26 47  1  0  0  0
 26 48  1  0  0  0
 27 28  1  0  0  0
 27 29  2  0  0  0
 27 30  2  0  0  0
 28 49  1  0  0  0
 28 50  1  0  0  0
 28 51  1  0  0  0
M  END
> <s_m_entry_id>
5919

> <s_m_entry_name>
dock_pv.314

> <s_m_Source_Path>
/home/csk/Desktop/cluster/DUD-E-result/igf1r

> <s_m_Source_File>
dock_pv.maegz

> <i_m_Source_File_Index>
314

> <chembl_id>
CHEMBL384304

> <chembl_pref_name>
RG-547

> <i_lp_mmshare_version>
53161

> <r_lp_tautomer_probability>
1

> <s_lp_Force_Field>
OPLS_2005

> <r_lp_Energy>
17.749776

> <b_lp_Chiralities_Consistent>
1

> <s_lp_Variant>
CHEMBL1957_lig2669-1

> <s_i_glide_gridfile>
glide-grid_2oj9

> <i_i_glide_lignum>
3694

> <i_i_glide_rotatable_bonds>
6

> <r_i_docking_score>
-6.89202537471277

> <r_i_glide_ligand_efficiency>
-0.229734179157092

> <r_i_glide_ligand_efficiency_sa>
-0.713837508396244

> <r_i_glide_ligand_efficiency_ln>
-1.56594325976581

> <r_i_glide_gscore>
-6.89202537471277

> <r_i_glide_lipo>
-2.46094834164314

> <r_i_glide_hbond>
-0.262520514677164

> <r_i_glide_metal>
0

> <r_i_glide_rewards>
-1.47246578613807

> <r_i_glide_evdw>
-41.0900955200195

> <r_i_glide_ecoul>
-6.70291042327881

> <r_i_glide_erotb>
0.409996736210045

> <r_i_glide_esite>
-0.0461461289716474

> <r_i_glide_emodel>
-61.9006372825635

> <r_i_glide_energy>
-47.7930059432983

> <r_i_glide_einternal>
5.49789047241211

> <i_i_glide_confnum>
4

> <i_i_glide_posenum>
388

> <r_i_glide_eff_state_penalty>
0

> <s_user_duplicate_titles>
CHEMBL1957_lig2669

> <i_f3d_flags>
0

> <s_m_subgroup_title>
dock_pv

> <s_m_subgroupid>
dock_pv

> <b_m_subgroup_collapsed>
1

$$$$
CHEMBL1957_lig854
                    3D
 Schrodinger Suite 2021-1.
 50 53  0  0  1  0            999 V2000
    7.1806   -9.5300   22.7256 C   0  0  0  0  0  0
    6.5810   -8.6441   23.6215 C   0  0  0  0  0  0
    7.2265   -7.4633   23.9923 C   0  0  0  0  0  0
    8.4470   -7.1082   23.4016 C   0  0  0  0  0  0
    9.0698   -8.0172   22.5479 C   0  0  0  0  0  0
    8.4559   -9.2295   22.2369 C   0  0  0  0  0  0
    6.7439   -6.7282   25.0380 O   0  0  0  0  0  0
    5.5218   -6.0534   24.8541 C   0  0  0  0  0  0
    9.0775   -5.8865   23.6958 N   0  0  0  0  0  0
    8.4745   -4.6207   23.6639 C   0  0  0  0  0  0
    8.8488   -3.7558   24.6372 N   0  0  0  0  0  0
    8.2335   -2.5466   24.6379 C   0  0  0  0  0  0
    7.2374   -2.1968   23.7291 C   0  0  0  0  0  0
    6.9026   -3.1540   22.7569 C   0  0  0  0  0  0
    7.5413   -4.3585   22.7082 N   0  0  0  0  0  0
    5.8089   -2.9550   21.7492 C   0  0  0  0  0  0
    5.3951   -1.7949   21.0834 C   0  0  0  0  0  0
    4.4040   -1.9647   20.2381 N   0  0  0  0  0  0
    4.9942   -3.9426   21.2223 N   0  0  0  0  0  0
    4.1579   -3.2935   20.2840 C   0  0  0  0  0  0
    3.2543   -4.0643   19.5291 C   0  0  0  0  0  0
    3.2337   -5.4481   19.7160 C   0  0  0  0  0  0
    4.0381   -6.0630   20.6704 C   0  0  0  0  0  0
    4.9090   -5.3002   21.4379 C   0  0  0  0  0  0
    6.4379   -0.6701   23.8972 Cl  0  0  0  0  0  0
    6.4622  -10.8266   22.3391 C   0  0  0  0  0  0
    7.0248  -12.0515   23.1003 C   0  0  0  0  0  0
    6.8381  -11.9007   24.4922 O   0  0  0  0  0  0
    6.4057  -11.0411   20.8094 C   0  0  0  0  0  0
    5.5256  -12.1059   20.5039 O   0  0  0  0  0  0
    5.6350   -8.8946   24.0780 H   0  0  0  0  0  0
   10.0367   -7.7878   22.1331 H   0  0  0  0  0  0
    8.9698   -9.9237   21.5883 H   0  0  0  0  0  0
    5.2256   -5.6539   25.8203 H   0  0  0  0  0  0
    5.6378   -5.1979   24.2015 H   0  0  0  0  0  0
    4.7390   -6.7099   24.4742 H   0  0  0  0  0  0
    9.7792   -5.9608   24.4167 H   0  0  0  0  0  0
    8.5201   -1.8703   25.4267 H   0  0  0  0  0  0
    5.8325   -0.8151   21.2105 H   0  0  0  0  0  0
    2.6263   -3.5964   18.7844 H   0  0  0  0  0  0
    2.5721   -6.0552   19.1164 H   0  0  0  0  0  0
    4.0023   -7.1363   20.7987 H   0  0  0  0  0  0
    5.5849   -5.7525   22.1403 H   0  0  0  0  0  0
    5.4187  -10.7078   22.6376 H   0  0  0  0  0  0
    8.0851  -12.1943   22.8853 H   0  0  0  0  0  0
    6.5124  -12.9661   22.7991 H   0  0  0  0  0  0
    5.8890  -11.7954   24.6415 H   0  0  0  0  0  0
    6.0341  -10.1438   20.3122 H   0  0  0  0  0  0
    7.3893  -11.2568   20.3913 H   0  0  0  0  0  0
    5.2803  -12.0551   19.5707 H   0  0  0  0  0  0
  1  6  1  0  0  0
  1 26  1  0  0  0
  1  2  2  0  0  0
  2  3  1  0  0  0
  2 31  1  0  0  0
  3  7  1  0  0  0
  3  4  2  0  0  0
  4  9  1  0  0  0
  4  5  1  0  0  0
  5  6  2  0  0  0
  5 32  1  0  0  0
  6 33  1  0  0  0
  7  8  1  0  0  0
  8 34  1  0  0  0
  8 35  1  0  0  0
  8 36  1  0  0  0
  9 10  1  0  0  0
  9 37  1  0  0  0
 10 15  1  0  0  0
 10 11  2  0  0  0
 11 12  1  0  0  0
 12 13  2  0  0  0
 12 38  1  0  0  0
 13 25  1  0  0  0
 13 14  1  0  0  0
 14 15  2  0  0  0
 14 16  1  0  0  0
 16 17  2  0  0  0
 16 19  1  0  0  0
 17 18  1  0  0  0
 17 39  1  0  0  0
 18 20  2  0  0  0
 19 20  1  0  0  0
 19 24  1  0  0  0
 20 21  1  0  0  0
 21 22  2  0  0  0
 21 40  1  0  0  0
 22 23  1  0  0  0
 22 41  1  0  0  0
 23 24  2  0  0  0
 23 42  1  0  0  0
 24 43  1  0  0  0
 26 27  1  0  0  0
 26 29  1  0  0  0
 26 44  1  0  0  0
 27 28  1  0  0  0
 27 45  1  0  0  0
 27 46  1  0  0  0
 28 47  1  0  0  0
 29 30  1  0  0  0
 29 48  1  0  0  0
 29 49  1  0  0  0
 30 50  1  0  0  0
M  END
> <s_m_entry_id>
5920

> <s_m_entry_name>
dock_pv.315

> <s_m_Source_Path>
/home/csk/Desktop/cluster/DUD-E-result/igf1r

> <s_m_Source_File>
dock_pv.maegz

> <i_m_Source_File_Index>
315

> <chembl_id>
CHEMBL1809057

> <chembl_pref_name>
None

> <i_lp_mmshare_version>
53161

> <r_lp_tautomer_probability>
0.999999987636

> <s_lp_Force_Field>
OPLS_2005

> <r_lp_Energy>
20.654168

> <b_lp_Chiralities_Consistent>
1

> <s_lp_Variant>
CHEMBL1957_lig854-1

> <s_i_glide_gridfile>
glide-grid_2oj9

> <i_i_glide_lignum>
1085

> <i_i_glide_rotatable_bonds>
9

> <r_i_docking_score>
-6.88900036259145

> <r_i_glide_ligand_efficiency>
-0.229633345419715

> <r_i_glide_ligand_efficiency_sa>
-0.713524194530123

> <r_i_glide_ligand_efficiency_ln>
-1.56525594405169

> <r_i_glide_gscore>
-6.88900036259145

> <r_i_glide_lipo>
-2.76785616884814

> <r_i_glide_hbond>
-0.608

> <r_i_glide_metal>
0

> <r_i_glide_rewards>
-1.27049639386493

> <r_i_glide_evdw>
-39.6395568847656

> <r_i_glide_ecoul>
-6.11377143859863

> <r_i_glide_erotb>
0.656395760149702

> <r_i_glide_esite>
0

> <r_i_glide_emodel>
-55.5706789058914

> <r_i_glide_energy>
-45.7533283233643

> <r_i_glide_einternal>
15.1666069030762

> <i_i_glide_confnum>
9

> <i_i_glide_posenum>
144

> <r_i_glide_eff_state_penalty>
0

> <s_user_duplicate_titles>
CHEMBL1957_lig854

> <i_f3d_flags>
0

> <s_m_subgroup_title>
dock_pv

> <s_m_subgroupid>
dock_pv

> <b_m_subgroup_collapsed>
1

$$$$
CHEMBL1957_lig2136
                    3D
 Schrodinger Suite 2021-1.
 49 53  0  0  1  0            999 V2000
   10.3276   -5.2574   24.1682 C   0  0  0  0  0  0
    9.1915   -6.0296   23.6953 N   0  0  0  0  0  0
    9.0178   -7.2365   24.2342 N   0  0  0  0  0  0
    7.9714   -7.7190   23.6214 C   0  0  0  0  0  0
    7.4144   -9.1144   23.8260 C   0  0  0  0  0  0
    6.9628   -9.6436   22.4461 C   0  0  0  0  0  0
    6.0526   -8.6459   21.7274 C   0  0  0  0  0  0
    5.0155   -9.0541   20.8956 C   0  0  0  0  0  0
    4.2202   -8.1831   20.2376 N   0  0  0  0  0  0
    4.4512   -6.8616   20.4205 C   0  0  0  0  0  0
    3.6222   -6.0538   19.6245 N   0  0  0  0  0  0
    3.4855   -4.6716   19.4166 C   0  0  0  0  0  0
    3.2440   -4.2180   18.1195 C   0  0  0  0  0  0
    3.2709   -2.8560   17.8381 C   0  0  0  0  0  0
    3.4080   -1.9385   18.8656 C   0  0  0  0  0  0
    3.5558   -2.3786   20.1722 C   0  0  0  0  0  0
    3.6321   -3.7430   20.4411 C   0  0  0  0  0  0
    5.4428   -6.3456   21.2062 N   0  0  0  0  0  0
    6.2481   -7.2507   21.8396 C   0  0  0  0  0  0
    7.4167   -6.8308   22.6848 C   0  0  0  0  0  0
    8.2170   -5.6828   22.7756 C   0  0  0  0  0  0
    8.2021   -4.3441   22.0466 C   0  0  0  0  0  0
    7.4748   -3.2494   22.8233 C   0  0  0  0  0  0
    6.2099   -2.8653   22.4028 C   0  0  0  0  0  0
    5.4833   -1.9166   23.1170 C   0  0  0  0  0  0
    6.0409   -1.3125   24.2356 C   0  0  0  0  0  0
    7.3210   -1.6597   24.6379 C   0  0  0  0  0  0
    8.0375   -2.6296   23.9402 C   0  0  0  0  0  0
   10.6619   -4.5505   23.4106 H   0  0  0  0  0  0
   10.0380   -4.7265   25.0753 H   0  0  0  0  0  0
   11.1652   -5.9241   24.3923 H   0  0  0  0  0  0
    6.5835   -9.0854   24.5270 H   0  0  0  0  0  0
    8.1583   -9.7801   24.2653 H   0  0  0  0  0  0
    6.4634  -10.6059   22.5662 H   0  0  0  0  0  0
    7.8414   -9.8315   21.8262 H   0  0  0  0  0  0
    4.8096  -10.1030   20.7368 H   0  0  0  0  0  0
    3.0395   -6.6172   19.0265 H   0  0  0  0  0  0
    3.1495   -4.9081   17.3019 H   0  0  0  0  0  0
    3.2368   -2.5112   16.8159 H   0  0  0  0  0  0
    3.4176   -0.8816   18.6429 H   0  0  0  0  0  0
    3.6559   -1.6543   20.9565 H   0  0  0  0  0  0
    3.8293   -4.0855   21.4379 H   0  0  0  0  0  0
    7.7371   -4.4624   21.0692 H   0  0  0  0  0  0
    9.2141   -4.0039   21.8319 H   0  0  0  0  0  0
    5.8118   -3.3266   21.5198 H   0  0  0  0  0  0
    4.4801   -1.6544   22.8333 H   0  0  0  0  0  0
    5.4837   -0.5735   24.7913 H   0  0  0  0  0  0
    7.7618   -1.1885   25.5001 H   0  0  0  0  0  0
    9.0339   -2.8795   24.2674 H   0  0  0  0  0  0
  1  2  1  0  0  0
  1 29  1  0  0  0
  1 30  1  0  0  0
  1 31  1  0  0  0
  2  3  1  0  0  0
  2 21  1  0  0  0
  3  4  2  0  0  0
  4  5  1  0  0  0
  4 20  1  0  0  0
  5  6  1  0  0  0
  5 32  1  0  0  0
  5 33  1  0  0  0
  6  7  1  0  0  0
  6 34  1  0  0  0
  6 35  1  0  0  0
  7  8  2  0  0  0
  7 19  1  0  0  0
  8  9  1  0  0  0
  8 36  1  0  0  0
  9 10  2  0  0  0
 10 11  1  0  0  0
 10 18  1  0  0  0
 11 12  1  0  0  0
 11 37  1  0  0  0
 12 13  2  0  0  0
 12 17  1  0  0  0
 13 14  1  0  0  0
 13 38  1  0  0  0
 14 15  2  0  0  0
 14 39  1  0  0  0
 15 16  1  0  0  0
 15 40  1  0  0  0
 16 17  2  0  0  0
 16 41  1  0  0  0
 17 42  1  0  0  0
 18 19  2  0  0  0
 19 20  1  0  0  0
 20 21  2  0  0  0
 21 22  1  0  0  0
 22 23  1  0  0  0
 22 43  1  0  0  0
 22 44  1  0  0  0
 23 24  2  0  0  0
 23 28  1  0  0  0
 24 25  1  0  0  0
 24 45  1  0  0  0
 25 26  2  0  0  0
 25 46  1  0  0  0
 26 27  1  0  0  0
 26 47  1  0  0  0
 27 28  2  0  0  0
 27 48  1  0  0  0
 28 49  1  0  0  0
M  END
> <s_m_entry_id>
5921

> <s_m_entry_name>
dock_pv.316

> <s_m_Source_Path>
/home/csk/Desktop/cluster/DUD-E-result/igf1r

> <s_m_Source_File>
dock_pv.maegz

> <i_m_Source_File_Index>
316

> <chembl_id>
CHEMBL3656579

> <chembl_pref_name>
None

> <i_lp_mmshare_version>
53161

> <r_lp_tautomer_probability>
0.999999987636

> <s_lp_Force_Field>
OPLS_2005

> <r_lp_Energy>
12.181949

> <b_lp_Chiralities_Consistent>
1

> <s_lp_Variant>
CHEMBL1957_lig2136-1

> <s_i_glide_gridfile>
glide-grid_2oj9

> <i_i_glide_lignum>
3110

> <i_i_glide_rotatable_bonds>
4

> <r_i_docking_score>
-6.8867032295895

> <r_i_glide_ligand_efficiency>
-0.245953686771054

> <r_i_glide_ligand_efficiency_sa>
-0.746860252011579

> <r_i_glide_ligand_efficiency_ln>
-1.58965330778232

> <r_i_glide_gscore>
-6.8867032295895

> <r_i_glide_lipo>
-3.8928765273121

> <r_i_glide_hbond>
0

> <r_i_glide_metal>
0

> <r_i_glide_rewards>
-1.58585656872863

> <r_i_glide_evdw>
-37.1664924621582

> <r_i_glide_ecoul>
-0.772370994091034

> <r_i_glide_erotb>
0.570558771118572

> <r_i_glide_esite>
-0.00434863244577236

> <r_i_glide_emodel>
-51.4004093918375

> <r_i_glide_energy>
-37.9388634562492

> <r_i_glide_einternal>
0.899896383285522

> <i_i_glide_confnum>
20

> <i_i_glide_posenum>
394

> <r_i_glide_eff_state_penalty>
0

> <s_user_duplicate_titles>
CHEMBL1957_lig2136

> <i_f3d_flags>
0

> <s_m_subgroup_title>
dock_pv

> <s_m_subgroupid>
dock_pv

> <b_m_subgroup_collapsed>
1

$$$$
CHEMBL1957_lig2815
                    3D
 Schrodinger Suite 2021-1.
 27 29  0  0  1  0            999 V2000
    3.6380   -1.4988   18.3171 O   0  0  0  0  0  0
    6.8381   -0.4137   24.7985 O   0  0  0  0  0  0
    4.4483   -0.4540   18.7658 N   0  0  0  0  0  0
    5.9316   -0.0540   20.5160 N   0  0  0  0  0  0
    4.7124   -2.2043   20.1975 C   0  0  0  0  0  0
    5.0409   -3.1803   21.1692 C   0  0  0  0  0  0
    3.8157   -2.5455   19.1654 C   0  0  0  0  0  0
    5.0606   -0.8586   19.8490 C   0  0  0  0  0  0
    6.0268   -2.9379   22.2543 C   0  0  0  0  0  0
    4.4380   -4.4404   21.0380 C   0  0  0  0  0  0
    3.2380   -3.8055   19.0315 C   0  0  0  0  0  0
    3.5483   -4.7451   20.0093 C   0  0  0  0  0  0
    5.9313   -1.8178   23.0882 C   0  0  0  0  0  0
    7.0857   -3.8325   22.4572 C   0  0  0  0  0  0
    6.8969   -1.5630   24.0584 C   0  0  0  0  0  0
    8.0380   -3.5980   23.4472 C   0  0  0  0  0  0
    7.9523   -2.4541   24.2376 C   0  0  0  0  0  0
    7.7275   -0.1487   25.0701 H   0  0  0  0  0  0
    6.4869   -0.4171   21.2760 H   0  0  0  0  0  0
    6.2405    0.8234   20.0997 H   0  0  0  0  0  0
    4.6673   -5.2119   21.7592 H   0  0  0  0  0  0
    2.5692   -4.0310   18.2134 H   0  0  0  0  0  0
    3.1158   -5.7336   19.9562 H   0  0  0  0  0  0
    5.1187   -1.1231   22.9651 H   0  0  0  0  0  0
    7.1862   -4.7080   21.8317 H   0  0  0  0  0  0
    8.8611   -4.2854   23.5818 H   0  0  0  0  0  0
    8.7144   -2.2630   24.9792 H   0  0  0  0  0  0
  1  3  1  0  0  0
  1  7  1  0  0  0
  2 15  1  0  0  0
  2 18  1  0  0  0
  3  8  2  0  0  0
  4  8  1  0  0  0
  4 19  1  0  0  0
  4 20  1  0  0  0
  5  6  2  0  0  0
  5  7  1  0  0  0
  5  8  1  0  0  0
  6  9  1  0  0  0
  6 10  1  0  0  0
  7 11  2  0  0  0
  9 13  1  0  0  0
  9 14  2  0  0  0
 10 12  2  0  0  0
 10 21  1  0  0  0
 11 12  1  0  0  0
 11 22  1  0  0  0
 12 23  1  0  0  0
 13 15  2  0  0  0
 13 24  1  0  0  0
 14 16  1  0  0  0
 14 25  1  0  0  0
 15 17  1  0  0  0
 16 17  2  0  0  0
 16 26  1  0  0  0
 17 27  1  0  0  0
M  END
> <s_m_entry_id>
5922

> <s_m_entry_name>
dock_pv.317

> <s_m_Source_Path>
/home/csk/Desktop/cluster/DUD-E-result/igf1r

> <s_m_Source_File>
dock_pv.maegz

> <i_m_Source_File_Index>
317

> <chembl_id>
CHEMBL1970340

> <chembl_pref_name>
None

> <i_lp_mmshare_version>
53161

> <r_lp_tautomer_probability>
0.999999999997365

> <s_lp_Force_Field>
OPLS_2005

> <r_lp_Energy>
22.341871

> <b_lp_Chiralities_Consistent>
1

> <s_lp_Variant>
CHEMBL1957_lig2815-1

> <s_i_glide_gridfile>
glide-grid_2oj9

> <i_i_glide_lignum>
3897

> <i_i_glide_rotatable_bonds>
2

> <r_i_docking_score>
-6.88647395177176

> <r_i_glide_ligand_efficiency>
-0.405086703045398

> <r_i_glide_ligand_efficiency_sa>
-1.04159198117739

> <r_i_glide_ligand_efficiency_ln>
-1.7965276997822

> <r_i_glide_gscore>
-6.88647395177176

> <r_i_glide_lipo>
-2.36851089303169

> <r_i_glide_hbond>
-0.42839669302918

> <r_i_glide_metal>
0

> <r_i_glide_rewards>
-2.20827553030303

> <r_i_glide_evdw>
-26.6592426300049

> <r_i_glide_ecoul>
-5.65392971038818

> <r_i_glide_erotb>
0.331963027791665

> <r_i_glide_esite>
-0.0322022751410517

> <r_i_glide_emodel>
-44.5940549340477

> <r_i_glide_energy>
-32.3131723403931

> <r_i_glide_einternal>
1.43590235710144

> <i_i_glide_confnum>
2

> <i_i_glide_posenum>
308

> <r_i_glide_eff_state_penalty>
0

> <s_user_duplicate_titles>
CHEMBL1957_lig2815

> <i_f3d_flags>
0

> <s_m_subgroup_title>
dock_pv

> <s_m_subgroupid>
dock_pv

> <b_m_subgroup_collapsed>
1

$$$$
CHEMBL1957_lig825
                    3D
 Schrodinger Suite 2021-1.
 52 56  0  0  1  0            999 V2000
    3.0179   -3.7698   18.6389 N   0  0  0  0  0  0
    3.5606   -4.2744   19.7747 C   0  0  0  0  0  0
    4.3197   -3.5655   20.6375 N   0  0  0  0  0  0
    4.5947   -2.2739   20.3314 C   0  0  0  0  0  0
    4.0365   -1.6541   19.2126 C   0  0  0  0  0  0
    3.2448   -2.4542   18.3822 C   0  0  0  0  0  0
    5.4897   -1.5862   21.1628 N   0  0  0  0  0  0
    6.3875   -2.1612   22.0772 C   0  0  0  0  0  0
    7.0594   -3.3463   21.7718 C   0  0  0  0  0  0
    7.4192   -2.1246   24.2676 N   0  0  0  0  0  0
    6.6212   -1.5748   23.3177 C   0  0  0  0  0  0
    8.0387   -3.3086   23.9911 C   0  0  0  0  0  0
    7.9022   -3.9507   22.7244 C   0  0  0  0  0  0
    8.5968   -5.1566   22.4667 C   0  0  0  0  0  0
    9.3797   -5.7300   23.4627 C   0  0  0  0  0  0
    9.4726   -5.1365   24.7167 C   0  0  0  0  0  0
    8.8390   -3.9252   24.9832 C   0  0  0  0  0  0
    3.3992   -5.6522   19.9847 N   0  0  0  0  0  0
    4.1686   -6.5395   20.7630 C   0  0  0  0  0  0
    4.4381   -7.8023   20.2412 C   0  0  0  0  0  0
    5.2759   -8.6834   20.9189 C   0  0  0  0  0  0
    5.8742   -8.3288   22.1391 C   0  0  0  0  0  0
    5.5359   -7.0807   22.6871 C   0  0  0  0  0  0
    4.6912   -6.2039   22.0137 C   0  0  0  0  0  0
    6.8555   -9.1430   22.7212 N   0  0  0  0  0  0
    6.7802  -10.6173   22.6388 C   0  0  0  0  0  0
    8.1322  -11.3138   22.9021 C   0  0  0  0  0  0
    8.6369  -10.9248   24.1701 O   0  0  0  0  0  0
    8.8503   -9.5232   24.2342 C   0  0  0  0  0  0
    7.5234   -8.7735   23.9873 C   0  0  0  0  0  0
    4.2475   -0.6240   18.9664 H   0  0  0  0  0  0
    2.8144   -2.0594   17.4720 H   0  0  0  0  0  0
    5.5462   -0.5885   21.0322 H   0  0  0  0  0  0
    6.9321   -3.8180   20.8102 H   0  0  0  0  0  0
    6.1321   -0.6523   23.5916 H   0  0  0  0  0  0
    8.5093   -5.6333   21.5010 H   0  0  0  0  0  0
    9.9091   -6.6521   23.2647 H   0  0  0  0  0  0
   10.0434   -5.6182   25.4941 H   0  0  0  0  0  0
    8.9543   -3.4555   25.9483 H   0  0  0  0  0  0
    2.8891   -6.0954   19.2384 H   0  0  0  0  0  0
    4.0248   -8.1002   19.2905 H   0  0  0  0  0  0
    5.4985   -9.6203   20.4342 H   0  0  0  0  0  0
    5.9367   -6.7507   23.6330 H   0  0  0  0  0  0
    4.4631   -5.2552   22.4729 H   0  0  0  0  0  0
    6.0381  -10.9763   23.3513 H   0  0  0  0  0  0
    6.4472  -10.9467   21.6567 H   0  0  0  0  0  0
    8.8520  -11.0854   22.1130 H   0  0  0  0  0  0
    8.0009  -12.3963   22.8976 H   0  0  0  0  0  0
    9.6139   -9.2169   23.5165 H   0  0  0  0  0  0
    9.2387   -9.2741   25.2214 H   0  0  0  0  0  0
    7.7694   -7.7149   23.9749 H   0  0  0  0  0  0
    6.8381   -8.9178   24.8216 H   0  0  0  0  0  0
  1  6  1  0  0  0
  1  2  2  0  0  0
  2 18  1  0  0  0
  2  3  1  0  0  0
  3  4  2  0  0  0
  4  7  1  0  0  0
  4  5  1  0  0  0
  5  6  2  0  0  0
  5 31  1  0  0  0
  6 32  1  0  0  0
  7  8  1  0  0  0
  7 33  1  0  0  0
  8  9  2  0  0  0
  8 11  1  0  0  0
  9 13  1  0  0  0
  9 34  1  0  0  0
 10 12  1  0  0  0
 10 11  2  0  0  0
 11 35  1  0  0  0
 12 17  2  0  0  0
 12 13  1  0  0  0
 13 14  2  0  0  0
 14 15  1  0  0  0
 14 36  1  0  0  0
 15 16  2  0  0  0
 15 37  1  0  0  0
 16 17  1  0  0  0
 16 38  1  0  0  0
 17 39  1  0  0  0
 18 19  1  0  0  0
 18 40  1  0  0  0
 19 20  2  0  0  0
 19 24  1  0  0  0
 20 21  1  0  0  0
 20 41  1  0  0  0
 21 22  2  0  0  0
 21 42  1  0  0  0
 22 23  1  0  0  0
 22 25  1  0  0  0
 23 24  2  0  0  0
 23 43  1  0  0  0
 24 44  1  0  0  0
 25 26  1  0  0  0
 25 30  1  0  0  0
 26 27  1  0  0  0
 26 45  1  0  0  0
 26 46  1  0  0  0
 27 28  1  0  0  0
 27 47  1  0  0  0
 27 48  1  0  0  0
 28 29  1  0  0  0
 29 30  1  0  0  0
 29 49  1  0  0  0
 29 50  1  0  0  0
 30 51  1  0  0  0
 30 52  1  0  0  0
M  END
> <s_m_entry_id>
5923

> <s_m_entry_name>
dock_pv.318

> <s_m_Source_Path>
/home/csk/Desktop/cluster/DUD-E-result/igf1r

> <s_m_Source_File>
dock_pv.maegz

> <i_m_Source_File_Index>
318

> <chembl_id>
CHEMBL1760056

> <chembl_pref_name>
None

> <i_lp_mmshare_version>
53161

> <r_lp_tautomer_probability>
0.999999624730965

> <s_lp_Force_Field>
OPLS_2005

> <r_lp_Energy>
29.235312

> <b_lp_Chiralities_Consistent>
1

> <s_lp_Variant>
CHEMBL1957_lig825-1

> <s_i_glide_gridfile>
glide-grid_2oj9

> <i_i_glide_lignum>
1056

> <i_i_glide_rotatable_bonds>
5

> <r_i_docking_score>
-6.88614395818052

> <r_i_glide_ligand_efficiency>
-0.229538131939351

> <r_i_glide_ligand_efficiency_sa>
-0.713228344109266

> <r_i_glide_ligand_efficiency_ln>
-1.56460693784651

> <r_i_glide_gscore>
-6.88614395818052

> <r_i_glide_lipo>
-3.7641312954918

> <r_i_glide_hbond>
0

> <r_i_glide_metal>
0

> <r_i_glide_rewards>
-1.3354208452599

> <r_i_glide_evdw>
-46.7233734130859

> <r_i_glide_ecoul>
-0.447926461696625

> <r_i_glide_erotb>
0.616765822479975

> <r_i_glide_esite>
0

> <r_i_glide_emodel>
-61.1744430649809

> <r_i_glide_energy>
-47.1712998747826

> <r_i_glide_einternal>
6.64643001556396

> <i_i_glide_confnum>
30

> <i_i_glide_posenum>
321

> <r_i_glide_eff_state_penalty>
0

> <s_user_duplicate_titles>
CHEMBL1957_lig825

> <i_f3d_flags>
0

> <s_m_subgroup_title>
dock_pv

> <s_m_subgroupid>
dock_pv

> <b_m_subgroup_collapsed>
1

$$$$
CHEMBL1957_lig1413
                    3D
 Schrodinger Suite 2021-1.
 54 58  0  0  1  0            999 V2000
    4.1643   -2.0174   19.5059 C   0  0  0  0  0  0
    3.4139   -2.8953   18.7177 C   0  0  0  0  0  0
    3.2264   -4.1939   19.0563 N   0  0  0  0  0  0
    3.7403   -4.6044   20.2380 C   0  0  0  0  0  0
    4.4705   -3.8226   21.0720 N   0  0  0  0  0  0
    4.6999   -2.5355   20.6983 C   0  0  0  0  0  0
    5.5059   -1.7262   21.5154 N   0  0  0  0  0  0
    3.6630   -5.9842   20.4597 N   0  0  0  0  0  0
    6.3671   -2.1160   22.5101 C   0  0  0  0  0  0
    7.0533   -3.3278   22.6850 C   0  0  0  0  0  0
    7.9083   -3.1550   23.7604 C   0  0  0  0  0  0
    7.6378   -1.8799   24.1706 N   0  0  0  0  0  0
    6.7123   -1.2540   23.4369 N   0  0  0  0  0  0
    4.4429   -0.6059   19.0141 C   0  0  0  0  0  0
    8.9641   -4.0194   24.4144 C   0  0  0  0  0  0
    8.7640   -5.5066   24.5206 C   0  0  0  0  0  0
    9.8043   -4.9489   23.5703 C   0  0  0  0  0  0
    4.4379   -6.8140   21.2858 C   0  0  0  0  0  0
    4.7770   -6.4694   22.5957 C   0  0  0  0  0  0
    5.5335   -7.3395   23.3753 C   0  0  0  0  0  0
    5.9890   -8.5599   22.8582 C   0  0  0  0  0  0
    5.6381   -8.8945   21.5403 C   0  0  0  0  0  0
    4.8616   -8.0350   20.7654 C   0  0  0  0  0  0
    6.7346   -9.4238   23.6623 N   0  0  0  0  0  0
    6.9713  -10.8278   23.2759 C   0  0  0  0  0  0
    7.4377  -11.7164   24.4467 C   0  0  0  0  0  0
    8.6054  -11.1636   25.0345 O   0  0  0  0  0  0
    8.3606   -9.8674   25.5574 C   0  0  0  0  0  0
    7.8764   -8.9122   24.4448 C   0  0  0  0  0  0
    2.9918   -2.5867   17.7708 H   0  0  0  0  0  0
    5.5819   -0.7864   21.1619 H   0  0  0  0  0  0
    3.1970   -6.4700   19.7095 H   0  0  0  0  0  0
    6.9803   -4.2063   22.0623 H   0  0  0  0  0  0
    8.1529   -1.3998   24.8974 H   0  0  0  0  0  0
    4.0184   -0.4539   18.0213 H   0  0  0  0  0  0
    4.0378    0.1369   19.7003 H   0  0  0  0  0  0
    5.5183   -0.4341   18.9435 H   0  0  0  0  0  0
    9.4789   -3.5371   25.2467 H   0  0  0  0  0  0
    7.8477   -5.9259   24.1107 H   0  0  0  0  0  0
    9.0834   -6.0083   25.4347 H   0  0  0  0  0  0
   10.8627   -5.0572   23.8071 H   0  0  0  0  0  0
    9.6250   -4.9893   22.4950 H   0  0  0  0  0  0
    4.4381   -5.5410   23.0284 H   0  0  0  0  0  0
    5.7436   -7.0590   24.3966 H   0  0  0  0  0  0
    5.9596   -9.8259   21.0996 H   0  0  0  0  0  0
    4.6060   -8.3189   19.7541 H   0  0  0  0  0  0
    6.0385  -11.2521   22.9021 H   0  0  0  0  0  0
    7.6904  -10.8681   22.4564 H   0  0  0  0  0  0
    7.6710  -12.7175   24.0842 H   0  0  0  0  0  0
    6.6449  -11.8320   25.1889 H   0  0  0  0  0  0
    9.2863   -9.4877   25.9908 H   0  0  0  0  0  0
    7.6379   -9.9148   26.3736 H   0  0  0  0  0  0
    8.6964   -8.6631   23.7701 H   0  0  0  0  0  0
    7.5940   -7.9884   24.9429 H   0  0  0  0  0  0
  1  2  2  0  0  0
  1  6  1  0  0  0
  1 14  1  0  0  0
  2  3  1  0  0  0
  2 30  1  0  0  0
  3  4  2  0  0  0
  4  5  1  0  0  0
  4  8  1  0  0  0
  5  6  2  0  0  0
  6  7  1  0  0  0
  7  9  1  0  0  0
  7 31  1  0  0  0
  8 18  1  0  0  0
  8 32  1  0  0  0
  9 13  2  0  0  0
  9 10  1  0  0  0
 10 11  2  0  0  0
 10 33  1  0  0  0
 11 15  1  0  0  0
 11 12  1  0  0  0
 12 34  1  0  0  0
 12 13  1  0  0  0
 14 35  1  0  0  0
 14 36  1  0  0  0
 14 37  1  0  0  0
 15 16  1  0  0  0
 15 17  1  0  0  0
 15 38  1  0  0  0
 16 17  1  0  0  0
 16 39  1  0  0  0
 16 40  1  0  0  0
 17 41  1  0  0  0
 17 42  1  0  0  0
 18 19  2  0  0  0
 18 23  1  0  0  0
 19 20  1  0  0  0
 19 43  1  0  0  0
 20 21  2  0  0  0
 20 44  1  0  0  0
 21 22  1  0  0  0
 21 24  1  0  0  0
 22 23  2  0  0  0
 22 45  1  0  0  0
 23 46  1  0  0  0
 24 25  1  0  0  0
 24 29  1  0  0  0
 25 26  1  0  0  0
 25 47  1  0  0  0
 25 48  1  0  0  0
 26 27  1  0  0  0
 26 49  1  0  0  0
 26 50  1  0  0  0
 27 28  1  0  0  0
 28 29  1  0  0  0
 28 51  1  0  0  0
 28 52  1  0  0  0
 29 53  1  0  0  0
 29 54  1  0  0  0
M  END
> <s_m_entry_id>
5924

> <s_m_entry_name>
dock_pv.319

> <s_m_Source_Path>
/home/csk/Desktop/cluster/DUD-E-result/igf1r

> <s_m_Source_File>
dock_pv.maegz

> <i_m_Source_File_Index>
319

> <chembl_id>
CHEMBL3924389

> <chembl_pref_name>
None

> <i_lp_mmshare_version>
53161

> <r_lp_tautomer_probability>
0.842599949391031

> <s_lp_Force_Field>
OPLS_2005

> <r_lp_Energy>
24.702151

> <b_lp_Chiralities_Consistent>
1

> <s_lp_Variant>
CHEMBL1957_lig1413-1

> <s_i_glide_gridfile>
glide-grid_2oj9

> <i_i_glide_lignum>
1960

> <i_i_glide_rotatable_bonds>
6

> <r_i_docking_score>
-6.88547587516215

> <r_i_glide_ligand_efficiency>
-0.237430202591798

> <r_i_glide_ligand_efficiency_sa>
-0.729460805530011

> <r_i_glide_ligand_efficiency_ln>
-1.57659937480889

> <r_i_glide_gscore>
-6.88547587516215

> <r_i_glide_lipo>
-3.43509309178544

> <r_i_glide_hbond>
-0.218831687442228

> <r_i_glide_metal>
0

> <r_i_glide_rewards>
-1.33108980428279

> <r_i_glide_evdw>
-44.3632316589355

> <r_i_glide_ecoul>
-2.97119426727295

> <r_i_glide_erotb>
0.764051851340866

> <r_i_glide_esite>
-0.000672419954837757

> <r_i_glide_emodel>
-62.9864890835529

> <r_i_glide_energy>
-47.3344259262085

> <r_i_glide_einternal>
5.90213871002197

> <i_i_glide_confnum>
9

> <i_i_glide_posenum>
153

> <r_i_glide_eff_state_penalty>
0

> <s_user_duplicate_titles>
CHEMBL1957_lig1413

> <i_f3d_flags>
0

> <s_m_subgroup_title>
dock_pv

> <s_m_subgroupid>
dock_pv

> <b_m_subgroup_collapsed>
1

$$$$
CHEMBL1957_lig2944
                    3D
 Schrodinger Suite 2021-1.
 24 26  0  0  1  0            999 V2000
    6.3183   -8.3256   22.2345 S   0  0  0  0  0  0
    6.1953   -5.5777   22.7119 N   0  0  0  0  0  0
    7.3630   -4.3578   24.2383 N   0  0  0  0  0  0
    4.7491   -6.6226   21.1287 N   0  0  0  0  0  0
    7.2966   -6.6222   24.6380 N   0  0  0  0  0  0
    4.3185   -0.8541   19.3618 N   0  0  0  0  0  0
    6.0463   -4.2313   22.3708 C   0  0  0  0  0  0
    6.8180   -3.5185   23.3229 C   0  0  0  0  0  0
    6.9675   -5.5436   23.8768 C   0  0  0  0  0  0
    5.6906   -6.7012   22.0432 C   0  0  0  0  0  0
    5.3505   -3.5546   21.3573 C   0  0  0  0  0  0
    6.9300   -2.1253   23.2536 C   0  0  0  0  0  0
    5.4964   -2.1650   21.2899 C   0  0  0  0  0  0
    6.2663   -1.4652   22.2215 C   0  0  0  0  0  0
    5.2380   -8.8657   20.9909 C   0  0  0  0  0  0
    4.5110   -7.7751   20.5348 C   0  0  0  0  0  0
    4.8396   -1.4354   20.2152 C   0  0  0  0  0  0
    7.0733   -7.5671   24.3682 H   0  0  0  0  0  0
    7.6370   -6.4730   25.5843 H   0  0  0  0  0  0
    4.7368   -4.0726   20.6381 H   0  0  0  0  0  0
    7.5277   -1.5846   23.9731 H   0  0  0  0  0  0
    6.3630   -0.3913   22.1443 H   0  0  0  0  0  0
    5.2104   -9.8963   20.6651 H   0  0  0  0  0  0
    3.7861   -7.8142   19.7348 H   0  0  0  0  0  0
  1 10  1  0  0  0
  1 15  1  0  0  0
  2  7  1  0  0  0
  2  9  1  0  0  0
  2 10  1  0  0  0
  3  8  1  0  0  0
  3  9  2  0  0  0
  4 10  2  0  0  0
  4 16  1  0  0  0
  5  9  1  0  0  0
  5 18  1  0  0  0
  5 19  1  0  0  0
  6 17  3  0  0  0
  7  8  1  0  0  0
  7 11  2  0  0  0
  8 12  2  0  0  0
 11 13  1  0  0  0
 11 20  1  0  0  0
 12 14  1  0  0  0
 12 21  1  0  0  0
 13 14  2  0  0  0
 13 17  1  0  0  0
 14 22  1  0  0  0
 15 16  2  0  0  0
 15 23  1  0  0  0
 16 24  1  0  0  0
M  END
> <s_m_entry_id>
5925

> <s_m_entry_name>
dock_pv.320

> <s_m_Source_Path>
/home/csk/Desktop/cluster/DUD-E-result/igf1r

> <s_m_Source_File>
dock_pv.maegz

> <i_m_Source_File_Index>
320

> <chembl_id>
CHEMBL1988805

> <chembl_pref_name>
None

> <i_lp_mmshare_version>
53161

> <r_lp_tautomer_probability>
1

> <s_lp_Force_Field>
OPLS_2005

> <r_lp_Energy>
9.496343

> <b_lp_Chiralities_Consistent>
1

> <s_lp_Variant>
CHEMBL1957_lig2944-1

> <s_i_glide_gridfile>
glide-grid_2oj9

> <i_i_glide_lignum>
4073

> <i_i_glide_rotatable_bonds>
1

> <r_i_docking_score>
-6.8841997073187

> <r_i_glide_ligand_efficiency>
-0.404952923959924

> <r_i_glide_ligand_efficiency_sa>
-1.04124799747802

> <r_i_glide_ligand_efficiency_ln>
-1.79593440004933

> <r_i_glide_gscore>
-6.8841997073187

> <r_i_glide_lipo>
-1.92388232723959

> <r_i_glide_hbond>
-0.32

> <r_i_glide_metal>
0

> <r_i_glide_rewards>
-2.92974018036762

> <r_i_glide_evdw>
-31.6282730102539

> <r_i_glide_ecoul>
-2.63911771774292

> <r_i_glide_erotb>
0.297547363106429

> <r_i_glide_esite>
-0.0308432546437843

> <r_i_glide_emodel>
-47.0760588534515

> <r_i_glide_energy>
-34.2673907279968

> <r_i_glide_einternal>
1.07523107528687

> <i_i_glide_confnum>
4

> <i_i_glide_posenum>
173

> <r_i_glide_eff_state_penalty>
0

> <s_user_duplicate_titles>
CHEMBL1957_lig2944

> <i_f3d_flags>
0

> <s_m_subgroup_title>
dock_pv

> <s_m_subgroupid>
dock_pv

> <b_m_subgroup_collapsed>
1

$$$$
CHEMBL1957_lig1696
                    3D
 Schrodinger Suite 2021-1.
 60 64  0  0  1  0            999 V2000
    4.1034   -7.5597   19.7290 N   0  0  0  0  0  0
    5.4133   -9.2867   20.7566 C   0  0  0  0  0  0
    6.1375   -9.7334   21.8730 C   0  0  0  0  0  0
    6.0731   -9.0462   23.0484 N   0  0  0  0  0  0
    5.3616   -7.8922   23.0594 C   0  0  0  0  0  0
    4.7321   -7.3510   22.0027 N   0  0  0  0  0  0
    4.7636   -8.0555   20.8515 C   0  0  0  0  0  0
    5.2492   -7.1426   24.2243 N   0  0  0  0  0  0
    6.4878   -6.8457   24.9231 C   0  0  0  0  0  0
    7.2858   -5.7674   24.2250 C   0  0  0  0  0  0
    7.9412   -4.8545   24.9841 O   0  0  0  0  0  0
    8.4386   -3.8541   24.1507 N   0  0  0  0  0  0
    8.0852   -4.1967   22.9306 C   0  0  0  0  0  0
    7.4798   -5.4424   22.9087 C   0  0  0  0  0  0
    3.6378   -6.3006   19.4616 C   0  0  0  0  0  0
    3.6415   -5.1439   20.2374 C   0  0  0  0  0  0
    3.2379   -4.1157   19.4147 C   0  0  0  0  0  0
    2.9235   -4.7315   18.2421 N   0  0  0  0  0  0
    3.0940   -6.0525   18.2939 N   0  0  0  0  0  0
    3.0740   -2.6480   19.6292 C   0  0  0  0  0  0
    2.2303   -2.1456   20.7699 C   0  0  0  0  0  0
    3.7374   -2.0485   20.8280 C   0  0  0  0  0  0
    6.7465  -10.9890   21.8995 N   0  0  0  0  0  0
    8.2449   -3.2537   21.7653 C   0  0  0  0  0  0
    6.8469   -2.9259   21.1976 C   0  0  0  0  0  0
    9.2379   -3.7833   20.7139 C   0  0  0  0  0  0
    7.2370  -11.6755   23.1116 C   0  0  0  0  0  0
    8.7540  -11.9718   23.0541 C   0  0  0  0  0  0
    9.0853  -12.7862   21.8876 N   0  0  0  0  0  0
    8.6647  -12.0789   20.6827 C   0  0  0  0  0  0
    7.1475  -11.7660   20.7102 C   0  0  0  0  0  0
    4.1882   -8.1680   18.9236 H   0  0  0  0  0  0
    5.3653   -9.8546   19.8413 H   0  0  0  0  0  0
    4.6848   -6.3215   24.0665 H   0  0  0  0  0  0
    6.1024   -6.4278   25.8379 H   0  0  0  0  0  0
    7.0634   -7.7338   25.1856 H   0  0  0  0  0  0
    7.0944   -5.9559   22.0419 H   0  0  0  0  0  0
    4.0384   -5.0464   21.2340 H   0  0  0  0  0  0
    2.5500   -4.2590   17.4276 H   0  0  0  0  0  0
    3.0678   -2.0558   18.7122 H   0  0  0  0  0  0
    1.6319   -1.2541   20.6385 H   0  0  0  0  0  0
    1.7410   -2.8552   21.4371 H   0  0  0  0  0  0
    4.2174   -2.6799   21.5713 H   0  0  0  0  0  0
    4.2779   -1.1216   20.6377 H   0  0  0  0  0  0
    8.6528   -2.3201   22.1541 H   0  0  0  0  0  0
    6.3173   -2.3025   21.9174 H   0  0  0  0  0  0
    6.8380   -2.3925   20.2485 H   0  0  0  0  0  0
    6.2578   -3.8296   21.0373 H   0  0  0  0  0  0
   10.2690   -3.6531   21.0398 H   0  0  0  0  0  0
    9.1032   -4.8480   20.5323 H   0  0  0  0  0  0
    9.1449   -3.2573   19.7642 H   0  0  0  0  0  0
    6.6653  -12.5948   23.2501 H   0  0  0  0  0  0
    7.0372  -11.0896   24.0092 H   0  0  0  0  0  0
    9.3292  -11.0428   23.0360 H   0  0  0  0  0  0
    9.0756  -12.4991   23.9529 H   0  0  0  0  0  0
   10.0822  -12.9552   21.8590 H   0  0  0  0  0  0
    9.2488  -11.1632   20.5810 H   0  0  0  0  0  0
    8.9170  -12.6845   19.8106 H   0  0  0  0  0  0
    6.9092  -11.2362   19.7921 H   0  0  0  0  0  0
    6.5566  -12.6834   20.6682 H   0  0  0  0  0  0
  1  7  1  0  0  0
  1 15  1  0  0  0
  1 32  1  0  0  0
  2  3  2  0  0  0
  2  7  1  0  0  0
  2 33  1  0  0  0
  3  4  1  0  0  0
  3 23  1  0  0  0
  4  5  2  0  0  0
  5  6  1  0  0  0
  5  8  1  0  0  0
  6  7  2  0  0  0
  8  9  1  0  0  0
  8 34  1  0  0  0
  9 10  1  0  0  0
  9 35  1  0  0  0
  9 36  1  0  0  0
 10 11  1  0  0  0
 10 14  2  0  0  0
 11 12  1  0  0  0
 12 13  2  0  0  0
 13 14  1  0  0  0
 13 24  1  0  0  0
 14 37  1  0  0  0
 15 16  1  0  0  0
 15 19  2  0  0  0
 16 17  2  0  0  0
 16 38  1  0  0  0
 17 18  1  0  0  0
 17 20  1  0  0  0
 18 19  1  0  0  0
 18 39  1  0  0  0
 20 21  1  0  0  0
 20 22  1  0  0  0
 20 40  1  0  0  0
 21 22  1  0  0  0
 21 41  1  0  0  0
 21 42  1  0  0  0
 22 43  1  0  0  0
 22 44  1  0  0  0
 23 27  1  0  0  0
 23 31  1  0  0  0
 24 25  1  0  0  0
 24 26  1  0  0  0
 24 45  1  0  0  0
 25 46  1  0  0  0
 25 47  1  0  0  0
 25 48  1  0  0  0
 26 49  1  0  0  0
 26 50  1  0  0  0
 26 51  1  0  0  0
 27 28  1  0  0  0
 27 52  1  0  0  0
 27 53  1  0  0  0
 28 29  1  0  0  0
 28 54  1  0  0  0
 28 55  1  0  0  0
 29 30  1  0  0  0
 29 56  1  0  0  0
 30 31  1  0  0  0
 30 57  1  0  0  0
 30 58  1  0  0  0
 31 59  1  0  0  0
 31 60  1  0  0  0
M  END
> <s_m_entry_id>
5926

> <s_m_entry_name>
dock_pv.321

> <s_m_Source_Path>
/home/csk/Desktop/cluster/DUD-E-result/igf1r

> <s_m_Source_File>
dock_pv.maegz

> <i_m_Source_File_Index>
321

> <chembl_id>
CHEMBL3980579

> <chembl_pref_name>
None

> <i_lp_mmshare_version>
53161

> <r_lp_tautomer_probability>
0.842599732729633

> <s_lp_Force_Field>
OPLS_2005

> <r_lp_Energy>
17.956485

> <b_lp_Chiralities_Consistent>
1

> <s_lp_Variant>
CHEMBL1957_lig1696-1

> <s_i_glide_gridfile>
glide-grid_2oj9

> <i_i_glide_lignum>
2520

> <i_i_glide_rotatable_bonds>
8

> <r_i_docking_score>
-6.8819302790025

> <r_i_glide_ligand_efficiency>
-0.221997750935564

> <r_i_glide_ligand_efficiency_sa>
-0.697379438865121

> <r_i_glide_ligand_efficiency_ln>
-1.55208618374928

> <r_i_glide_gscore>
-6.8819302790025

> <r_i_glide_lipo>
-2.95708879413181

> <r_i_glide_hbond>
-0.632960000590594

> <r_i_glide_metal>
0

> <r_i_glide_rewards>
-1.79359276074005

> <r_i_glide_evdw>
-30.5023212432861

> <r_i_glide_ecoul>
-3.3333683013916

> <r_i_glide_erotb>
0.541458116955355

> <r_i_glide_esite>
-0.0146255331223463

> <r_i_glide_emodel>
-22.5329870075763

> <r_i_glide_energy>
-33.8356895446777

> <r_i_glide_einternal>
21.8995571136475

> <i_i_glide_confnum>
13

> <i_i_glide_posenum>
25

> <r_i_glide_eff_state_penalty>
0

> <s_user_duplicate_titles>
CHEMBL1957_lig1696

> <i_f3d_flags>
0

> <s_m_subgroup_title>
dock_pv

> <s_m_subgroupid>
dock_pv

> <b_m_subgroup_collapsed>
1

$$$$
CHEMBL1957_lig1514
                    3D
 Schrodinger Suite 2021-1.
 43 46  0  0  1  0            999 V2000
   10.4330   -6.4104   24.2386 N   0  0  0  0  0  0
    9.2075   -5.8621   24.0772 C   0  0  0  0  0  0
    8.0495   -6.5651   23.9247 N   0  0  0  0  0  0
    8.1448   -7.9230   23.9406 C   0  0  0  0  0  0
    7.0082   -8.6989   23.6785 N   0  0  0  0  0  0
    9.1843   -4.4624   24.1157 N   0  0  0  0  0  0
   10.4990   -7.7649   24.2654 C   0  0  0  0  0  0
    9.3730   -8.5722   24.1178 C   0  0  0  0  0  0
    9.5526  -10.4714   24.1097 Br  0  0  0  0  0  0
    7.9811   -3.7366   24.4938 C   0  0  0  0  0  0
    7.2318   -3.0671   23.3733 C   0  0  0  0  0  0
    7.2360   -1.7130   23.3703 O   0  0  0  0  0  0
    6.4147   -1.2619   22.3383 N   0  0  0  0  0  0
    5.9308   -2.3356   21.7504 C   0  0  0  0  0  0
    6.4416   -3.4961   22.3349 C   0  0  0  0  0  0
    6.1933   -8.6055   22.5437 C   0  0  0  0  0  0
    5.9954   -9.7576   21.7803 C   0  0  0  0  0  0
    5.2252   -9.7035   20.6219 C   0  0  0  0  0  0
    4.6401   -8.4982   20.2393 C   0  0  0  0  0  0
    4.8161   -7.3493   21.0076 C   0  0  0  0  0  0
    5.5882   -7.4051   22.1652 C   0  0  0  0  0  0
    4.9710   -2.2468   20.6105 C   0  0  0  0  0  0
    4.0808   -3.3009   20.3787 C   0  0  0  0  0  0
    3.2403   -3.2819   19.2704 C   0  0  0  0  0  0
    3.2594   -2.1914   18.4067 C   0  0  0  0  0  0
    4.1274   -1.1290   18.6395 C   0  0  0  0  0  0
    4.9758   -1.1470   19.7434 C   0  0  0  0  0  0
    7.2088   -9.6633   23.8945 H   0  0  0  0  0  0
   10.0468   -3.9462   23.9833 H   0  0  0  0  0  0
   11.4837   -8.1962   24.3698 H   0  0  0  0  0  0
    8.3114   -2.9812   25.2088 H   0  0  0  0  0  0
    7.3051   -4.4009   25.0317 H   0  0  0  0  0  0
    6.2391   -4.5157   22.0583 H   0  0  0  0  0  0
    6.4472  -10.6948   22.0717 H   0  0  0  0  0  0
    5.0766  -10.5932   20.0240 H   0  0  0  0  0  0
    4.0269   -8.4580   19.3531 H   0  0  0  0  0  0
    4.3453   -6.4257   20.7089 H   0  0  0  0  0  0
    5.7094   -6.5237   22.7742 H   0  0  0  0  0  0
    4.0551   -4.1548   21.0400 H   0  0  0  0  0  0
    2.5756   -4.1110   19.0762 H   0  0  0  0  0  0
    2.6157   -2.1670   17.5390 H   0  0  0  0  0  0
    4.1703   -0.3087   17.9430 H   0  0  0  0  0  0
    5.6663   -0.3274   19.8907 H   0  0  0  0  0  0
  1  7  1  0  0  0
  1  2  2  0  0  0
  2  3  1  0  0  0
  2  6  1  0  0  0
  3  4  2  0  0  0
  4  8  1  0  0  0
  4  5  1  0  0  0
  5 16  1  0  0  0
  5 28  1  0  0  0
  6 10  1  0  0  0
  6 29  1  0  0  0
  7  8  2  0  0  0
  7 30  1  0  0  0
  8  9  1  0  0  0
 10 11  1  0  0  0
 10 31  1  0  0  0
 10 32  1  0  0  0
 11 12  1  0  0  0
 11 15  2  0  0  0
 12 13  1  0  0  0
 13 14  2  0  0  0
 14 15  1  0  0  0
 14 22  1  0  0  0
 15 33  1  0  0  0
 16 17  2  0  0  0
 16 21  1  0  0  0
 17 18  1  0  0  0
 17 34  1  0  0  0
 18 19  2  0  0  0
 18 35  1  0  0  0
 19 20  1  0  0  0
 19 36  1  0  0  0
 20 21  2  0  0  0
 20 37  1  0  0  0
 21 38  1  0  0  0
 22 23  2  0  0  0
 22 27  1  0  0  0
 23 24  1  0  0  0
 23 39  1  0  0  0
 24 25  2  0  0  0
 24 40  1  0  0  0
 25 26  1  0  0  0
 25 41  1  0  0  0
 26 27  2  0  0  0
 26 42  1  0  0  0
 27 43  1  0  0  0
M  END
> <s_m_entry_id>
5927

> <s_m_entry_name>
dock_pv.322

> <s_m_Source_Path>
/home/csk/Desktop/cluster/DUD-E-result/igf1r

> <s_m_Source_File>
dock_pv.maegz

> <i_m_Source_File_Index>
322

> <chembl_id>
CHEMBL3931389

> <chembl_pref_name>
None

> <i_lp_mmshare_version>
53161

> <r_lp_tautomer_probability>
0.999999624730965

> <s_lp_Force_Field>
OPLS_2005

> <r_lp_Energy>
9.535008

> <b_lp_Chiralities_Consistent>
1

> <s_lp_Variant>
CHEMBL1957_lig1514-1

> <s_i_glide_gridfile>
glide-grid_2oj9

> <i_i_glide_lignum>
2157

> <i_i_glide_rotatable_bonds>
6

> <r_i_docking_score>
-6.88128567219113

> <r_i_glide_ligand_efficiency>
-0.254862432303375

> <r_i_glide_ligand_efficiency_sa>
-0.76458729607014

> <r_i_glide_ligand_efficiency_ln>
-1.60184985762543

> <r_i_glide_gscore>
-6.88128567219113

> <r_i_glide_lipo>
-3.74277606235412

> <r_i_glide_hbond>
-0.178931871191058

> <r_i_glide_metal>
0

> <r_i_glide_rewards>
-1.01913953156837

> <r_i_glide_evdw>
-43.1533317565918

> <r_i_glide_ecoul>
-2.9953191280365

> <r_i_glide_erotb>
0.666526249957492

> <r_i_glide_esite>
0

> <r_i_glide_emodel>
-61.4003648751334

> <r_i_glide_energy>
-46.1486508846283

> <r_i_glide_einternal>
9.02482032775879

> <i_i_glide_confnum>
2

> <i_i_glide_posenum>
30

> <r_i_glide_eff_state_penalty>
0

> <s_user_duplicate_titles>
CHEMBL1957_lig1514

> <i_f3d_flags>
0

> <s_m_subgroup_title>
dock_pv

> <s_m_subgroupid>
dock_pv

> <b_m_subgroup_collapsed>
1

$$$$
CHEMBL1957_lig3495
                    3D
 Schrodinger Suite 2021-1.
 39 42  0  0  1  0            999 V2000
    4.4774   -8.0937   20.5137 C   0  0  0  0  0  0
    5.0098   -9.3814   20.6350 C   0  0  0  0  0  0
    6.0575   -9.7069   21.4352 N   0  0  0  0  0  0
    5.0254   -7.0356   21.2553 C   0  0  0  0  0  0
    6.1448   -7.3346   22.0649 C   0  0  0  0  0  0
    6.5825   -8.6796   22.0987 C   0  0  0  0  0  0
    7.6817   -8.8271   22.9031 O   0  0  0  0  0  0
    7.0392   -6.6237   22.8911 C   0  0  0  0  0  0
    7.9701   -7.5717   23.3758 C   0  0  0  0  0  0
    9.0304   -7.2373   24.2176 C   0  0  0  0  0  0
    9.1552   -5.8965   24.5758 C   0  0  0  0  0  0
    8.2602   -4.9149   24.1215 C   0  0  0  0  0  0
    7.1930   -5.2786   23.2763 C   0  0  0  0  0  0
    4.5327   -5.7231   21.2017 N   0  0  0  0  0  0
    3.5010   -5.2664   20.2698 C   0  0  0  0  0  0
    3.6828   -3.8025   19.8573 C   0  0  0  0  0  0
    4.4911   -2.8981   20.5703 C   0  0  0  0  0  0
    4.7454   -1.6218   20.0620 C   0  0  0  0  0  0
    4.1335   -1.2188   18.8806 C   0  0  0  0  0  0
    3.2886   -2.0868   18.1952 C   0  0  0  0  0  0
    3.0728   -3.3722   18.6765 C   0  0  0  0  0  0
    8.4386   -3.5005   24.5386 N   0  3  0  0  0  0
    7.7527   -2.6361   23.9925 O   0  0  0  0  0  0
    9.2388   -3.2466   25.4365 O   0  5  0  0  0  0
    5.6376   -0.7625   20.7006 N   0  0  0  0  0  0
    3.6414   -7.9427   19.8505 H   0  0  0  0  0  0
    4.5822  -10.2010   20.0707 H   0  0  0  0  0  0
    9.7297   -7.9820   24.5670 H   0  0  0  0  0  0
    9.9808   -5.6163   25.2181 H   0  0  0  0  0  0
    6.5062   -4.5311   22.9138 H   0  0  0  0  0  0
    4.8930   -5.0607   21.8688 H   0  0  0  0  0  0
    2.5093   -5.4023   20.6967 H   0  0  0  0  0  0
    3.5332   -5.8637   19.3580 H   0  0  0  0  0  0
    4.9829   -3.1934   21.4819 H   0  0  0  0  0  0
    4.3408   -0.2410   18.4710 H   0  0  0  0  0  0
    2.8389   -1.7775   17.2639 H   0  0  0  0  0  0
    2.4468   -4.0433   18.1074 H   0  0  0  0  0  0
    6.2430   -1.1639   21.4020 H   0  0  0  0  0  0
    5.9726    0.0268   20.1615 H   0  0  0  0  0  0
  1  2  2  0  0  0
  1  4  1  0  0  0
  1 26  1  0  0  0
  2  3  1  0  0  0
  2 27  1  0  0  0
  3  6  2  0  0  0
  4  5  2  0  0  0
  4 14  1  0  0  0
  5  6  1  0  0  0
  5  8  1  0  0  0
  6  7  1  0  0  0
  7  9  1  0  0  0
  8  9  2  0  0  0
  8 13  1  0  0  0
  9 10  1  0  0  0
 10 11  2  0  0  0
 10 28  1  0  0  0
 11 12  1  0  0  0
 11 29  1  0  0  0
 12 13  2  0  0  0
 12 22  1  0  0  0
 13 30  1  0  0  0
 14 15  1  0  0  0
 14 31  1  0  0  0
 15 16  1  0  0  0
 15 32  1  0  0  0
 15 33  1  0  0  0
 16 17  2  0  0  0
 16 21  1  0  0  0
 17 18  1  0  0  0
 17 34  1  0  0  0
 18 19  2  0  0  0
 18 25  1  0  0  0
 19 20  1  0  0  0
 19 35  1  0  0  0
 20 21  2  0  0  0
 20 36  1  0  0  0
 21 37  1  0  0  0
 22 23  2  0  0  0
 22 24  1  0  0  0
 25 38  1  0  0  0
 25 39  1  0  0  0
M  CHG  2  22   1  24  -1
M  END
> <s_m_entry_id>
5928

> <s_m_entry_name>
dock_pv.323

> <s_m_Source_Path>
/home/csk/Desktop/cluster/DUD-E-result/igf1r

> <s_m_Source_File>
dock_pv.maegz

> <i_m_Source_File_Index>
323

> <chembl_id>
CHEMBL4204320

> <chembl_pref_name>
None

> <i_lp_mmshare_version>
53161

> <r_lp_tautomer_probability>
1

> <s_lp_Force_Field>
OPLS_2005

> <r_lp_Energy>
18.035923

> <b_lp_Chiralities_Consistent>
1

> <s_lp_Variant>
CHEMBL1957_lig3495-1

> <s_i_glide_gridfile>
glide-grid_2oj9

> <i_i_glide_lignum>
4905

> <i_i_glide_rotatable_bonds>
4

> <r_i_docking_score>
-6.87275723176177

> <r_i_glide_ligand_efficiency>
-0.274910289270471

> <r_i_glide_ligand_efficiency_sa>
-0.803842561381597

> <r_i_glide_ligand_efficiency_ln>
-1.62904942384183

> <r_i_glide_gscore>
-6.87275723176177

> <r_i_glide_lipo>
-3.48322942350553

> <r_i_glide_hbond>
0

> <r_i_glide_metal>
0

> <r_i_glide_rewards>
-1.6128794942964

> <r_i_glide_evdw>
-40.3469505310059

> <r_i_glide_ecoul>
-1.76979446411133

> <r_i_glide_erotb>
0.506168382207154

> <r_i_glide_esite>
0

> <r_i_glide_emodel>
-58.7552709329054

> <r_i_glide_energy>
-42.1167449951172

> <r_i_glide_einternal>
2.55084466934204

> <i_i_glide_confnum>
10

> <i_i_glide_posenum>
205

> <r_i_glide_eff_state_penalty>
0

> <s_user_duplicate_titles>
CHEMBL1957_lig3495

> <i_f3d_flags>
0

> <s_m_subgroup_title>
dock_pv

> <s_m_subgroupid>
dock_pv

> <b_m_subgroup_collapsed>
1

$$$$
CHEMBL1957_lig2148
                    3D
 Schrodinger Suite 2021-1.
 48 51  0  0  1  0            999 V2000
    8.1857   -9.6107   22.8904 C   0  0  0  0  0  0
    8.1490   -8.1573   23.0411 N   0  0  0  0  0  0
    9.2769   -7.6226   23.5063 N   0  0  0  0  0  0
    9.0428   -6.3487   23.5927 C   0  0  0  0  0  0
   10.0369   -5.3265   24.1124 C   0  0  0  0  0  0
    9.2424   -4.2987   24.9529 C   0  0  0  0  0  0
    8.0747   -3.7259   24.1559 C   0  0  0  0  0  0
    7.7124   -2.3774   24.2094 C   0  0  0  0  0  0
    6.7294   -1.8463   23.4478 N   0  0  0  0  0  0
    6.0896   -2.6951   22.6122 C   0  0  0  0  0  0
    5.2217   -2.0535   21.7239 N   0  0  0  0  0  0
    4.4830   -2.5028   20.6223 C   0  0  0  0  0  0
    4.3084   -1.6262   19.5512 C   0  0  0  0  0  0
    3.6376   -2.0494   18.4077 C   0  0  0  0  0  0
    3.1310   -3.3438   18.3424 C   0  0  0  0  0  0
    3.2383   -4.2025   19.4329 C   0  0  0  0  0  0
    3.9228   -3.7791   20.5712 C   0  0  0  0  0  0
    6.3179   -4.0339   22.5273 N   0  0  0  0  0  0
    7.3179   -4.5488   23.2941 C   0  0  0  0  0  0
    7.7434   -5.9993   23.1973 C   0  0  0  0  0  0
    7.1385   -7.2235   22.7964 C   0  0  0  0  0  0
    5.7070   -7.5428   22.2733 C   0  0  0  0  0  0
    5.4702   -6.8075   20.9442 C   0  0  0  0  0  0
    4.6836   -7.0665   23.3265 C   0  0  0  0  0  0
    5.3929   -9.0277   21.9549 C   0  0  0  0  0  0
    8.1348   -9.8733   21.8357 H   0  0  0  0  0  0
    9.1194  -10.0246   23.2807 H   0  0  0  0  0  0
    7.3761  -10.0673   23.4573 H   0  0  0  0  0  0
   10.5631   -4.8461   23.2857 H   0  0  0  0  0  0
   10.8120   -5.8098   24.7074 H   0  0  0  0  0  0
    9.9012   -3.5004   25.2978 H   0  0  0  0  0  0
    8.8481   -4.7909   25.8403 H   0  0  0  0  0  0
    8.2427   -1.6771   24.8396 H   0  0  0  0  0  0
    5.2714   -1.0517   21.8063 H   0  0  0  0  0  0
    4.7256   -0.6298   19.5794 H   0  0  0  0  0  0
    3.5217   -1.3815   17.5684 H   0  0  0  0  0  0
    2.6428   -3.6792   17.4385 H   0  0  0  0  0  0
    2.8377   -5.2039   19.3847 H   0  0  0  0  0  0
    4.0380   -4.4520   21.4055 H   0  0  0  0  0  0
    6.0367   -7.2541   20.1366 H   0  0  0  0  0  0
    4.4197   -6.8098   20.6489 H   0  0  0  0  0  0
    5.7955   -5.7807   20.9841 H   0  0  0  0  0  0
    4.8258   -7.5854   24.2751 H   0  0  0  0  0  0
    4.7763   -6.0023   23.5354 H   0  0  0  0  0  0
    3.6571   -7.2508   23.0059 H   0  0  0  0  0  0
    5.3355   -9.6463   22.8504 H   0  0  0  0  0  0
    4.4383   -9.1293   21.4370 H   0  0  0  0  0  0
    6.1103   -9.4641   21.2640 H   0  0  0  0  0  0
  1  2  1  0  0  0
  1 26  1  0  0  0
  1 27  1  0  0  0
  1 28  1  0  0  0
  2  3  1  0  0  0
  2 21  1  0  0  0
  3  4  2  0  0  0
  4  5  1  0  0  0
  4 20  1  0  0  0
  5  6  1  0  0  0
  5 29  1  0  0  0
  5 30  1  0  0  0
  6  7  1  0  0  0
  6 31  1  0  0  0
  6 32  1  0  0  0
  7  8  2  0  0  0
  7 19  1  0  0  0
  8  9  1  0  0  0
  8 33  1  0  0  0
  9 10  2  0  0  0
 10 11  1  0  0  0
 10 18  1  0  0  0
 11 12  1  0  0  0
 11 34  1  0  0  0
 12 13  2  0  0  0
 12 17  1  0  0  0
 13 14  1  0  0  0
 13 35  1  0  0  0
 14 15  2  0  0  0
 14 36  1  0  0  0
 15 16  1  0  0  0
 15 37  1  0  0  0
 16 17  2  0  0  0
 16 38  1  0  0  0
 17 39  1  0  0  0
 18 19  2  0  0  0
 19 20  1  0  0  0
 20 21  2  0  0  0
 21 22  1  0  0  0
 22 23  1  0  0  0
 22 24  1  0  0  0
 22 25  1  0  0  0
 23 40  1  0  0  0
 23 41  1  0  0  0
 23 42  1  0  0  0
 24 43  1  0  0  0
 24 44  1  0  0  0
 24 45  1  0  0  0
 25 46  1  0  0  0
 25 47  1  0  0  0
 25 48  1  0  0  0
M  END
> <s_m_entry_id>
5929

> <s_m_entry_name>
dock_pv.324

> <s_m_Source_Path>
/home/csk/Desktop/cluster/DUD-E-result/igf1r

> <s_m_Source_File>
dock_pv.maegz

> <i_m_Source_File_Index>
324

> <chembl_id>
CHEMBL3656591

> <chembl_pref_name>
None

> <i_lp_mmshare_version>
53161

> <r_lp_tautomer_probability>
0.999999987636

> <s_lp_Force_Field>
OPLS_2005

> <r_lp_Energy>
23.276887

> <b_lp_Chiralities_Consistent>
1

> <s_lp_Variant>
CHEMBL1957_lig2148-1

> <s_i_glide_gridfile>
glide-grid_2oj9

> <i_i_glide_lignum>
3122

> <i_i_glide_rotatable_bonds>
3

> <r_i_docking_score>
-6.87061810917227

> <r_i_glide_ligand_efficiency>
-0.274824724366891

> <r_i_glide_ligand_efficiency_sa>
-0.80359236808603

> <r_i_glide_ligand_efficiency_ln>
-1.62854238768379

> <r_i_glide_gscore>
-6.87061810917227

> <r_i_glide_lipo>
-3.40976176089838

> <r_i_glide_hbond>
0

> <r_i_glide_metal>
0

> <r_i_glide_rewards>
-1.80405462965032

> <r_i_glide_evdw>
-38.1133193969727

> <r_i_glide_ecoul>
-0.601282119750977

> <r_i_glide_erotb>
0.339056569187704

> <r_i_glide_esite>
0

> <r_i_glide_emodel>
-51.4982674250706

> <r_i_glide_energy>
-38.7146015167236

> <r_i_glide_einternal>
5.63473701477051

> <i_i_glide_confnum>
5

> <i_i_glide_posenum>
298

> <r_i_glide_eff_state_penalty>
0

> <s_user_duplicate_titles>
CHEMBL1957_lig2148

> <i_f3d_flags>
0

> <s_m_subgroup_title>
dock_pv

> <s_m_subgroupid>
dock_pv

> <b_m_subgroup_collapsed>
1

$$$$
CHEMBL1957_lig3251
                    3D
 Schrodinger Suite 2021-1.
 40 42  0  0  1  0            999 V2000
    3.2380   -2.2881   18.9920 Br  0  0  0  0  0  0
    6.4043   -1.6972   21.6028 F   0  0  0  0  0  0
    6.4380   -0.6776   23.4936 F   0  0  0  0  0  0
    4.8565   -2.0533   23.1290 F   0  0  0  0  0  0
    9.6380   -3.2304   25.9089 O   0  0  0  0  0  0
    6.5942   -9.4416   22.9247 O   0  0  0  0  0  0
    7.6362  -10.8540   21.4380 O   0  0  0  0  0  0
    7.0439   -6.5819   23.9032 N   0  0  0  0  0  0
    6.0000   -6.6032   23.0803 N   0  0  0  0  0  0
    8.5403   -4.8954   24.8700 N   0  0  0  0  0  0
    6.6559   -4.4559   23.3323 C   0  0  0  0  0  0
    7.4810   -5.3057   24.0812 C   0  0  0  0  0  0
    5.8153   -5.3786   22.6097 C   0  0  0  0  0  0
    6.9767   -2.9918   23.4809 C   0  0  0  0  0  0
    6.1502   -1.8406   22.9024 C   0  0  0  0  0  0
    4.8518   -5.2718   21.4380 C   0  0  0  0  0  0
    8.0670   -2.6831   24.2380 C   0  0  0  0  0  0
    8.8568   -3.5982   25.0380 C   0  0  0  0  0  0
    7.5293   -7.8195   24.5185 C   0  0  0  0  0  0
    4.4380   -4.0540   20.8863 C   0  0  0  0  0  0
    4.4137   -6.4430   20.7777 C   0  0  0  0  0  0
    3.6380   -3.9853   19.7472 C   0  0  0  0  0  0
    7.8034   -8.9373   23.4875 C   0  0  0  0  0  0
    3.6380   -6.3838   19.6181 C   0  0  0  0  0  0
    3.2380   -5.1528   19.1080 C   0  0  0  0  0  0
    6.6270  -10.3526   21.9329 C   0  0  0  0  0  0
    5.2378  -10.7255   21.4380 C   0  0  0  0  0  0
    8.9403   -5.5005   25.5716 H   0  0  0  0  0  0
    8.3584   -1.6540   24.3613 H   0  0  0  0  0  0
    8.4431   -7.6033   25.0722 H   0  0  0  0  0  0
    6.7940   -8.1371   25.2562 H   0  0  0  0  0  0
    4.7550   -3.1247   21.2717 H   0  0  0  0  0  0
    4.7085   -7.4221   21.1252 H   0  0  0  0  0  0
    8.5010   -8.5897   22.7225 H   0  0  0  0  0  0
    8.2962   -9.7666   23.9979 H   0  0  0  0  0  0
    3.3543   -7.2940   19.1088 H   0  0  0  0  0  0
    2.6529   -5.0974   18.2026 H   0  0  0  0  0  0
    4.6737  -11.2047   22.2377 H   0  0  0  0  0  0
    4.7005   -9.8371   21.1101 H   0  0  0  0  0  0
    5.3050  -11.4171   20.5978 H   0  0  0  0  0  0
  1 22  1  0  0  0
  2 15  1  0  0  0
  3 15  1  0  0  0
  4 15  1  0  0  0
  5 18  2  0  0  0
  6 23  1  0  0  0
  6 26  1  0  0  0
  7 26  2  0  0  0
  8  9  1  0  0  0
  8 12  1  0  0  0
  8 19  1  0  0  0
  9 13  2  0  0  0
 10 12  1  0  0  0
 10 18  1  0  0  0
 10 28  1  0  0  0
 11 12  2  0  0  0
 11 13  1  0  0  0
 11 14  1  0  0  0
 13 16  1  0  0  0
 14 15  1  0  0  0
 14 17  2  0  0  0
 16 20  1  0  0  0
 16 21  2  0  0  0
 17 18  1  0  0  0
 17 29  1  0  0  0
 19 23  1  0  0  0
 19 30  1  0  0  0
 19 31  1  0  0  0
 20 22  2  0  0  0
 20 32  1  0  0  0
 21 24  1  0  0  0
 21 33  1  0  0  0
 22 25  1  0  0  0
 23 34  1  0  0  0
 23 35  1  0  0  0
 24 25  2  0  0  0
 24 36  1  0  0  0
 25 37  1  0  0  0
 26 27  1  0  0  0
 27 38  1  0  0  0
 27 39  1  0  0  0
 27 40  1  0  0  0
M  END
> <s_m_entry_id>
5930

> <s_m_entry_name>
dock_pv.325

> <s_m_Source_Path>
/home/csk/Desktop/cluster/DUD-E-result/igf1r

> <s_m_Source_File>
dock_pv.maegz

> <i_m_Source_File_Index>
325

> <chembl_id>
CHEMBL1984847

> <chembl_pref_name>
None

> <i_lp_mmshare_version>
53161

> <r_lp_tautomer_probability>
1

> <s_lp_Force_Field>
OPLS_2005

> <r_lp_Energy>
21.502784

> <b_lp_Chiralities_Consistent>
1

> <s_lp_Variant>
CHEMBL1957_lig3251-1

> <s_i_glide_gridfile>
glide-grid_2oj9

> <i_i_glide_lignum>
4544

> <i_i_glide_rotatable_bonds>
6

> <r_i_docking_score>
-6.87026007915803

> <r_i_glide_ligand_efficiency>
-0.254454077005853

> <r_i_glide_ligand_efficiency_sa>
-0.763362230178919

> <r_i_glide_ligand_efficiency_ln>
-1.59928328133844

> <r_i_glide_gscore>
-6.87026007915803

> <r_i_glide_lipo>
-2.88957977011296

> <r_i_glide_hbond>
-0.0234953161666034

> <r_i_glide_metal>
0

> <r_i_glide_rewards>
-1.95658623519355

> <r_i_glide_evdw>
-36.5040130615234

> <r_i_glide_ecoul>
-3.87199091911316

> <r_i_glide_erotb>
0.40540053325823

> <r_i_glide_esite>
0

> <r_i_glide_emodel>
-54.8531820877229

> <r_i_glide_energy>
-40.3760039806366

> <r_i_glide_einternal>
2.43659424781799

> <i_i_glide_confnum>
31

> <i_i_glide_posenum>
131

> <r_i_glide_eff_state_penalty>
0

> <s_user_duplicate_titles>
CHEMBL1957_lig3251

> <i_f3d_flags>
0

> <s_m_subgroup_title>
dock_pv

> <s_m_subgroupid>
dock_pv

> <b_m_subgroup_collapsed>
1

$$$$
CHEMBL1957_lig3023
                    3D
 Schrodinger Suite 2021-1.
 28 29  0  0  1  0            999 V2000
    3.2380   -2.4503   18.8763 S   0  0  0  0  0  0
    4.8341   -7.1666   21.5925 O   0  0  0  0  0  0
    5.7654   -4.5149   22.0192 N   0  0  0  0  0  0
    6.5826   -6.5837   22.9593 N   0  0  0  0  0  0
    8.2804   -2.4544   24.6383 N   0  0  0  0  0  0
    6.0380    0.1531   23.3189 N   0  0  0  0  0  0
    5.7335   -3.1557   22.0261 C   0  0  0  0  0  0
    6.4581   -2.4104   22.9798 C   0  0  0  0  0  0
    4.9212   -2.5995   20.8865 C   0  0  0  0  0  0
    7.3747   -3.1025   23.7949 C   0  0  0  0  0  0
    6.5646   -5.1802   22.8930 C   0  0  0  0  0  0
    7.4148   -4.4968   23.7602 C   0  0  0  0  0  0
    3.8437   -3.2543   20.2816 C   0  0  0  0  0  0
    5.1916   -1.3936   20.2072 C   0  0  0  0  0  0
    6.2261   -0.9787   23.1663 C   0  0  0  0  0  0
    4.3714   -1.1691   19.1126 C   0  0  0  0  0  0
    5.7633   -7.4627   22.3440 C   0  0  0  0  0  0
    6.0385   -8.9315   22.6402 C   0  0  0  0  0  0
    7.2822   -6.9690   23.5741 H   0  0  0  0  0  0
    9.0062   -3.0092   25.0682 H   0  0  0  0  0  0
    8.3653   -1.4437   24.6325 H   0  0  0  0  0  0
    8.0836   -5.0383   24.4149 H   0  0  0  0  0  0
    3.4257   -4.2096   20.5652 H   0  0  0  0  0  0
    5.9957   -0.7196   20.4641 H   0  0  0  0  0  0
    4.4120   -0.3419   18.4201 H   0  0  0  0  0  0
    5.9088   -9.1367   23.7031 H   0  0  0  0  0  0
    5.3461   -9.5706   22.0904 H   0  0  0  0  0  0
    7.0545   -9.2004   22.3508 H   0  0  0  0  0  0
  1 13  1  0  0  0
  1 16  1  0  0  0
  2 17  2  0  0  0
  3  7  2  0  0  0
  3 11  1  0  0  0
  4 11  1  0  0  0
  4 17  1  0  0  0
  4 19  1  0  0  0
  5 10  1  0  0  0
  5 20  1  0  0  0
  5 21  1  0  0  0
  6 15  3  0  0  0
  7  8  1  0  0  0
  7  9  1  0  0  0
  8 10  2  0  0  0
  8 15  1  0  0  0
  9 13  2  0  0  0
  9 14  1  0  0  0
 10 12  1  0  0  0
 11 12  2  0  0  0
 12 22  1  0  0  0
 13 23  1  0  0  0
 14 16  2  0  0  0
 14 24  1  0  0  0
 16 25  1  0  0  0
 17 18  1  0  0  0
 18 26  1  0  0  0
 18 27  1  0  0  0
 18 28  1  0  0  0
M  END
> <s_m_entry_id>
5931

> <s_m_entry_name>
dock_pv.326

> <s_m_Source_Path>
/home/csk/Desktop/cluster/DUD-E-result/igf1r

> <s_m_Source_File>
dock_pv.maegz

> <i_m_Source_File_Index>
326

> <chembl_id>
CHEMBL2006567

> <chembl_pref_name>
None

> <i_lp_mmshare_version>
53161

> <r_lp_tautomer_probability>
1

> <s_lp_Force_Field>
OPLS_2005

> <r_lp_Energy>
14.828908

> <b_lp_Chiralities_Consistent>
1

> <s_lp_Variant>
CHEMBL1957_lig3023-1

> <s_i_glide_gridfile>
glide-grid_2oj9

> <i_i_glide_lignum>
4189

> <i_i_glide_rotatable_bonds>
3

> <r_i_docking_score>
-6.86951236109696

> <r_i_glide_ligand_efficiency>
-0.381639575616498

> <r_i_glide_ligand_efficiency_sa>
-1.00017863252284

> <r_i_glide_ligand_efficiency_ln>
-1.76577273037059

> <r_i_glide_gscore>
-6.86951236109696

> <r_i_glide_lipo>
-2.39549640697698

> <r_i_glide_hbond>
-0.26785142913095

> <r_i_glide_metal>
0

> <r_i_glide_rewards>
-2.31862497560662

> <r_i_glide_evdw>
-33.5740661621094

> <r_i_glide_ecoul>
-4.71670532226562

> <r_i_glide_erotb>
0.529449893996568

> <r_i_glide_esite>
-0.0307803369336645

> <r_i_glide_emodel>
-52.0119056842455

> <r_i_glide_energy>
-38.290771484375

> <r_i_glide_einternal>
1.69666290283203

> <i_i_glide_confnum>
2

> <i_i_glide_posenum>
363

> <r_i_glide_eff_state_penalty>
0

> <s_user_duplicate_titles>
CHEMBL1957_lig3023

> <i_f3d_flags>
0

> <s_m_subgroup_title>
dock_pv

> <s_m_subgroupid>
dock_pv

> <b_m_subgroup_collapsed>
1

$$$$
CHEMBL1957_lig2324
                    3D
 Schrodinger Suite 2021-1.
 52 56  0  0  1  0            999 V2000
    6.0370   -5.6179   24.8121 C   0  0  0  0  0  0
    7.0906   -5.0603   23.8680 C   0  0  0  0  0  0
    7.1751   -3.6826   23.6554 C   0  0  0  0  0  0
    8.0380   -3.1781   22.6830 C   0  0  0  0  0  0
    8.8380   -4.0451   21.9388 C   0  0  0  0  0  0
    8.8271   -5.4065   22.2067 C   0  0  0  0  0  0
    7.9571   -5.9130   23.1708 C   0  0  0  0  0  0
    7.9149   -7.3747   23.3362 C   0  0  0  0  0  0
    7.0807   -8.2884   22.7303 C   0  0  0  0  0  0
    7.5072   -9.5320   23.2131 C   0  0  0  0  0  0
    6.8616  -10.8234   22.7447 C   0  0  0  0  0  0
    6.3739  -10.6395   21.2799 C   0  0  0  0  0  0
    5.6417   -9.3108   21.0393 C   0  0  0  0  0  0
    4.6579   -9.1543   20.0703 C   0  0  0  0  0  0
    4.0380   -7.9740   19.8380 N   0  0  0  0  0  0
    4.4036   -6.9020   20.5775 C   0  0  0  0  0  0
    3.6407   -5.7493   20.2977 N   0  0  0  0  0  0
    3.9426   -4.3731   20.3350 C   0  0  0  0  0  0
    4.6241   -3.7953   21.4057 C   0  0  0  0  0  0
    4.9932   -2.4515   21.3680 C   0  0  0  0  0  0
    4.7389   -1.6626   20.2380 C   0  0  0  0  0  0
    4.0262   -2.2327   19.1750 C   0  0  0  0  0  0
    3.6330   -3.5742   19.2205 C   0  0  0  0  0  0
    2.8381   -4.2466   17.8380 Cl  0  0  0  0  0  0
    5.2441   -0.2397   20.1890 C   0  0  0  0  0  0
    5.6382    0.3457   21.1934 O   0  0  0  0  0  0
    5.2768    0.3459   18.9643 O   0  0  0  0  0  0
    5.3877   -6.9259   21.5171 N   0  0  0  0  0  0
    5.9845   -8.1400   21.7401 C   0  0  0  0  0  0
    8.4989   -9.4315   24.0685 N   0  0  0  0  0  0
    8.7601   -8.1187   24.1258 N   0  0  0  0  0  0
    9.8086   -7.6433   25.0164 C   0  0  0  0  0  0
    5.2155   -6.0548   24.2458 H   0  0  0  0  0  0
    6.4504   -6.4080   25.4366 H   0  0  0  0  0  0
    5.6385   -4.8530   25.4718 H   0  0  0  0  0  0
    6.5387   -3.0058   24.2060 H   0  0  0  0  0  0
    8.0810   -2.1149   22.4985 H   0  0  0  0  0  0
    9.5089   -3.6534   21.1884 H   0  0  0  0  0  0
    9.4796   -6.0653   21.6510 H   0  0  0  0  0  0
    6.0382  -11.0901   23.4019 H   0  0  0  0  0  0
    7.5633  -11.6558   22.8045 H   0  0  0  0  0  0
    5.7414  -11.4799   20.9905 H   0  0  0  0  0  0
    7.2394  -10.6825   20.6195 H   0  0  0  0  0  0
    4.3596   -9.9842   19.4458 H   0  0  0  0  0  0
    2.9581   -5.9562   19.5851 H   0  0  0  0  0  0
    4.8653   -4.3947   22.2694 H   0  0  0  0  0  0
    5.5159   -2.0345   22.2160 H   0  0  0  0  0  0
    3.8066   -1.6561   18.2861 H   0  0  0  0  0  0
    5.7497    1.1924   19.0355 H   0  0  0  0  0  0
   10.2412   -6.7248   24.6195 H   0  0  0  0  0  0
    9.3793   -7.4444   25.9991 H   0  0  0  0  0  0
   10.6001   -8.3893   25.1045 H   0  0  0  0  0  0
  1  2  1  0  0  0
  1 33  1  0  0  0
  1 34  1  0  0  0
  1 35  1  0  0  0
  2  3  2  0  0  0
  2  7  1  0  0  0
  3  4  1  0  0  0
  3 36  1  0  0  0
  4  5  2  0  0  0
  4 37  1  0  0  0
  5  6  1  0  0  0
  5 38  1  0  0  0
  6  7  2  0  0  0
  6 39  1  0  0  0
  7  8  1  0  0  0
  8  9  2  0  0  0
  8 31  1  0  0  0
  9 10  1  0  0  0
  9 29  1  0  0  0
 10 11  1  0  0  0
 10 30  2  0  0  0
 11 12  1  0  0  0
 11 40  1  0  0  0
 11 41  1  0  0  0
 12 13  1  0  0  0
 12 42  1  0  0  0
 12 43  1  0  0  0
 13 14  2  0  0  0
 13 29  1  0  0  0
 14 15  1  0  0  0
 14 44  1  0  0  0
 15 16  2  0  0  0
 16 17  1  0  0  0
 16 28  1  0  0  0
 17 18  1  0  0  0
 17 45  1  0  0  0
 18 19  2  0  0  0
 18 23  1  0  0  0
 19 20  1  0  0  0
 19 46  1  0  0  0
 20 21  2  0  0  0
 20 47  1  0  0  0
 21 22  1  0  0  0
 21 25  1  0  0  0
 22 23  2  0  0  0
 22 48  1  0  0  0
 23 24  1  0  0  0
 25 26  2  0  0  0
 25 27  1  0  0  0
 27 49  1  0  0  0
 28 29  2  0  0  0
 30 31  1  0  0  0
 31 32  1  0  0  0
 32 50  1  0  0  0
 32 51  1  0  0  0
 32 52  1  0  0  0
M  END
> <s_m_entry_id>
5932

> <s_m_entry_name>
dock_pv.327

> <s_m_Source_Path>
/home/csk/Desktop/cluster/DUD-E-result/igf1r

> <s_m_Source_File>
dock_pv.maegz

> <i_m_Source_File_Index>
327

> <chembl_id>
CHEMBL3639597

> <chembl_pref_name>
None

> <i_lp_mmshare_version>
53161

> <r_lp_tautomer_probability>
0.999999987636

> <s_lp_Force_Field>
OPLS_2005

> <r_lp_Energy>
19.122459

> <b_lp_Chiralities_Consistent>
1

> <s_lp_Variant>
CHEMBL1957_lig2324-1

> <s_i_glide_gridfile>
glide-grid_2oj9

> <i_i_glide_lignum>
3310

> <i_i_glide_rotatable_bonds>
5

> <r_i_docking_score>
-6.86891535545113

> <r_i_glide_ligand_efficiency>
-0.214653604857848

> <r_i_glide_ligand_efficiency_sa>
-0.681482715532948

> <r_i_glide_ligand_efficiency_ln>
-1.53813738764641

> <r_i_glide_gscore>
-6.86891535545113

> <r_i_glide_lipo>
-3.02389798690761

> <r_i_glide_hbond>
-0.109587132242968

> <r_i_glide_metal>
0

> <r_i_glide_rewards>
-1.0605679520724

> <r_i_glide_evdw>
-43.8431854248047

> <r_i_glide_ecoul>
-5.902024269104

> <r_i_glide_erotb>
0.40260062737768

> <r_i_glide_esite>
0

> <r_i_glide_emodel>
-65.8502520597985

> <r_i_glide_energy>
-49.7452096939087

> <r_i_glide_einternal>
5.33858489990234

> <i_i_glide_confnum>
13

> <i_i_glide_posenum>
194

> <r_i_glide_eff_state_penalty>
0

> <s_user_duplicate_titles>
CHEMBL1957_lig2324

> <i_f3d_flags>
0

> <s_m_subgroup_title>
dock_pv

> <s_m_subgroupid>
dock_pv

> <b_m_subgroup_collapsed>
1

$$$$
CHEMBL1957_lig2041
                    3D
 Schrodinger Suite 2021-1.
 46 50  0  0  1  0            999 V2000
    7.9020   -2.0545   24.3314 C   0  0  0  0  0  0
    6.9438   -2.4451   23.3143 N   0  0  0  0  0  0
    6.4380   -1.4793   22.5445 N   0  0  0  0  0  0
    5.6874   -2.1131   21.6828 C   0  0  0  0  0  0
    4.9979   -1.4710   20.4904 C   0  0  0  0  0  0
    3.6688   -2.2174   20.2353 C   0  0  0  0  0  0
    3.8652   -3.7334   20.2063 C   0  0  0  0  0  0
    3.2379   -4.5604   19.2772 C   0  0  0  0  0  0
    3.3398   -5.9108   19.2882 N   0  0  0  0  0  0
    4.1408   -6.4540   20.2389 C   0  0  0  0  0  0
    4.3124   -7.8335   20.0864 N   0  0  0  0  0  0
    5.0774   -8.8335   20.6986 C   0  0  0  0  0  0
    6.0373   -8.5896   21.6841 C   0  0  0  0  0  0
    6.7551   -9.6478   22.2376 C   0  0  0  0  0  0
    6.5120  -10.9486   21.8050 C   0  0  0  0  0  0
    5.5643  -11.1992   20.8177 C   0  0  0  0  0  0
    4.8507  -10.1397   20.2651 C   0  0  0  0  0  0
    4.8290   -5.7441   21.1791 N   0  0  0  0  0  0
    4.7187   -4.3824   21.1204 C   0  0  0  0  0  0
    5.5980   -3.4933   21.9426 C   0  0  0  0  0  0
    6.5418   -3.7139   22.9490 C   0  0  0  0  0  0
    7.0968   -4.9596   23.5474 C   0  0  0  0  0  0
    8.4803   -5.1707   23.5125 C   0  0  0  0  0  0
    9.0236   -6.3351   24.0464 C   0  0  0  0  0  0
    8.1807   -7.2888   24.6100 C   0  0  0  0  0  0
    6.8018   -7.0890   24.6365 C   0  0  0  0  0  0
    6.2576   -5.9207   24.1110 C   0  0  0  0  0  0
    8.0672   -2.8665   25.0377 H   0  0  0  0  0  0
    8.8379   -1.8055   23.8385 H   0  0  0  0  0  0
    7.5342   -1.1846   24.8765 H   0  0  0  0  0  0
    5.6389   -1.5372   19.6106 H   0  0  0  0  0  0
    4.8382   -0.4033   20.6383 H   0  0  0  0  0  0
    3.2172   -1.8650   19.3068 H   0  0  0  0  0  0
    2.9562   -1.9804   21.0266 H   0  0  0  0  0  0
    2.5959   -4.1406   18.5157 H   0  0  0  0  0  0
    3.8355   -8.1599   19.2586 H   0  0  0  0  0  0
    6.2557   -7.5894   22.0119 H   0  0  0  0  0  0
    7.5025   -9.4626   22.9932 H   0  0  0  0  0  0
    7.0669  -11.7694   22.2349 H   0  0  0  0  0  0
    5.3855  -12.2077   20.4741 H   0  0  0  0  0  0
    4.1306  -10.3455   19.4855 H   0  0  0  0  0  0
    9.1374   -4.4382   23.0636 H   0  0  0  0  0  0
   10.0919   -6.5008   24.0134 H   0  0  0  0  0  0
    8.6006   -8.1954   25.0202 H   0  0  0  0  0  0
    6.1495   -7.8451   25.0424 H   0  0  0  0  0  0
    5.1882   -5.7717   24.1272 H   0  0  0  0  0  0
  1  2  1  0  0  0
  1 28  1  0  0  0
  1 29  1  0  0  0
  1 30  1  0  0  0
  2  3  1  0  0  0
  2 21  1  0  0  0
  3  4  2  0  0  0
  4  5  1  0  0  0
  4 20  1  0  0  0
  5  6  1  0  0  0
  5 31  1  0  0  0
  5 32  1  0  0  0
  6  7  1  0  0  0
  6 33  1  0  0  0
  6 34  1  0  0  0
  7  8  2  0  0  0
  7 19  1  0  0  0
  8  9  1  0  0  0
  8 35  1  0  0  0
  9 10  2  0  0  0
 10 11  1  0  0  0
 10 18  1  0  0  0
 11 12  1  0  0  0
 11 36  1  0  0  0
 12 13  2  0  0  0
 12 17  1  0  0  0
 13 14  1  0  0  0
 13 37  1  0  0  0
 14 15  2  0  0  0
 14 38  1  0  0  0
 15 16  1  0  0  0
 15 39  1  0  0  0
 16 17  2  0  0  0
 16 40  1  0  0  0
 17 41  1  0  0  0
 18 19  2  0  0  0
 19 20  1  0  0  0
 20 21  2  0  0  0
 21 22  1  0  0  0
 22 23  2  0  0  0
 22 27  1  0  0  0
 23 24  1  0  0  0
 23 42  1  0  0  0
 24 25  2  0  0  0
 24 43  1  0  0  0
 25 26  1  0  0  0
 25 44  1  0  0  0
 26 27  2  0  0  0
 26 45  1  0  0  0
 27 46  1  0  0  0
M  END
> <s_m_entry_id>
5934

> <s_m_entry_name>
dock_pv.329

> <s_m_Source_Path>
/home/csk/Desktop/cluster/DUD-E-result/igf1r

> <s_m_Source_File>
dock_pv.maegz

> <i_m_Source_File_Index>
329

> <chembl_id>
CHEMBL3652817

> <chembl_pref_name>
None

> <i_lp_mmshare_version>
53161

> <r_lp_tautomer_probability>
0.999999987636

> <s_lp_Force_Field>
OPLS_2005

> <r_lp_Energy>
15.265599

> <b_lp_Chiralities_Consistent>
1

> <s_lp_Variant>
CHEMBL1957_lig2041-1

> <s_i_glide_gridfile>
glide-grid_2oj9

> <i_i_glide_lignum>
2998

> <i_i_glide_rotatable_bonds>
3

> <r_i_docking_score>
-6.86376509194185

> <r_i_glide_ligand_efficiency>
-0.254213521923772

> <r_i_glide_ligand_efficiency_sa>
-0.762640564933471

> <r_i_glide_ligand_efficiency_ln>
-1.59777135539274

> <r_i_glide_gscore>
-6.86376509194185

> <r_i_glide_lipo>
-3.16076501984258

> <r_i_glide_hbond>
-0.0814226718843305

> <r_i_glide_metal>
0

> <r_i_glide_rewards>
-1.83039939207683

> <r_i_glide_evdw>
-37.6603088378906

> <r_i_glide_ecoul>
-2.44552040100098

> <r_i_glide_erotb>
0.458665493906555

> <r_i_glide_esite>
0

> <r_i_glide_emodel>
-54.7864560541806

> <r_i_glide_energy>
-40.1058292388916

> <r_i_glide_einternal>
2.65495228767395

> <i_i_glide_confnum>
12

> <i_i_glide_posenum>
259

> <r_i_glide_eff_state_penalty>
0

> <s_user_duplicate_titles>
CHEMBL1957_lig2041

> <i_f3d_flags>
0

> <s_m_subgroup_title>
dock_pv

> <s_m_subgroupid>
dock_pv

> <b_m_subgroup_collapsed>
1

$$$$
CHEMBL1957_lig1404
                    3D
 Schrodinger Suite 2021-1.
 63 66  0  0  1  0            999 V2000
    7.3181   -5.7001   23.8322 C   0  0  0  0  0  0
    7.1830   -4.4105   23.3409 C   0  0  0  0  0  0
    6.2323   -4.0902   22.4279 N   0  0  0  0  0  0
    5.3981   -5.0754   22.0237 C   0  0  0  0  0  0
    5.4361   -6.3545   22.4803 N   0  0  0  0  0  0
    6.4068   -6.6614   23.3829 C   0  0  0  0  0  0
    6.4462   -7.9898   23.8265 N   0  0  0  0  0  0
    4.4380   -4.8019   21.0393 N   0  0  0  0  0  0
    7.4474   -8.5860   24.5556 C   0  0  0  0  0  0
    8.1529   -9.7578   24.3697 C   0  0  0  0  0  0
    9.0431   -9.8741   25.4469 C   0  0  0  0  0  0
    8.8987   -8.8608   26.2771 N   0  0  0  0  0  0
    7.9380   -8.1025   25.7410 N   0  0  0  0  0  0
   10.0645  -10.9693   25.7024 C   0  0  0  0  0  0
   11.4171  -10.6515   26.2949 C   0  0  0  0  0  0
   10.3913  -11.4276   27.1047 C   0  0  0  0  0  0
    4.1094   -3.6541   20.2870 C   0  0  0  0  0  0
    3.4822   -3.8268   19.0415 C   0  0  0  0  0  0
    4.2650   -1.2686   19.8380 C   0  0  0  0  0  0
    4.4772   -2.3590   20.6816 C   0  0  0  0  0  0
    3.6532   -1.4543   18.6057 C   0  0  0  0  0  0
    3.2614   -2.7290   18.2142 C   0  0  0  0  0  0
    8.0555   -3.4320   23.8264 N   0  0  0  0  0  0
    7.8627   -2.0232   23.5201 C   0  0  0  0  0  0
    7.0286   -1.2833   24.5748 C   0  0  0  0  0  0
    6.0380   -0.2870   23.9506 C   0  0  0  0  0  0
    5.7242    0.9148   24.7491 N   0  0  0  0  0  0
    5.3393    0.6557   26.1462 C   0  0  0  0  0  0
    4.1219   -0.2708   26.3024 C   0  0  0  0  0  0
    6.8256    1.8796   24.6541 C   0  0  0  0  0  0
    6.3701    3.3298   24.8838 C   0  0  0  0  0  0
    3.0297   -5.3946   18.4522 Cl  0  0  0  0  0  0
    8.1029   -5.9224   24.5345 H   0  0  0  0  0  0
    5.7356   -8.5578   23.3911 H   0  0  0  0  0  0
    3.9349   -5.6298   20.7596 H   0  0  0  0  0  0
    8.0475  -10.4465   23.5447 H   0  0  0  0  0  0
    7.6379   -7.2376   26.1818 H   0  0  0  0  0  0
   10.0567  -11.7489   24.9394 H   0  0  0  0  0  0
   12.2885  -11.1716   25.8949 H   0  0  0  0  0  0
   11.6436   -9.6188   26.5642 H   0  0  0  0  0  0
    9.8974  -10.9392   27.9461 H   0  0  0  0  0  0
   10.5460  -12.4931   27.2801 H   0  0  0  0  0  0
    4.5835   -0.2814   20.1374 H   0  0  0  0  0  0
    4.9515   -2.1758   21.6315 H   0  0  0  0  0  0
    3.5035   -0.6161   17.9420 H   0  0  0  0  0  0
    2.8381   -2.8733   17.2369 H   0  0  0  0  0  0
    8.6997   -3.6821   24.5622 H   0  0  0  0  0  0
    7.4133   -1.9297   22.5303 H   0  0  0  0  0  0
    8.8379   -1.5584   23.4380 H   0  0  0  0  0  0
    7.6379   -0.8525   25.3659 H   0  0  0  0  0  0
    6.4106   -2.0216   25.0833 H   0  0  0  0  0  0
    5.1276   -0.8540   23.7537 H   0  0  0  0  0  0
    6.3680    0.0146   22.9547 H   0  0  0  0  0  0
    5.0862    1.5949   26.6338 H   0  0  0  0  0  0
    6.1865    0.2489   26.6962 H   0  0  0  0  0  0
    3.8891   -0.4270   27.3564 H   0  0  0  0  0  0
    4.2835   -1.2535   25.8617 H   0  0  0  0  0  0
    3.2410    0.1647   25.8384 H   0  0  0  0  0  0
    7.6375    1.6083   25.3333 H   0  0  0  0  0  0
    7.2379    1.8453   23.6483 H   0  0  0  0  0  0
    7.2247    4.0056   24.8497 H   0  0  0  0  0  0
    5.6730    3.6552   24.1135 H   0  0  0  0  0  0
    5.8760    3.4747   25.8380 H   0  0  0  0  0  0
  1  2  2  0  0  0
  1  6  1  0  0  0
  1 33  1  0  0  0
  2  3  1  0  0  0
  2 23  1  0  0  0
  3  4  2  0  0  0
  4  5  1  0  0  0
  4  8  1  0  0  0
  5  6  2  0  0  0
  6  7  1  0  0  0
  7  9  1  0  0  0
  7 34  1  0  0  0
  8 17  1  0  0  0
  8 35  1  0  0  0
  9 10  2  0  0  0
  9 13  1  0  0  0
 10 11  1  0  0  0
 10 36  1  0  0  0
 11 12  2  0  0  0
 11 14  1  0  0  0
 12 13  1  0  0  0
 13 37  1  0  0  0
 14 15  1  0  0  0
 14 16  1  0  0  0
 14 38  1  0  0  0
 15 16  1  0  0  0
 15 39  1  0  0  0
 15 40  1  0  0  0
 16 41  1  0  0  0
 16 42  1  0  0  0
 17 18  2  0  0  0
 17 20  1  0  0  0
 18 22  1  0  0  0
 18 32  1  0  0  0
 19 21  1  0  0  0
 19 20  2  0  0  0
 19 43  1  0  0  0
 20 44  1  0  0  0
 21 22  2  0  0  0
 21 45  1  0  0  0
 22 46  1  0  0  0
 23 24  1  0  0  0
 23 47  1  0  0  0
 24 25  1  0  0  0
 24 48  1  0  0  0
 24 49  1  0  0  0
 25 26  1  0  0  0
 25 50  1  0  0  0
 25 51  1  0  0  0
 26 27  1  0  0  0
 26 52  1  0  0  0
 26 53  1  0  0  0
 27 28  1  0  0  0
 27 30  1  0  0  0
 28 29  1  0  0  0
 28 54  1  0  0  0
 28 55  1  0  0  0
 29 56  1  0  0  0
 29 57  1  0  0  0
 29 58  1  0  0  0
 30 31  1  0  0  0
 30 59  1  0  0  0
 30 60  1  0  0  0
 31 61  1  0  0  0
 31 62  1  0  0  0
 31 63  1  0  0  0
M  END
> <s_m_entry_id>
5935

> <s_m_entry_name>
dock_pv.330

> <s_m_Source_Path>
/home/csk/Desktop/cluster/DUD-E-result/igf1r

> <s_m_Source_File>
dock_pv.maegz

> <i_m_Source_File_Index>
330

> <chembl_id>
CHEMBL3894963

> <chembl_pref_name>
None

> <i_lp_mmshare_version>
53161

> <r_lp_tautomer_probability>
0.157399999843308

> <s_lp_Force_Field>
OPLS_2005

> <r_lp_Energy>
19.409639

> <b_lp_Chiralities_Consistent>
1

> <s_lp_Variant>
CHEMBL1957_lig1404-2

> <s_i_glide_gridfile>
glide-grid_2oj9

> <i_i_glide_lignum>
1943

> <i_i_glide_rotatable_bonds>
12

> <r_i_docking_score>
-6.863095067828

> <r_i_glide_ligand_efficiency>
-0.214471720869625

> <r_i_glide_ligand_efficiency_sa>
-0.680905269865133

> <r_i_glide_ligand_efficiency_ln>
-1.53683406659254

> <r_i_glide_gscore>
-6.863095067828

> <r_i_glide_lipo>
-3.43020715928902

> <r_i_glide_hbond>
-0.32

> <r_i_glide_metal>
0

> <r_i_glide_rewards>
-0.955886470308332

> <r_i_glide_evdw>
-44.6808547973633

> <r_i_glide_ecoul>
-5.75925731658936

> <r_i_glide_erotb>
0.970206635638597

> <r_i_glide_esite>
-0.0292767365126793

> <r_i_glide_emodel>
-63.8585550197587

> <r_i_glide_energy>
-50.4401121139526

> <r_i_glide_einternal>
13.9006748199463

> <i_i_glide_confnum>
3

> <i_i_glide_posenum>
14

> <r_i_glide_eff_state_penalty>
0

> <s_user_duplicate_titles>
CHEMBL1957_lig1404

> <i_f3d_flags>
0

> <s_m_subgroup_title>
dock_pv

> <s_m_subgroupid>
dock_pv

> <b_m_subgroup_collapsed>
1

$$$$
CHEMBL1957_lig3391
                    3D
 Schrodinger Suite 2021-1.
 34 37  0  0  1  0            999 V2000
    7.0446   -1.8218   24.2125 S   0  0  0  0  0  0
    7.9569   -4.4491   23.9749 N   0  0  0  0  0  0
    9.6378   -5.5291   25.0634 N   0  0  0  0  0  0
    6.4654   -3.5101   22.3853 N   0  0  0  0  0  0
    9.5253   -3.2537   25.4375 N   0  0  0  0  0  0
    5.4913   -9.3986   21.4144 N   0  0  0  0  0  0
    7.8308   -5.8080   23.6807 C   0  0  0  0  0  0
    7.1845   -3.3968   23.4768 C   0  0  0  0  0  0
    8.9046   -6.4362   24.3627 C   0  0  0  0  0  0
    9.0528   -4.3871   24.8419 C   0  0  0  0  0  0
    6.9257   -6.5540   22.9068 C   0  0  0  0  0  0
    5.8113   -2.4112   22.0462 C   0  0  0  0  0  0
    9.0961   -7.8191   24.2627 C   0  0  0  0  0  0
    7.1318   -7.9381   22.8306 C   0  0  0  0  0  0
    6.0378   -1.3301   22.8951 C   0  0  0  0  0  0
    4.9134   -2.4111   20.8533 C   0  0  0  0  0  0
    8.1975   -8.5560   23.4935 C   0  0  0  0  0  0
    6.2174   -8.7518   22.0434 C   0  0  0  0  0  0
    4.1170   -3.5279   20.5733 C   0  0  0  0  0  0
    4.8605   -1.2940   20.0105 C   0  0  0  0  0  0
    3.2843   -3.5328   19.4594 C   0  0  0  0  0  0
    4.0319   -1.3062   18.8907 C   0  0  0  0  0  0
    3.2404   -2.4210   18.6268 C   0  0  0  0  0  0
    9.3071   -2.3327   25.0771 H   0  0  0  0  0  0
   10.3002   -3.3211   26.0774 H   0  0  0  0  0  0
    6.0982   -6.0889   22.3899 H   0  0  0  0  0  0
    9.9213   -8.2957   24.7680 H   0  0  0  0  0  0
    5.6401   -0.3312   22.8370 H   0  0  0  0  0  0
    8.3403   -9.6279   23.4140 H   0  0  0  0  0  0
    4.1493   -4.3982   21.2107 H   0  0  0  0  0  0
    5.4818   -0.4317   20.2031 H   0  0  0  0  0  0
    2.6867   -4.4043   19.2350 H   0  0  0  0  0  0
    4.0064   -0.4543   18.2280 H   0  0  0  0  0  0
    2.6016   -2.4287   17.7540 H   0  0  0  0  0  0
  1  8  1  0  0  0
  1 15  1  0  0  0
  2  7  1  0  0  0
  2  8  1  0  0  0
  2 10  1  0  0  0
  3  9  1  0  0  0
  3 10  2  0  0  0
  4  8  2  0  0  0
  4 12  1  0  0  0
  5 10  1  0  0  0
  5 24  1  0  0  0
  5 25  1  0  0  0
  6 18  3  0  0  0
  7  9  1  0  0  0
  7 11  2  0  0  0
  9 13  2  0  0  0
 11 14  1  0  0  0
 11 26  1  0  0  0
 12 15  2  0  0  0
 12 16  1  0  0  0
 13 17  1  0  0  0
 13 27  1  0  0  0
 14 17  2  0  0  0
 14 18  1  0  0  0
 15 28  1  0  0  0
 16 19  2  0  0  0
 16 20  1  0  0  0
 17 29  1  0  0  0
 19 21  1  0  0  0
 19 30  1  0  0  0
 20 22  2  0  0  0
 20 31  1  0  0  0
 21 23  2  0  0  0
 21 32  1  0  0  0
 22 23  1  0  0  0
 22 33  1  0  0  0
 23 34  1  0  0  0
M  END
> <s_m_entry_id>
5936

> <s_m_entry_name>
dock_pv.331

> <s_m_Source_Path>
/home/csk/Desktop/cluster/DUD-E-result/igf1r

> <s_m_Source_File>
dock_pv.maegz

> <i_m_Source_File_Index>
331

> <chembl_id>
CHEMBL1996066

> <chembl_pref_name>
None

> <i_lp_mmshare_version>
53161

> <r_lp_tautomer_probability>
1

> <s_lp_Force_Field>
OPLS_2005

> <r_lp_Energy>
15.377287

> <b_lp_Chiralities_Consistent>
1

> <s_lp_Variant>
CHEMBL1957_lig3391-1

> <s_i_glide_gridfile>
glide-grid_2oj9

> <i_i_glide_lignum>
4774

> <i_i_glide_rotatable_bonds>
2

> <r_i_docking_score>
-6.86232228866148

> <r_i_glide_ligand_efficiency>
-0.298361838637456

> <r_i_glide_ligand_efficiency_sa>
-0.848501380062038

> <r_i_glide_ligand_efficiency_ln>
-1.65937175349662

> <r_i_glide_gscore>
-6.86232228866148

> <r_i_glide_lipo>
-2.57033259311252

> <r_i_glide_hbond>
-0.0691469459646666

> <r_i_glide_metal>
0

> <r_i_glide_rewards>
-2.60986143834351

> <r_i_glide_evdw>
-40.945068359375

> <r_i_glide_ecoul>
0.428990185260773

> <r_i_glide_erotb>
0.369923578938838

> <r_i_glide_esite>
0

> <r_i_glide_emodel>
-55.2295438779276

> <r_i_glide_energy>
-40.5160781741142

> <r_i_glide_einternal>
2.7445330619812

> <i_i_glide_confnum>
8

> <i_i_glide_posenum>
267

> <r_i_glide_eff_state_penalty>
0

> <s_user_duplicate_titles>
CHEMBL1957_lig3391

> <i_f3d_flags>
0

> <s_m_subgroup_title>
dock_pv

> <s_m_subgroupid>
dock_pv

> <b_m_subgroup_collapsed>
1

$$$$
CHEMBL1957_lig1451
                    3D
 Schrodinger Suite 2021-1.
 34 36  0  0  1  0            999 V2000
    5.8526   -8.9271   22.3702 C   0  0  0  0  0  0
    6.6518   -8.9727   23.5131 C   0  0  0  0  0  0
    6.9868   -7.8592   24.2168 N   0  0  0  0  0  0
    6.5221   -6.6754   23.7409 C   0  0  0  0  0  0
    5.7397   -6.5414   22.6406 N   0  0  0  0  0  0
    5.3969   -7.6666   21.9636 C   0  0  0  0  0  0
    4.5663   -7.5711   20.8384 N   0  0  0  0  0  0
    6.9079   -5.5305   24.4505 N   0  0  0  0  0  0
    4.0416   -6.4334   20.2808 C   0  0  0  0  0  0
    4.0056   -5.0943   20.6379 C   0  0  0  0  0  0
    3.3639   -4.4216   19.5823 C   0  0  0  0  0  0
    3.0814   -5.2564   18.6064 N   0  0  0  0  0  0
    3.4790   -6.4530   19.0383 N   0  0  0  0  0  0
    3.0366   -2.9502   19.4273 C   0  0  0  0  0  0
    2.7667   -2.1278   20.6619 C   0  0  0  0  0  0
    4.0226   -1.8863   19.8504 C   0  0  0  0  0  0
    5.4094  -10.5340   21.4376 Br  0  0  0  0  0  0
    6.7905   -4.1877   23.8821 C   0  0  0  0  0  0
    8.0637   -3.7455   23.1535 C   0  0  0  0  0  0
    7.0267   -9.9161   23.8836 H   0  0  0  0  0  0
    4.4138   -8.4707   20.4099 H   0  0  0  0  0  0
    7.5328   -5.6644   25.2374 H   0  0  0  0  0  0
    4.4380   -4.6479   21.5217 H   0  0  0  0  0  0
    3.4670   -7.2702   18.4402 H   0  0  0  0  0  0
    2.4379   -2.7201   18.5446 H   0  0  0  0  0  0
    1.9502   -1.4102   20.6373 H   0  0  0  0  0  0
    2.8547   -2.6060   21.6361 H   0  0  0  0  0  0
    4.9894   -2.1984   20.2483 H   0  0  0  0  0  0
    4.1008   -0.9840   19.2413 H   0  0  0  0  0  0
    6.5516   -3.4876   24.6810 H   0  0  0  0  0  0
    5.9445   -4.1264   23.1978 H   0  0  0  0  0  0
    7.9432   -2.7478   22.7323 H   0  0  0  0  0  0
    8.3045   -4.4205   22.3328 H   0  0  0  0  0  0
    8.9204   -3.7185   23.8294 H   0  0  0  0  0  0
  1  2  2  0  0  0
  1  6  1  0  0  0
  1 17  1  0  0  0
  2  3  1  0  0  0
  2 20  1  0  0  0
  3  4  2  0  0  0
  4  5  1  0  0  0
  4  8  1  0  0  0
  5  6  2  0  0  0
  6  7  1  0  0  0
  7  9  1  0  0  0
  7 21  1  0  0  0
  8 18  1  0  0  0
  8 22  1  0  0  0
  9 13  1  0  0  0
  9 10  2  0  0  0
 10 11  1  0  0  0
 10 23  1  0  0  0
 11 14  1  0  0  0
 11 12  2  0  0  0
 12 13  1  0  0  0
 13 24  1  0  0  0
 14 15  1  0  0  0
 14 16  1  0  0  0
 14 25  1  0  0  0
 15 16  1  0  0  0
 15 26  1  0  0  0
 15 27  1  0  0  0
 16 28  1  0  0  0
 16 29  1  0  0  0
 18 19  1  0  0  0
 18 30  1  0  0  0
 18 31  1  0  0  0
 19 32  1  0  0  0
 19 33  1  0  0  0
 19 34  1  0  0  0
M  END
> <s_m_entry_id>
5937

> <s_m_entry_name>
dock_pv.332

> <s_m_Source_Path>
/home/csk/Desktop/cluster/DUD-E-result/igf1r

> <s_m_Source_File>
dock_pv.maegz

> <i_m_Source_File_Index>
332

> <chembl_id>
CHEMBL3976513

> <chembl_pref_name>
None

> <i_lp_mmshare_version>
53161

> <r_lp_tautomer_probability>
0.15739995007316

> <s_lp_Force_Field>
OPLS_2005

> <r_lp_Energy>
0.796097

> <b_lp_Chiralities_Consistent>
1

> <s_lp_Variant>
CHEMBL1957_lig1451-2

> <s_i_glide_gridfile>
glide-grid_2oj9

> <i_i_glide_lignum>
2038

> <i_i_glide_rotatable_bonds>
5

> <r_i_docking_score>
-6.85956475217021

> <r_i_glide_ligand_efficiency>
-0.361029723798432

> <r_i_glide_ligand_efficiency_sa>
-0.963372309275834

> <r_i_glide_ligand_efficiency_ln>
-1.73904699461717

> <r_i_glide_gscore>
-6.85956475217021

> <r_i_glide_lipo>
-2.38217150021168

> <r_i_glide_hbond>
-0.463494869534478

> <r_i_glide_metal>
0

> <r_i_glide_rewards>
-2.53161961028127

> <r_i_glide_evdw>
-28.0622749328613

> <r_i_glide_ecoul>
-3.87153005599976

> <r_i_glide_erotb>
0.501564482900251

> <r_i_glide_esite>
0

> <r_i_glide_emodel>
-44.2301593415237

> <r_i_glide_energy>
-31.9338049888611

> <r_i_glide_einternal>
2.87889051437378

> <i_i_glide_confnum>
8

> <i_i_glide_posenum>
344

> <r_i_glide_eff_state_penalty>
0

> <s_user_duplicate_titles>
CHEMBL1957_lig1451

> <i_f3d_flags>
0

> <s_m_subgroup_title>
dock_pv

> <s_m_subgroupid>
dock_pv

> <b_m_subgroup_collapsed>
1

$$$$
CHEMBL1957_lig2693
                    3D
 Schrodinger Suite 2021-1.
 34 37  0  0  1  0            999 V2000
    6.0059   -7.5345   21.6604 C   0  0  0  0  0  0
    5.0628   -7.8469   20.6713 C   0  0  0  0  0  0
    4.8390   -9.1519   20.2337 C   0  0  0  0  0  0
    6.7524   -8.5524   22.2663 C   0  0  0  0  0  0
    6.5513   -9.8778   21.8508 C   0  0  0  0  0  0
    5.6035  -10.1536   20.8364 C   0  0  0  0  0  0
    5.6660  -11.5170   20.6380 N   0  0  0  0  0  0
    6.5621  -12.1050   21.4489 N   0  0  0  0  0  0
    7.0917  -11.1570   22.1804 C   0  0  0  0  0  0
    6.2173   -6.1034   22.0286 C   0  0  0  0  0  0
    5.3413   -5.0441   21.8440 C   0  0  0  0  0  0
    6.0090   -3.9297   22.2838 N   0  0  0  0  0  0
    7.2133   -4.2715   22.7531 N   0  0  0  0  0  0
    7.3304   -5.6420   22.5827 N   0  0  0  0  0  0
    5.5515   -2.5404   22.3512 C   0  0  0  0  0  0
    5.0068   -1.9938   21.0382 C   0  0  0  0  0  0
    3.8159   -2.4959   20.5036 C   0  0  0  0  0  0
    3.3426   -2.0172   19.2886 C   0  0  0  0  0  0
    4.0368   -1.0001   18.6379 C   0  0  0  0  0  0
    5.1943   -0.4540   19.1860 C   0  0  0  0  0  0
    5.6771   -0.9540   20.3902 C   0  0  0  0  0  0
    4.4990   -7.0558   20.1976 H   0  0  0  0  0  0
    4.1225   -9.3661   19.4527 H   0  0  0  0  0  0
    7.4838   -8.3233   23.0284 H   0  0  0  0  0  0
    5.1542  -12.0595   19.9546 H   0  0  0  0  0  0
    7.8496  -11.3836   22.9165 H   0  0  0  0  0  0
    4.3452   -5.0040   21.4391 H   0  0  0  0  0  0
    6.3778   -1.9166   22.7025 H   0  0  0  0  0  0
    4.7816   -2.4541   23.1144 H   0  0  0  0  0  0
    3.2445   -3.2489   21.0213 H   0  0  0  0  0  0
    2.4370   -2.4181   18.8579 H   0  0  0  0  0  0
    3.6458   -0.6176   17.7067 H   0  0  0  0  0  0
    5.7167    0.3470   18.6818 H   0  0  0  0  0  0
    6.5771   -0.5324   20.8104 H   0  0  0  0  0  0
  1 10  1  0  0  0
  1  2  2  0  0  0
  1  4  1  0  0  0
  2  3  1  0  0  0
  2 22  1  0  0  0
  3  6  2  0  0  0
  3 23  1  0  0  0
  4  5  2  0  0  0
  4 24  1  0  0  0
  5  6  1  0  0  0
  5  9  1  0  0  0
  6  7  1  0  0  0
  7  8  1  0  0  0
  7 25  1  0  0  0
  8  9  2  0  0  0
  9 26  1  0  0  0
 10 11  2  0  0  0
 10 14  1  0  0  0
 11 12  1  0  0  0
 11 27  1  0  0  0
 12 13  1  0  0  0
 12 15  1  0  0  0
 13 14  2  0  0  0
 15 16  1  0  0  0
 15 28  1  0  0  0
 15 29  1  0  0  0
 16 17  2  0  0  0
 16 21  1  0  0  0
 17 18  1  0  0  0
 17 30  1  0  0  0
 18 19  2  0  0  0
 18 31  1  0  0  0
 19 20  1  0  0  0
 19 32  1  0  0  0
 20 21  2  0  0  0
 20 33  1  0  0  0
 21 34  1  0  0  0
M  END
> <s_m_entry_id>
5938

> <s_m_entry_name>
dock_pv.333

> <s_m_Source_Path>
/home/csk/Desktop/cluster/DUD-E-result/igf1r

> <s_m_Source_File>
dock_pv.maegz

> <i_m_Source_File_Index>
333

> <chembl_id>
CHEMBL1682345

> <chembl_pref_name>
None

> <i_lp_mmshare_version>
53161

> <r_lp_tautomer_probability>
0.980392156862745

> <s_lp_Force_Field>
OPLS_2005

> <r_lp_Energy>
12.438926

> <b_lp_Chiralities_Consistent>
1

> <s_lp_Variant>
CHEMBL1957_lig2693-1

> <s_i_glide_gridfile>
glide-grid_2oj9

> <i_i_glide_lignum>
3721

> <i_i_glide_rotatable_bonds>
3

> <r_i_docking_score>
-6.8560990910184

> <r_i_glide_ligand_efficiency>
-0.326480909096114

> <r_i_glide_ligand_efficiency_sa>
-0.900736072318052

> <r_i_glide_ligand_efficiency_ln>
-1.69515664620161

> <r_i_glide_gscore>
-6.8560990910184

> <r_i_glide_lipo>
-3.38381610496158

> <r_i_glide_hbond>
-0.15337197028403

> <r_i_glide_metal>
0

> <r_i_glide_rewards>
-2.10503086956857

> <r_i_glide_evdw>
-34.9021148681641

> <r_i_glide_ecoul>
-1.20080280303955

> <r_i_glide_erotb>
0.711346017659921

> <r_i_glide_esite>
0

> <r_i_glide_emodel>
-50.2901753396481

> <r_i_glide_energy>
-36.1029176712036

> <r_i_glide_einternal>
1.99202275276184

> <i_i_glide_confnum>
7

> <i_i_glide_posenum>
382

> <r_i_glide_eff_state_penalty>
0

> <s_user_duplicate_titles>
CHEMBL1957_lig2693

> <i_f3d_flags>
0

> <s_m_subgroup_title>
dock_pv

> <s_m_subgroupid>
dock_pv

> <b_m_subgroup_collapsed>
1

$$$$
CHEMBL1957_lig28
                    3D
 Schrodinger Suite 2021-1.
 57 59  0  0  1  0            999 V2000
    4.7873   -5.4151   21.1670 C   0  0  0  0  0  0
    4.6899   -3.9587   21.3864 C   0  0  0  0  0  0
    4.0380   -6.1000   20.2380 C   0  0  0  0  0  0
    5.4557   -3.3529   22.2380 N   0  0  0  0  0  0
    3.2380   -3.9025   19.2275 C   0  0  0  0  0  0
    3.2380   -5.4351   19.1961 C   0  0  0  0  0  0
    3.6395   -3.2738   20.5670 C   0  0  0  0  0  0
    5.3990   -1.9191   22.6537 C   0  0  2  0  0  0
    5.9660   -6.1511   21.8408 C   0  0  0  0  0  0
    5.9080   -0.8784   21.6012 C   0  0  0  0  0  0
    5.7317   -6.6753   23.2830 C   0  0  2  0  0  0
    6.9677   -7.0596   24.1575 C   0  0  1  0  0  0
    4.2024   -7.4310   19.9780 O   0  0  0  0  0  0
    3.0716   -2.2534   20.9448 O   0  0  0  0  0  0
    6.0380    0.3078   21.8928 O   0  0  0  0  0  0
    6.1747   -1.7423   24.0057 C   0  0  2  0  0  0
    7.7726   -8.2926   23.6462 C   0  0  1  0  0  0
    2.6753   -6.0540   18.2922 O   0  0  0  0  0  0
    6.0380   -1.3539   20.3333 O   0  0  0  0  0  0
    6.0380   -0.4581   24.5912 O   0  0  0  0  0  0
    4.8380   -7.9160   23.2396 C   0  0  0  0  0  0
    5.5319   -9.1472   22.6077 C   0  0  0  0  0  0
    7.9205   -5.9242   24.5927 C   0  0  0  0  0  0
    6.8590   -9.5010   23.3075 C   0  0  0  0  0  0
    8.7223   -7.8892   22.4964 C   0  0  0  0  0  0
    7.6656   -2.1056   23.9814 C   0  0  0  0  0  0
    8.9355   -5.4982   23.5218 C   0  0  0  0  0  0
    9.6231   -6.6909   22.8485 C   0  0  0  0  0  0
    2.2820   -3.5088   18.8948 H   0  0  0  0  0  0
    4.3798   -1.6541   22.9209 H   0  0  0  0  0  0
    6.2821   -6.9527   21.1833 H   0  0  0  0  0  0
    6.8183   -5.4876   21.8072 H   0  0  0  0  0  0
    5.1996   -5.9001   23.8377 H   0  0  0  0  0  0
    6.5453   -7.3916   25.1094 H   0  0  0  0  0  0
    3.7896   -7.6430   19.1322 H   0  0  0  0  0  0
    3.9743   -3.5748   18.4937 H   0  0  0  0  0  0
    5.7089   -2.4132   24.7289 H   0  0  0  0  0  0
    8.4012   -8.5922   24.4880 H   0  0  0  0  0  0
    6.2816   -0.6433   19.7352 H   0  0  0  0  0  0
    6.4652    0.1783   24.0091 H   0  0  0  0  0  0
    4.4784   -8.1414   24.2380 H   0  0  0  0  0  0
    3.9622   -7.6540   22.6622 H   0  0  0  0  0  0
    4.8627  -10.0076   22.6380 H   0  0  0  0  0  0
    5.7208   -8.9882   21.5477 H   0  0  0  0  0  0
    7.3544   -5.0779   24.9813 H   0  0  0  0  0  0
    8.5049   -6.2874   25.4380 H   0  0  0  0  0  0
    6.5972   -9.9919   24.2434 H   0  0  0  0  0  0
    7.4106  -10.2660   22.7595 H   0  0  0  0  0  0
    9.3434   -8.7438   22.2238 H   0  0  0  0  0  0
    8.1773   -7.6747   21.5843 H   0  0  0  0  0  0
    7.7702   -3.1743   23.8688 H   0  0  0  0  0  0
    8.1602   -1.8375   24.9147 H   0  0  0  0  0  0
    8.2086   -1.6540   23.1552 H   0  0  0  0  0  0
    9.6957   -4.8630   23.9800 H   0  0  0  0  0  0
    8.4899   -4.8663   22.7618 H   0  0  0  0  0  0
   10.4380   -7.0365   23.4825 H   0  0  0  0  0  0
   10.0380   -6.3078   21.9208 H   0  0  0  0  0  0
  1  2  1  0  0  0
  1  3  2  0  0  0
  1  9  1  0  0  0
  2  4  2  0  0  0
  2  7  1  0  0  0
  3 13  1  0  0  0
  3  6  1  0  0  0
  4  8  1  0  0  0
  5  7  1  0  0  0
  5  6  1  0  0  0
  5 29  1  0  0  0
  5 36  1  0  0  0
  6 18  2  0  0  0
  7 14  2  0  0  0
  8 10  1  0  0  0
  8 16  1  0  0  0
  8 30  1  0  0  0
  9 11  1  0  0  0
  9 31  1  0  0  0
  9 32  1  0  0  0
 10 15  2  0  0  0
 10 19  1  0  0  0
 11 12  1  0  0  0
 11 21  1  0  0  0
 11 33  1  0  0  0
 12 17  1  0  0  0
 12 23  1  0  0  0
 12 34  1  0  0  0
 13 35  1  0  0  0
 16 20  1  0  0  0
 16 26  1  0  0  0
 16 37  1  0  0  0
 17 25  1  0  0  0
 17 24  1  0  0  0
 17 38  1  0  0  0
 19 39  1  0  0  0
 20 40  1  0  0  0
 21 22  1  0  0  0
 21 41  1  0  0  0
 21 42  1  0  0  0
 22 24  1  0  0  0
 22 43  1  0  0  0
 22 44  1  0  0  0
 23 27  1  0  0  0
 23 45  1  0  0  0
 23 46  1  0  0  0
 24 47  1  0  0  0
 24 48  1  0  0  0
 25 28  1  0  0  0
 25 49  1  0  0  0
 25 50  1  0  0  0
 26 51  1  0  0  0
 26 52  1  0  0  0
 26 53  1  0  0  0
 27 28  1  0  0  0
 27 54  1  0  0  0
 27 55  1  0  0  0
 28 56  1  0  0  0
 28 57  1  0  0  0
M  END
> <s_m_entry_id>
5940

> <s_m_entry_name>
dock_pv.335

> <s_m_Source_Path>
/home/csk/Desktop/cluster/DUD-E-result/igf1r

> <s_m_Source_File>
dock_pv.maegz

> <i_m_Source_File_Index>
335

> <chembl_id>
CHEMBL442388

> <chembl_pref_name>
None

> <i_lp_mmshare_version>
53161

> <r_lp_tautomer_probability>
0.818181818181818

> <s_lp_Force_Field>
OPLS_2005

> <r_lp_Energy>
31.782705

> <b_lp_Chiralities_Consistent>
1

> <s_lp_Variant>
CHEMBL1957_lig28-5

> <s_i_glide_gridfile>
glide-grid_2oj9

> <i_i_glide_lignum>
58

> <i_i_glide_rotatable_bonds>
8

> <r_i_docking_score>
-6.85205461050781

> <r_i_glide_ligand_efficiency>
-0.244716236089565

> <r_i_glide_ligand_efficiency_sa>
-0.743102622923103

> <r_i_glide_ligand_efficiency_ln>
-1.5816553891706

> <r_i_glide_gscore>
-6.85205461050781

> <r_i_glide_lipo>
-2.22107862629865

> <r_i_glide_hbond>
-0.336694093480486

> <r_i_glide_metal>
0

> <r_i_glide_rewards>
-2.44678285175854

> <r_i_glide_evdw>
-28.0634956359863

> <r_i_glide_ecoul>
-7.20711708068848

> <r_i_glide_erotb>
0.636743304932449

> <r_i_glide_esite>
0

> <r_i_glide_emodel>
-44.4335151495096

> <r_i_glide_energy>
-35.2706127166748

> <r_i_glide_einternal>
5.29190874099731

> <i_i_glide_confnum>
80

> <i_i_glide_posenum>
188

> <r_i_glide_eff_state_penalty>
0

> <s_user_duplicate_titles>
CHEMBL1957_lig28

> <i_f3d_flags>
0

> <s_m_subgroup_title>
dock_pv

> <s_m_subgroupid>
dock_pv

> <b_m_subgroup_collapsed>
1

$$$$
CHEMBL1957_lig3192
                    3D
 Schrodinger Suite 2021-1.
 53 57  0  0  1  0            999 V2000
    8.6866   -7.0415   23.1468 O   0  0  0  0  0  0
    3.9188   -1.1683   18.9575 N   0  0  0  0  0  0
    3.2814   -2.2771   18.5495 N   0  0  0  0  0  0
    6.1486  -10.4671   20.8296 N   0  0  0  0  0  0
    8.7800   -3.6590   24.6684 N   0  0  0  0  0  0
   10.0380   -9.4885   22.3745 N   0  0  0  0  0  0
    4.5041   -3.0085   20.2379 C   0  0  0  0  0  0
    4.6973   -1.6203   19.9836 C   0  0  0  0  0  0
    6.2673   -2.9491   21.9047 C   0  0  0  0  0  0
    5.2539   -3.6462   21.2348 C   0  0  0  0  0  0
    3.5806   -3.4250   19.2407 C   0  0  0  0  0  0
    7.2297   -3.6750   22.7931 C   0  0  0  0  0  0
    6.2170   -8.9960   22.5324 C   0  0  0  0  0  0
    7.2035  -10.0112   22.7812 C   0  0  0  0  0  0
    5.6383   -0.8948   20.7252 C   0  0  0  0  0  0
    5.6392   -9.2608   21.2510 C   0  0  0  0  0  0
    6.4089   -1.5773   21.6671 C   0  0  0  0  0  0
    7.5700   -5.0202   22.5661 C   0  0  0  0  0  0
    8.4623   -5.7001   23.3992 C   0  0  0  0  0  0
    7.0801  -10.9084   21.7339 C   0  0  0  0  0  0
    7.8729   -3.0456   23.8681 C   0  0  0  0  0  0
    8.1928  -10.0724   23.9362 C   0  0  0  0  0  0
    5.7795   -7.8686   23.2455 C   0  0  0  0  0  0
    4.7441   -8.3811   20.6383 C   0  0  0  0  0  0
    9.5308   -9.3020   23.7246 C   0  0  2  0  0  0
    9.0525   -4.9655   24.4373 C   0  0  0  0  0  0
    3.0430   -4.7763   18.8377 C   0  0  0  0  0  0
    4.8505   -7.0158   22.6586 C   0  0  0  0  0  0
    9.4957   -7.7899   24.0571 C   0  0  0  0  0  0
    4.3785   -7.2530   21.3718 C   0  0  0  0  0  0
    2.6594   -2.2597   17.7517 H   0  0  0  0  0  0
    5.9278  -10.9665   19.9787 H   0  0  0  0  0  0
    9.3496   -9.0810   21.7612 H   0  0  0  0  0  0
   10.8783   -8.9310   22.2526 H   0  0  0  0  0  0
    5.1275   -4.7015   21.3909 H   0  0  0  0  0  0
    5.8150    0.1527   20.5262 H   0  0  0  0  0  0
    7.1834   -1.0286   22.1739 H   0  0  0  0  0  0
    7.1382   -5.5665   21.7420 H   0  0  0  0  0  0
    7.6218  -11.8235   21.5384 H   0  0  0  0  0  0
    7.6852   -2.0103   24.1097 H   0  0  0  0  0  0
    7.7229   -9.7535   24.8681 H   0  0  0  0  0  0
    8.4439  -11.1200   24.1072 H   0  0  0  0  0  0
    6.1812   -7.6482   24.2235 H   0  0  0  0  0  0
    4.3354   -8.5700   19.6558 H   0  0  0  0  0  0
   10.2656   -9.7483   24.3957 H   0  0  0  0  0  0
    9.7624   -5.4094   25.1172 H   0  0  0  0  0  0
    2.4383   -5.2176   19.6268 H   0  0  0  0  0  0
    2.4373   -4.7220   17.9342 H   0  0  0  0  0  0
    3.8415   -5.4845   18.6198 H   0  0  0  0  0  0
    4.5145   -6.1433   23.2004 H   0  0  0  0  0  0
    9.1308   -7.6644   25.0782 H   0  0  0  0  0  0
   10.5128   -7.3917   24.0273 H   0  0  0  0  0  0
    3.6686   -6.5609   20.9466 H   0  0  0  0  0  0
  1 19  1  0  0  0
  1 29  1  0  0  0
  2  3  1  0  0  0
  2  8  2  0  0  0
  3 31  1  0  0  0
  3 11  1  0  0  0
  4 16  1  0  0  0
  4 20  1  0  0  0
  4 32  1  0  0  0
  5 21  1  0  0  0
  5 26  2  0  0  0
  6 25  1  0  0  0
  6 33  1  0  0  0
  6 34  1  0  0  0
  7 10  1  0  0  0
  7  8  1  0  0  0
  7 11  2  0  0  0
  8 15  1  0  0  0
  9 17  1  0  0  0
  9 12  1  0  0  0
  9 10  2  0  0  0
 10 35  1  0  0  0
 11 27  1  0  0  0
 12 18  1  0  0  0
 12 21  2  0  0  0
 13 14  1  0  0  0
 13 16  1  0  0  0
 13 23  2  0  0  0
 14 20  2  0  0  0
 14 22  1  0  0  0
 15 36  1  0  0  0
 15 17  2  0  0  0
 16 24  2  0  0  0
 17 37  1  0  0  0
 18 19  2  0  0  0
 18 38  1  0  0  0
 19 26  1  0  0  0
 20 39  1  0  0  0
 21 40  1  0  0  0
 22 25  1  0  0  0
 22 41  1  0  0  0
 22 42  1  0  0  0
 23 28  1  0  0  0
 23 43  1  0  0  0
 24 30  1  0  0  0
 24 44  1  0  0  0
 25 29  1  0  0  0
 25 45  1  0  0  0
 26 46  1  0  0  0
 27 47  1  0  0  0
 27 48  1  0  0  0
 27 49  1  0  0  0
 28 30  2  0  0  0
 28 50  1  0  0  0
 29 51  1  0  0  0
 29 52  1  0  0  0
 30 53  1  0  0  0
M  END
> <s_m_entry_id>
5941

> <s_m_entry_name>
dock_pv.336

> <s_m_Source_Path>
/home/csk/Desktop/cluster/DUD-E-result/igf1r

> <s_m_Source_File>
dock_pv.maegz

> <i_m_Source_File_Index>
336

> <chembl_id>
CHEMBL1970903

> <chembl_pref_name>
None

> <i_lp_mmshare_version>
53161

> <r_lp_tautomer_probability>
0.0196078431372549

> <s_lp_Force_Field>
OPLS_2005

> <r_lp_Energy>
37.959694

> <b_lp_Chiralities_Consistent>
1

> <s_lp_Variant>
CHEMBL1957_lig3192-3

> <s_i_glide_gridfile>
glide-grid_2oj9

> <i_i_glide_lignum>
4441

> <i_i_glide_rotatable_bonds>
6

> <r_i_docking_score>
-6.85202363828787

> <r_i_glide_ligand_efficiency>
-0.228400787942929

> <r_i_glide_ligand_efficiency_sa>
-0.70969435187714

> <r_i_glide_ligand_efficiency_ln>
-1.55685442939624

> <r_i_glide_gscore>
-6.85202363828787

> <r_i_glide_lipo>
-4.02196263660941

> <r_i_glide_hbond>
-0.0617507114441145

> <r_i_glide_metal>
0

> <r_i_glide_rewards>
-0.898872425366002

> <r_i_glide_evdw>
-45.9636497497559

> <r_i_glide_ecoul>
-1.27188289165497

> <r_i_glide_erotb>
0.619527056367689

> <r_i_glide_esite>
0

> <r_i_glide_emodel>
-62.3626956140951

> <r_i_glide_energy>
-47.2355326414108

> <r_i_glide_einternal>
5.27666568756104

> <i_i_glide_confnum>
1

> <i_i_glide_posenum>
289

> <r_i_glide_eff_state_penalty>
0

> <s_user_duplicate_titles>
CHEMBL1957_lig3192

> <i_f3d_flags>
0

> <s_m_subgroup_title>
dock_pv

> <s_m_subgroupid>
dock_pv

> <b_m_subgroup_collapsed>
1

$$$$
CHEMBL1957_lig1243
                    3D
 Schrodinger Suite 2021-1.
 41 44  0  0  1  0            999 V2000
    7.7384   -2.5079   23.7469 C   0  0  0  0  0  0
    6.7224   -1.5800   23.9736 C   0  0  0  0  0  0
    5.5625   -1.6034   23.2772 N   0  0  0  0  0  0
    5.4207   -2.5731   22.3428 C   0  0  0  0  0  0
    6.3376   -3.5359   22.0682 N   0  0  0  0  0  0
    7.4959   -3.4971   22.7893 C   0  0  0  0  0  0
    8.4667   -4.4901   22.6193 N   0  0  0  0  0  0
    4.2113   -2.5288   21.6504 N   0  0  0  0  0  0
    8.2241   -5.7984   22.2868 C   0  0  0  0  0  0
    7.0826   -6.5543   22.0750 C   0  0  0  0  0  0
    7.5107   -7.8700   21.8388 C   0  0  0  0  0  0
    8.8219   -7.9457   21.8790 N   0  0  0  0  0  0
    9.2368   -6.7063   22.1565 N   0  0  0  0  0  0
    3.8714   -3.0535   20.3976 C   0  0  0  0  0  0
    3.7305   -2.1914   19.3008 C   0  0  0  0  0  0
    3.3524   -2.7065   18.0633 C   0  0  0  0  0  0
    3.1232   -4.0716   17.9100 C   0  0  0  0  0  0
    3.2380   -4.9308   19.0003 C   0  0  0  0  0  0
    3.6372   -4.4233   20.2380 C   0  0  0  0  0  0
    6.6975   -9.1160   21.5548 C   0  0  0  0  0  0
    5.4286   -9.3774   22.3263 C   0  0  0  0  0  0
    5.3585   -9.0213   20.8563 C   0  0  0  0  0  0
    4.0407   -0.4930   19.4352 Cl  0  0  0  0  0  0
    6.8385   -0.4915   25.0224 C   0  0  0  0  0  0
    8.6568   -2.4828   24.3150 H   0  0  0  0  0  0
    9.3617   -4.2282   23.0079 H   0  0  0  0  0  0
    3.6464   -1.7401   21.9228 H   0  0  0  0  0  0
    6.0612   -6.2090   22.1096 H   0  0  0  0  0  0
   10.2292   -6.4953   22.2386 H   0  0  0  0  0  0
    3.2366   -2.0555   17.2087 H   0  0  0  0  0  0
    2.8382   -4.4541   16.9432 H   0  0  0  0  0  0
    3.0627   -5.9910   18.8839 H   0  0  0  0  0  0
    3.7572   -5.1034   21.0648 H   0  0  0  0  0  0
    7.2998   -9.9951   21.3157 H   0  0  0  0  0  0
    5.1180   -8.6502   23.0780 H   0  0  0  0  0  0
    5.2379  -10.4046   22.6374 H   0  0  0  0  0  0
    5.1050   -9.7944   20.1301 H   0  0  0  0  0  0
    4.9884   -8.0384   20.5610 H   0  0  0  0  0  0
    7.6375   -0.7093   25.7301 H   0  0  0  0  0  0
    7.0648    0.4645   24.5499 H   0  0  0  0  0  0
    5.9092   -0.3877   25.5833 H   0  0  0  0  0  0
  1  2  2  0  0  0
  1  6  1  0  0  0
  1 25  1  0  0  0
  2  3  1  0  0  0
  2 24  1  0  0  0
  3  4  2  0  0  0
  4  5  1  0  0  0
  4  8  1  0  0  0
  5  6  2  0  0  0
  6  7  1  0  0  0
  7  9  1  0  0  0
  7 26  1  0  0  0
  8 14  1  0  0  0
  8 27  1  0  0  0
  9 10  2  0  0  0
  9 13  1  0  0  0
 10 11  1  0  0  0
 10 28  1  0  0  0
 11 12  2  0  0  0
 11 20  1  0  0  0
 12 13  1  0  0  0
 13 29  1  0  0  0
 14 15  2  0  0  0
 14 19  1  0  0  0
 15 16  1  0  0  0
 15 23  1  0  0  0
 16 17  2  0  0  0
 16 30  1  0  0  0
 17 18  1  0  0  0
 17 31  1  0  0  0
 18 19  2  0  0  0
 18 32  1  0  0  0
 19 33  1  0  0  0
 20 21  1  0  0  0
 20 22  1  0  0  0
 20 34  1  0  0  0
 21 22  1  0  0  0
 21 35  1  0  0  0
 21 36  1  0  0  0
 22 37  1  0  0  0
 22 38  1  0  0  0
 24 39  1  0  0  0
 24 40  1  0  0  0
 24 41  1  0  0  0
M  END
> <s_m_entry_id>
5942

> <s_m_entry_name>
dock_pv.337

> <s_m_Source_Path>
/home/csk/Desktop/cluster/DUD-E-result/igf1r

> <s_m_Source_File>
dock_pv.maegz

> <i_m_Source_File_Index>
337

> <chembl_id>
CHEMBL3905592

> <chembl_pref_name>
None

> <i_lp_mmshare_version>
53161

> <r_lp_tautomer_probability>
0.157399990546105

> <s_lp_Force_Field>
OPLS_2005

> <r_lp_Energy>
7.784824

> <b_lp_Chiralities_Consistent>
1

> <s_lp_Variant>
CHEMBL1957_lig1243-2

> <s_i_glide_gridfile>
glide-grid_2oj9

> <i_i_glide_lignum>
1623

> <i_i_glide_rotatable_bonds>
5

> <r_i_docking_score>
-6.84966907263337

> <r_i_glide_ligand_efficiency>
-0.28540287802639

> <r_i_glide_ligand_efficiency_sa>
-0.823244355524013

> <r_i_glide_ligand_efficiency_ln>
-1.63944011991414

> <r_i_glide_gscore>
-6.84966907263337

> <r_i_glide_lipo>
-3.18252569155596

> <r_i_glide_hbond>
-0.221958920251667

> <r_i_glide_metal>
0

> <r_i_glide_rewards>
-1.54319310039026

> <r_i_glide_evdw>
-38.0792427062988

> <r_i_glide_ecoul>
-4.9293966293335

> <r_i_glide_erotb>
0.815403963923416

> <r_i_glide_esite>
-0.0740236946439239

> <r_i_glide_emodel>
-57.1367896885031

> <r_i_glide_energy>
-43.0086393356323

> <r_i_glide_einternal>
7.77678918838501

> <i_i_glide_confnum>
1

> <i_i_glide_posenum>
351

> <r_i_glide_eff_state_penalty>
0

> <s_user_duplicate_titles>
CHEMBL1957_lig1243

> <i_f3d_flags>
0

> <s_m_subgroup_title>
dock_pv

> <s_m_subgroupid>
dock_pv

> <b_m_subgroup_collapsed>
1

$$$$
CHEMBL1957_lig824
                    3D
 Schrodinger Suite 2021-1.
 43 46  0  0  1  0            999 V2000
    6.6041   -9.1177   22.9241 C   0  0  0  0  0  0
    7.2381   -8.6851   24.0875 C   0  0  0  0  0  0
    3.9352   -1.6207   18.8371 N   0  0  0  0  0  0
    4.4195   -2.1561   19.9832 C   0  0  0  0  0  0
    4.2130   -3.4291   20.4027 N   0  0  0  0  0  0
    3.5433   -4.2626   19.5700 C   0  0  0  0  0  0
    3.0298   -3.8063   18.3548 C   0  0  0  0  0  0
    3.2373   -2.4642   18.0359 C   0  0  0  0  0  0
    3.4819   -5.6416   19.8347 N   0  0  0  0  0  0
    4.2340   -6.4544   20.7037 C   0  0  0  0  0  0
    4.8385   -6.0001   21.8811 C   0  0  0  0  0  0
    5.2089   -8.6599   21.0386 N   0  0  0  0  0  0
    4.4394   -7.7873   20.3406 C   0  0  0  0  0  0
    5.8014   -8.2193   22.1811 C   0  0  0  0  0  0
    5.6392   -6.8798   22.6475 C   0  0  0  0  0  0
    6.2858   -6.4754   23.8384 C   0  0  0  0  0  0
    7.0827   -7.3774   24.5366 C   0  0  0  0  0  0
    5.2383   -1.3253   20.7491 N   0  0  0  0  0  0
    6.0371   -1.6715   21.8444 C   0  0  0  0  0  0
    6.0441   -0.8402   22.9614 C   0  0  0  0  0  0
    6.8378   -1.1425   24.0627 C   0  0  0  0  0  0
    7.6689   -2.2689   24.0462 C   0  0  0  0  0  0
    7.6398   -3.1188   22.9302 C   0  0  0  0  0  0
    6.8309   -2.8210   21.8384 C   0  0  0  0  0  0
    8.4956   -2.4547   25.1331 O   0  0  0  0  0  0
    9.2381   -3.6640   25.2581 C   0  0  0  0  0  0
    6.7963   -0.0896   25.4353 Cl  0  0  0  0  0  0
    6.7262  -10.1355   22.5823 H   0  0  0  0  0  0
    7.8553   -9.3730   24.6479 H   0  0  0  0  0  0
    2.5042   -4.4542   17.6709 H   0  0  0  0  0  0
    2.8485   -2.0529   17.1127 H   0  0  0  0  0  0
    3.0101   -6.1554   19.1095 H   0  0  0  0  0  0
    4.7188   -4.9880   22.2324 H   0  0  0  0  0  0
    4.0036   -8.1834   19.4378 H   0  0  0  0  0  0
    6.1659   -5.4639   24.1963 H   0  0  0  0  0  0
    7.5849   -7.0598   25.4379 H   0  0  0  0  0  0
    5.4354   -0.4325   20.3195 H   0  0  0  0  0  0
    5.4435    0.0525   22.9787 H   0  0  0  0  0  0
    8.2673   -3.9956   22.8816 H   0  0  0  0  0  0
    6.8431   -3.4738   20.9774 H   0  0  0  0  0  0
    9.6966   -3.6929   26.2450 H   0  0  0  0  0  0
   10.0366   -3.7284   24.5194 H   0  0  0  0  0  0
    8.5982   -4.5450   25.1751 H   0  0  0  0  0  0
  1 14  2  0  0  0
  1  2  1  0  0  0
  1 28  1  0  0  0
  2 17  2  0  0  0
  2 29  1  0  0  0
  3  8  1  0  0  0
  3  4  2  0  0  0
  4  5  1  0  0  0
  4 18  1  0  0  0
  5  6  2  0  0  0
  6  9  1  0  0  0
  6  7  1  0  0  0
  7  8  2  0  0  0
  7 30  1  0  0  0
  8 31  1  0  0  0
  9 10  1  0  0  0
  9 32  1  0  0  0
 10 13  1  0  0  0
 10 11  2  0  0  0
 11 15  1  0  0  0
 11 33  1  0  0  0
 12 14  1  0  0  0
 12 13  2  0  0  0
 13 34  1  0  0  0
 14 15  1  0  0  0
 15 16  2  0  0  0
 16 17  1  0  0  0
 16 35  1  0  0  0
 17 36  1  0  0  0
 18 19  1  0  0  0
 18 37  1  0  0  0
 19 20  2  0  0  0
 19 24  1  0  0  0
 20 21  1  0  0  0
 20 38  1  0  0  0
 21 22  2  0  0  0
 21 27  1  0  0  0
 22 23  1  0  0  0
 22 25  1  0  0  0
 23 24  2  0  0  0
 23 39  1  0  0  0
 24 40  1  0  0  0
 25 26  1  0  0  0
 26 41  1  0  0  0
 26 42  1  0  0  0
 26 43  1  0  0  0
M  END
> <s_m_entry_id>
5943

> <s_m_entry_name>
dock_pv.338

> <s_m_Source_Path>
/home/csk/Desktop/cluster/DUD-E-result/igf1r

> <s_m_Source_File>
dock_pv.maegz

> <i_m_Source_File_Index>
338

> <chembl_id>
CHEMBL1760055

> <chembl_pref_name>
None

> <i_lp_mmshare_version>
53161

> <r_lp_tautomer_probability>
0.999999624730965

> <s_lp_Force_Field>
OPLS_2005

> <r_lp_Energy>
17.077908

> <b_lp_Chiralities_Consistent>
1

> <s_lp_Variant>
CHEMBL1957_lig824-1

> <s_i_glide_gridfile>
glide-grid_2oj9

> <i_i_glide_lignum>
1055

> <i_i_glide_rotatable_bonds>
5

> <r_i_docking_score>
-6.84830389520301

> <r_i_glide_ligand_efficiency>
-0.253640885007519

> <r_i_glide_ligand_efficiency_sa>
-0.760922654186598

> <r_i_glide_ligand_efficiency_ln>
-1.59417224368969

> <r_i_glide_gscore>
-6.84830389520301

> <r_i_glide_lipo>
-3.60385655804739

> <r_i_glide_hbond>
0

> <r_i_glide_metal>
0

> <r_i_glide_rewards>
-1.15652398114053

> <r_i_glide_evdw>
-44.1345062255859

> <r_i_glide_ecoul>
-2.82684779167175

> <r_i_glide_erotb>
0.542829124014976

> <r_i_glide_esite>
0

> <r_i_glide_emodel>
-63.7842046071234

> <r_i_glide_energy>
-46.9613540172577

> <r_i_glide_einternal>
2.17321562767029

> <i_i_glide_confnum>
4

> <i_i_glide_posenum>
150

> <r_i_glide_eff_state_penalty>
0

> <s_user_duplicate_titles>
CHEMBL1957_lig824

> <i_f3d_flags>
0

> <s_m_subgroup_title>
dock_pv

> <s_m_subgroupid>
dock_pv

> <b_m_subgroup_collapsed>
1

$$$$
CHEMBL1957_lig703
                    3D
 Schrodinger Suite 2021-1.
 35 37  0  0  1  0            999 V2000
    8.1869   -5.7786   24.3614 C   0  0  0  0  0  0
    6.8317   -6.0013   24.1570 C   0  0  0  0  0  0
    6.4067   -6.8547   23.1361 C   0  0  0  0  0  0
    7.3581   -7.5360   22.3632 C   0  0  0  0  0  0
    8.7255   -7.3430   22.5891 C   0  0  0  0  0  0
    9.1315   -6.4376   23.5826 C   0  0  0  0  0  0
    9.6377   -8.0540   21.8392 O   0  0  0  0  0  0
   10.4448   -6.1674   23.8382 O   0  0  0  0  0  0
    4.9120   -7.0243   22.9085 C   0  0  0  0  0  0
    4.4871   -6.7734   21.5315 N   0  0  0  0  0  0
    4.3257   -5.4655   21.0378 C   0  0  0  0  0  0
    5.0606   -4.3681   21.5048 C   0  0  0  0  0  0
    3.2384   -4.0259   19.4035 C   0  0  0  0  0  0
    3.4099   -5.2740   20.0007 C   0  0  0  0  0  0
    4.0073   -2.9176   19.8304 C   0  0  0  0  0  0
    4.9299   -3.0905   20.9055 C   0  0  0  0  0  0
    5.7291   -1.9921   21.3096 C   0  0  0  0  0  0
    5.6382   -0.7733   20.6410 C   0  0  0  0  0  0
    4.7421   -0.6056   19.5919 C   0  0  0  0  0  0
    3.9179   -1.6543   19.1919 C   0  0  0  0  0  0
    8.5056   -5.1007   25.1401 H   0  0  0  0  0  0
    6.1161   -5.4860   24.7820 H   0  0  0  0  0  0
    7.0349   -8.2161   21.5890 H   0  0  0  0  0  0
   10.5517   -7.7089   21.8646 H   0  0  0  0  0  0
   11.0662   -6.4487   23.1481 H   0  0  0  0  0  0
    4.6129   -8.0289   23.2092 H   0  0  0  0  0  0
    4.3825   -6.3414   23.5674 H   0  0  0  0  0  0
    3.8731   -7.4703   21.1365 H   0  0  0  0  0  0
    5.7830   -4.4769   22.2949 H   0  0  0  0  0  0
    2.5477   -3.9066   18.5806 H   0  0  0  0  0  0
    2.8392   -6.1064   19.6200 H   0  0  0  0  0  0
    6.4408   -2.1194   22.1130 H   0  0  0  0  0  0
    6.2787    0.0470   20.9295 H   0  0  0  0  0  0
    4.6977    0.3440   19.0794 H   0  0  0  0  0  0
    3.2331   -1.5206   18.3663 H   0  0  0  0  0  0
  1  6  1  0  0  0
  1  2  2  0  0  0
  1 21  1  0  0  0
  2  3  1  0  0  0
  2 22  1  0  0  0
  3  4  2  0  0  0
  3  9  1  0  0  0
  4  5  1  0  0  0
  4 23  1  0  0  0
  5  6  2  0  0  0
  5  7  1  0  0  0
  6  8  1  0  0  0
  7 24  1  0  0  0
  8 25  1  0  0  0
  9 10  1  0  0  0
  9 26  1  0  0  0
  9 27  1  0  0  0
 10 11  1  0  0  0
 10 28  1  0  0  0
 11 12  2  0  0  0
 11 14  1  0  0  0
 12 16  1  0  0  0
 12 29  1  0  0  0
 13 15  1  0  0  0
 13 14  2  0  0  0
 13 30  1  0  0  0
 14 31  1  0  0  0
 15 16  1  0  0  0
 15 20  2  0  0  0
 16 17  2  0  0  0
 17 18  1  0  0  0
 17 32  1  0  0  0
 18 19  2  0  0  0
 18 33  1  0  0  0
 19 20  1  0  0  0
 19 34  1  0  0  0
 20 35  1  0  0  0
M  END
> <s_m_entry_id>
5944

> <s_m_entry_name>
dock_pv.339

> <s_m_Source_Path>
/home/csk/Desktop/cluster/DUD-E-result/igf1r

> <s_m_Source_File>
dock_pv.maegz

> <i_m_Source_File_Index>
339

> <chembl_id>
CHEMBL1240677

> <chembl_pref_name>
None

> <i_lp_mmshare_version>
53161

> <r_lp_tautomer_probability>
0.999999999999776

> <s_lp_Force_Field>
OPLS_2005

> <r_lp_Energy>
15.434713

> <b_lp_Chiralities_Consistent>
1

> <s_lp_Variant>
CHEMBL1957_lig703-1

> <s_i_glide_gridfile>
glide-grid_2oj9

> <i_i_glide_lignum>
930

> <i_i_glide_rotatable_bonds>
5

> <r_i_docking_score>
-6.84717518602047

> <r_i_glide_ligand_efficiency>
-0.342358759301023

> <r_i_glide_ligand_efficiency_sa>
-0.929304646514291

> <r_i_glide_ligand_efficiency_ln>
-1.71362211410883

> <r_i_glide_gscore>
-6.84717518602047

> <r_i_glide_lipo>
-2.82598100653038

> <r_i_glide_hbond>
0

> <r_i_glide_metal>
0

> <r_i_glide_rewards>
-2.06729802605604

> <r_i_glide_evdw>
-26.9321041107178

> <r_i_glide_ecoul>
-9.104416847229

> <r_i_glide_erotb>
0.758371579186193

> <r_i_glide_esite>
0

> <r_i_glide_emodel>
-49.6901918390351

> <r_i_glide_energy>
-36.0365209579468

> <r_i_glide_einternal>
4.11182403564453

> <i_i_glide_confnum>
1

> <i_i_glide_posenum>
362

> <r_i_glide_eff_state_penalty>
0

> <s_user_duplicate_titles>
CHEMBL1957_lig703

> <i_f3d_flags>
0

> <s_m_subgroup_title>
dock_pv

> <s_m_subgroupid>
dock_pv

> <b_m_subgroup_collapsed>
1

$$$$
CHEMBL1957_lig2273
                    3D
 Schrodinger Suite 2021-1.
 52 56  0  0  1  0            999 V2000
    9.5237   -7.4433   25.7402 C   0  0  0  0  0  0
    9.2097   -6.3910   24.6928 C   0  0  0  0  0  0
   10.2034   -5.9212   23.8391 C   0  0  0  0  0  0
    9.9046   -4.9644   22.8734 C   0  0  0  0  0  0
    8.6165   -4.4538   22.7597 C   0  0  0  0  0  0
    7.6197   -4.8894   23.6364 C   0  0  0  0  0  0
    6.2197   -4.3060   23.6444 C   0  0  0  0  0  0
    5.9493   -3.1059   22.7470 C   0  0  0  0  0  0
    5.1915   -2.9637   21.5919 C   0  0  0  0  0  0
    5.3912   -1.6380   21.1869 C   0  0  0  0  0  0
    4.8472   -1.0993   19.8711 C   0  0  0  0  0  0
    3.5363   -1.8501   19.5305 C   0  0  0  0  0  0
    3.6757   -3.3633   19.6963 C   0  0  0  0  0  0
    3.1518   -4.2869   18.7941 C   0  0  0  0  0  0
    3.2380   -5.6271   18.9764 N   0  0  0  0  0  0
    3.8970   -6.0561   20.0827 C   0  0  0  0  0  0
    4.1450   -7.4341   20.0598 N   0  0  0  0  0  0
    4.8741   -8.2555   20.8813 C   0  0  0  0  0  0
    5.1589   -9.6029   20.6162 C   0  0  0  0  0  0
    5.8856  -10.0661   21.6914 C   0  0  0  0  0  0
    5.9852   -8.9899   22.5271 N   0  0  0  0  0  0
    6.6852   -8.9275   23.7906 C   0  0  0  0  0  0
    5.4036   -7.8880   22.0312 N   0  0  0  0  0  0
    4.4380   -5.2484   21.0380 N   0  0  0  0  0  0
    4.3751   -3.9100   20.7894 C   0  0  0  0  0  0
    6.0637   -0.9433   22.0680 N   0  0  0  0  0  0
    6.4046   -1.8317   23.0100 N   0  0  0  0  0  0
    7.2387   -1.3865   24.1149 C   0  0  0  0  0  0
    7.9178   -5.8809   24.5727 C   0  0  0  0  0  0
    8.7131   -8.1684   25.8120 H   0  0  0  0  0  0
   10.4294   -7.9986   25.4935 H   0  0  0  0  0  0
    9.6382   -6.9773   26.7194 H   0  0  0  0  0  0
   11.2125   -6.3000   23.9103 H   0  0  0  0  0  0
   10.6901   -4.6057   22.2274 H   0  0  0  0  0  0
    8.4197   -3.6980   22.0139 H   0  0  0  0  0  0
    6.0380   -4.0440   24.6859 H   0  0  0  0  0  0
    5.5291   -5.1244   23.4394 H   0  0  0  0  0  0
    5.5800   -1.2389   19.0751 H   0  0  0  0  0  0
    4.6719   -0.0236   19.9202 H   0  0  0  0  0  0
    3.2119   -1.5976   18.5198 H   0  0  0  0  0  0
    2.7454   -1.5136   20.2010 H   0  0  0  0  0  0
    2.6190   -3.9566   17.9128 H   0  0  0  0  0  0
    3.7772   -7.8321   19.2087 H   0  0  0  0  0  0
    4.8593  -10.1699   19.7465 H   0  0  0  0  0  0
    6.3163  -11.0253   21.9398 H   0  0  0  0  0  0
    6.7242   -9.9211   24.2377 H   0  0  0  0  0  0
    7.6995   -8.5755   23.6092 H   0  0  0  0  0  0
    6.1686   -8.2490   24.4699 H   0  0  0  0  0  0
    6.9217   -1.8695   25.0379 H   0  0  0  0  0  0
    8.2753   -1.6529   23.9068 H   0  0  0  0  0  0
    7.1652   -0.3053   24.2415 H   0  0  0  0  0  0
    7.1383   -6.2379   25.2297 H   0  0  0  0  0  0
  1  2  1  0  0  0
  1 30  1  0  0  0
  1 31  1  0  0  0
  1 32  1  0  0  0
  2  3  2  0  0  0
  2 29  1  0  0  0
  3  4  1  0  0  0
  3 33  1  0  0  0
  4  5  2  0  0  0
  4 34  1  0  0  0
  5  6  1  0  0  0
  5 35  1  0  0  0
  6  7  1  0  0  0
  6 29  2  0  0  0
  7  8  1  0  0  0
  7 36  1  0  0  0
  7 37  1  0  0  0
  8  9  2  0  0  0
  8 27  1  0  0  0
  9 10  1  0  0  0
  9 25  1  0  0  0
 10 11  1  0  0  0
 10 26  2  0  0  0
 11 12  1  0  0  0
 11 38  1  0  0  0
 11 39  1  0  0  0
 12 13  1  0  0  0
 12 40  1  0  0  0
 12 41  1  0  0  0
 13 14  2  0  0  0
 13 25  1  0  0  0
 14 15  1  0  0  0
 14 42  1  0  0  0
 15 16  2  0  0  0
 16 17  1  0  0  0
 16 24  1  0  0  0
 17 18  1  0  0  0
 17 43  1  0  0  0
 18 19  1  0  0  0
 18 23  2  0  0  0
 19 20  2  0  0  0
 19 44  1  0  0  0
 20 21  1  0  0  0
 20 45  1  0  0  0
 21 22  1  0  0  0
 21 23  1  0  0  0
 22 46  1  0  0  0
 22 47  1  0  0  0
 22 48  1  0  0  0
 24 25  2  0  0  0
 26 27  1  0  0  0
 27 28  1  0  0  0
 28 49  1  0  0  0
 28 50  1  0  0  0
 28 51  1  0  0  0
 29 52  1  0  0  0
M  END
> <s_m_entry_id>
5945

> <s_m_entry_name>
dock_pv.340

> <s_m_Source_Path>
/home/csk/Desktop/cluster/DUD-E-result/igf1r

> <s_m_Source_File>
dock_pv.maegz

> <i_m_Source_File_Index>
340

> <chembl_id>
CHEMBL3656715

> <chembl_pref_name>
None

> <i_lp_mmshare_version>
53161

> <r_lp_tautomer_probability>
0.999999987636

> <s_lp_Force_Field>
OPLS_2005

> <r_lp_Energy>
7.362399

> <b_lp_Chiralities_Consistent>
1

> <s_lp_Variant>
CHEMBL1957_lig2273-1

> <s_i_glide_gridfile>
glide-grid_2oj9

> <i_i_glide_lignum>
3253

> <i_i_glide_rotatable_bonds>
4

> <r_i_docking_score>
-6.84716116152672

> <r_i_glide_ligand_efficiency>
-0.236109005569887

> <r_i_glide_ligand_efficiency_sa>
-0.725401669694103

> <r_i_glide_ligand_efficiency_ln>
-1.56782627696368

> <r_i_glide_gscore>
-6.84716116152672

> <r_i_glide_lipo>
-3.16307643639704

> <r_i_glide_hbond>
-0.109163190517277

> <r_i_glide_metal>
0

> <r_i_glide_rewards>
-1.54557084677463

> <r_i_glide_evdw>
-38.0551414489746

> <r_i_glide_ecoul>
-4.33529710769653

> <r_i_glide_erotb>
0.523700950765435

> <r_i_glide_esite>
0

> <r_i_glide_emodel>
-51.8185272223241

> <r_i_glide_energy>
-42.3904385566711

> <r_i_glide_einternal>
4.28168058395386

> <i_i_glide_confnum>
1

> <i_i_glide_posenum>
3

> <r_i_glide_eff_state_penalty>
0

> <s_user_duplicate_titles>
CHEMBL1957_lig2273

> <i_f3d_flags>
0

> <s_m_subgroup_title>
dock_pv

> <s_m_subgroupid>
dock_pv

> <b_m_subgroup_collapsed>
1

$$$$
CHEMBL1957_lig93
                    3D
 Schrodinger Suite 2021-1.
 50 53  0  0  1  0            999 V2000
    3.2380   -4.1460   18.9783 C   0  0  0  0  0  0
    3.4281   -2.8421   18.5341 C   0  0  0  0  0  0
    4.1461   -1.9212   19.2994 C   0  0  0  0  0  0
    3.6380   -4.5888   20.2285 C   0  0  0  0  0  0
    4.4066   -0.5422   18.7469 C   0  0  0  0  0  0
    4.3966   -3.6905   20.9578 C   0  0  0  0  0  0
    4.6779   -2.3785   20.5129 C   0  0  0  0  0  0
    5.5199   -1.7495   21.3817 N   0  0  0  0  0  0
    5.7605   -2.6417   22.3120 C   0  0  0  0  0  0
    6.7325   -2.4809   23.3612 C   0  0  0  0  0  0
    7.6688   -3.4429   23.6404 C   0  0  0  0  0  0
    8.6540   -3.1472   24.6642 C   0  0  0  0  0  0
    8.4380   -2.0728   25.4380 C   0  0  0  0  0  0
    6.6402   -1.2330   24.1275 C   0  0  0  0  0  0
    6.0382   -0.2025   23.8304 O   0  0  0  0  0  0
    7.5906   -4.7257   23.1437 N   0  0  0  0  0  0
    7.9199   -5.9571   23.8719 C   0  0  1  0  0  0
    6.6830   -6.8786   24.0534 C   0  0  0  0  0  0
    9.1968   -6.6711   23.3407 C   0  0  0  0  0  0
    6.2907   -7.7983   22.8948 C   0  0  0  0  0  0
    6.4694   -9.1804   23.0174 C   0  0  0  0  0  0
    6.0352  -10.0363   22.0080 C   0  0  0  0  0  0
    5.4102   -9.5122   20.8789 C   0  0  0  0  0  0
    5.2380   -8.1366   20.7410 C   0  0  0  0  0  0
    5.6900   -7.2822   21.7444 C   0  0  0  0  0  0
    9.6368   -6.1728   22.0893 O   0  0  0  0  0  0
    2.4380   -5.3978   17.8380 Br  0  0  0  0  0  0
    5.0631   -3.7984   22.1360 N   0  0  0  0  0  0
    7.3689   -1.2335   25.2577 N   0  0  0  0  0  0
    3.0566   -2.5682   17.5558 H   0  0  0  0  0  0
    3.4552   -5.6009   20.5569 H   0  0  0  0  0  0
    3.9091   -0.4506   17.7851 H   0  0  0  0  0  0
    4.0382    0.2180   19.4373 H   0  0  0  0  0  0
    5.4765   -0.3796   18.6094 H   0  0  0  0  0  0
    9.5505   -3.7416   24.7606 H   0  0  0  0  0  0
    9.1426   -1.7143   26.1796 H   0  0  0  0  0  0
    7.5512   -4.8604   22.1435 H   0  0  0  0  0  0
    8.1687   -5.6586   24.8924 H   0  0  0  0  0  0
    5.8133   -6.2752   24.3191 H   0  0  0  0  0  0
    6.8487   -7.4947   24.9384 H   0  0  0  0  0  0
   10.0177   -6.5466   24.0475 H   0  0  0  0  0  0
    9.0378   -7.7407   23.2058 H   0  0  0  0  0  0
    6.9269   -9.5990   23.9019 H   0  0  0  0  0  0
    6.1640  -11.1041   22.1106 H   0  0  0  0  0  0
    5.0653  -10.1772   20.1000 H   0  0  0  0  0  0
    4.7663   -7.7364   19.8543 H   0  0  0  0  0  0
    5.5647   -6.2224   21.6274 H   0  0  0  0  0  0
   10.5683   -6.4539   21.9570 H   0  0  0  0  0  0
    5.1667   -4.5908   22.7526 H   0  0  0  0  0  0
    7.3621   -0.3142   25.6742 H   0  0  0  0  0  0
  1  2  2  0  0  0
  1  4  1  0  0  0
  1 27  1  0  0  0
  2  3  1  0  0  0
  2 30  1  0  0  0
  3  7  2  0  0  0
  3  5  1  0  0  0
  4  6  2  0  0  0
  4 31  1  0  0  0
  5 32  1  0  0  0
  5 33  1  0  0  0
  5 34  1  0  0  0
  6  7  1  0  0  0
  6 28  1  0  0  0
  7  8  1  0  0  0
  8  9  2  0  0  0
  9 10  1  0  0  0
  9 28  1  0  0  0
 10 14  1  0  0  0
 10 11  2  0  0  0
 11 12  1  0  0  0
 11 16  1  0  0  0
 12 13  2  0  0  0
 12 35  1  0  0  0
 13 29  1  0  0  0
 13 36  1  0  0  0
 14 15  2  0  0  0
 14 29  1  0  0  0
 16 17  1  0  0  0
 16 37  1  0  0  0
 17 18  1  0  0  0
 17 19  1  0  0  0
 17 38  1  0  0  0
 18 20  1  0  0  0
 18 39  1  0  0  0
 18 40  1  0  0  0
 19 26  1  0  0  0
 19 41  1  0  0  0
 19 42  1  0  0  0
 20 21  2  0  0  0
 20 25  1  0  0  0
 21 22  1  0  0  0
 21 43  1  0  0  0
 22 23  2  0  0  0
 22 44  1  0  0  0
 23 24  1  0  0  0
 23 45  1  0  0  0
 24 25  2  0  0  0
 24 46  1  0  0  0
 25 47  1  0  0  0
 26 48  1  0  0  0
 28 49  1  0  0  0
 29 50  1  0  0  0
M  END
> <s_m_entry_id>
5946

> <s_m_entry_name>
dock_pv.341

> <s_m_Source_Path>
/home/csk/Desktop/cluster/DUD-E-result/igf1r

> <s_m_Source_File>
dock_pv.maegz

> <i_m_Source_File_Index>
341

> <chembl_id>
CHEMBL397667

> <chembl_pref_name>
None

> <i_lp_mmshare_version>
53161

> <r_lp_tautomer_probability>
0.999206294981429

> <s_lp_Force_Field>
OPLS_2005

> <r_lp_Energy>
35.343667

> <b_lp_Chiralities_Consistent>
1

> <s_lp_Variant>
CHEMBL1957_lig93-1

> <s_i_glide_gridfile>
glide-grid_2oj9

> <i_i_glide_lignum>
258

> <i_i_glide_rotatable_bonds>
7

> <r_i_docking_score>
-6.84394839248192

> <r_i_glide_ligand_efficiency>
-0.235998220430411

> <r_i_glide_ligand_efficiency_sa>
-0.725061302646438

> <r_i_glide_ligand_efficiency_ln>
-1.56709063432122

> <r_i_glide_gscore>
-6.84394839248192

> <r_i_glide_lipo>
-3.75660293048124

> <r_i_glide_hbond>
-0.16

> <r_i_glide_metal>
0

> <r_i_glide_rewards>
-0.956109075469611

> <r_i_glide_evdw>
-15.9578008651733

> <r_i_glide_ecoul>
-10.5106210708618

> <r_i_glide_erotb>
0.488353583303432

> <r_i_glide_esite>
-0.0851067659465632

> <r_i_glide_emodel>
-34.1725116405

> <r_i_glide_energy>
-26.4684219360352

> <r_i_glide_einternal>
9.89937496185303

> <i_i_glide_confnum>
38

> <i_i_glide_posenum>
391

> <r_i_glide_eff_state_penalty>
0

> <s_user_duplicate_titles>
CHEMBL1957_lig93

> <i_f3d_flags>
0

> <s_m_subgroup_title>
dock_pv

> <s_m_subgroupid>
dock_pv

> <b_m_subgroup_collapsed>
1

$$$$
CHEMBL1957_lig2138
                    3D
 Schrodinger Suite 2021-1.
 45 48  0  0  1  0            999 V2000
    4.2992   -7.2217   21.4506 C   0  0  0  0  0  0
    5.7142   -7.5783   21.8507 C   0  0  0  0  0  0
    6.7796   -6.7970   22.2886 C   0  0  0  0  0  0
    7.8477   -7.6792   22.4094 C   0  0  0  0  0  0
    9.2382   -7.1604   22.6898 C   0  0  0  0  0  0
    9.2056   -5.9450   23.6792 C   0  0  0  0  0  0
    8.9398   -6.4749   25.0983 C   0  0  0  0  0  0
   10.5849   -5.2538   23.5722 C   0  0  0  0  0  0
    8.0861   -4.9412   23.2945 C   0  0  0  0  0  0
    8.1035   -3.5789   23.6373 C   0  0  0  0  0  0
    7.1645   -2.6866   23.2378 N   0  0  0  0  0  0
    6.1647   -3.1748   22.4694 C   0  0  0  0  0  0
    5.3384   -2.2030   21.8971 N   0  0  0  0  0  0
    4.6100   -2.2772   20.7024 C   0  0  0  0  0  0
    3.8529   -3.4011   20.3589 C   0  0  0  0  0  0
    3.2380   -3.4748   19.1156 C   0  0  0  0  0  0
    3.3259   -2.3981   18.2430 C   0  0  0  0  0  0
    4.0379   -1.2567   18.5986 C   0  0  0  0  0  0
    4.6843   -1.1942   19.8272 C   0  0  0  0  0  0
    5.9881   -4.4834   22.1583 N   0  0  0  0  0  0
    6.9405   -5.3495   22.5801 C   0  0  0  0  0  0
    7.5075   -8.9266   22.2040 N   0  0  0  0  0  0
    6.2210   -8.8622   21.8367 N   0  0  0  0  0  0
    5.5465  -10.0977   21.4601 C   0  0  0  0  0  0
    3.7209   -6.8549   22.2995 H   0  0  0  0  0  0
    4.3003   -6.4313   20.7008 H   0  0  0  0  0  0
    3.7519   -8.0539   21.0113 H   0  0  0  0  0  0
    9.6379   -6.8452   21.7269 H   0  0  0  0  0  0
    9.9097   -7.9481   23.0372 H   0  0  0  0  0  0
    9.6323   -7.2732   25.3649 H   0  0  0  0  0  0
    9.0783   -5.6840   25.8367 H   0  0  0  0  0  0
    7.9284   -6.8696   25.2054 H   0  0  0  0  0  0
   11.3943   -5.9350   23.8381 H   0  0  0  0  0  0
   10.7793   -4.8803   22.5649 H   0  0  0  0  0  0
   10.6669   -4.4005   24.2379 H   0  0  0  0  0  0
    8.9045   -3.1578   24.2260 H   0  0  0  0  0  0
    5.6347   -1.2731   22.1443 H   0  0  0  0  0  0
    3.7600   -4.2326   21.0379 H   0  0  0  0  0  0
    2.6870   -4.3580   18.8318 H   0  0  0  0  0  0
    2.8488   -2.4495   17.2770 H   0  0  0  0  0  0
    4.1210   -0.4485   17.8919 H   0  0  0  0  0  0
    5.2732   -0.3217   20.0714 H   0  0  0  0  0  0
    5.0221   -9.9587   20.5152 H   0  0  0  0  0  0
    6.2642  -10.9110   21.3390 H   0  0  0  0  0  0
    4.8356  -10.3720   22.2380 H   0  0  0  0  0  0
  1  2  1  0  0  0
  1 25  1  0  0  0
  1 26  1  0  0  0
  1 27  1  0  0  0
  2  3  2  0  0  0
  2 23  1  0  0  0
  3  4  1  0  0  0
  3 21  1  0  0  0
  4  5  1  0  0  0
  4 22  2  0  0  0
  5  6  1  0  0  0
  5 28  1  0  0  0
  5 29  1  0  0  0
  6  7  1  0  0  0
  6  8  1  0  0  0
  6  9  1  0  0  0
  7 30  1  0  0  0
  7 31  1  0  0  0
  7 32  1  0  0  0
  8 33  1  0  0  0
  8 34  1  0  0  0
  8 35  1  0  0  0
  9 10  2  0  0  0
  9 21  1  0  0  0
 10 11  1  0  0  0
 10 36  1  0  0  0
 11 12  2  0  0  0
 12 13  1  0  0  0
 12 20  1  0  0  0
 13 14  1  0  0  0
 13 37  1  0  0  0
 14 15  2  0  0  0
 14 19  1  0  0  0
 15 16  1  0  0  0
 15 38  1  0  0  0
 16 17  2  0  0  0
 16 39  1  0  0  0
 17 18  1  0  0  0
 17 40  1  0  0  0
 18 19  2  0  0  0
 18 41  1  0  0  0
 19 42  1  0  0  0
 20 21  2  0  0  0
 22 23  1  0  0  0
 23 24  1  0  0  0
 24 43  1  0  0  0
 24 44  1  0  0  0
 24 45  1  0  0  0
M  END
> <s_m_entry_id>
5947

> <s_m_entry_name>
dock_pv.342

> <s_m_Source_Path>
/home/csk/Desktop/cluster/DUD-E-result/igf1r

> <s_m_Source_File>
dock_pv.maegz

> <i_m_Source_File_Index>
342

> <chembl_id>
CHEMBL3656581

> <chembl_pref_name>
None

> <i_lp_mmshare_version>
53161

> <r_lp_tautomer_probability>
0.999999987636

> <s_lp_Force_Field>
OPLS_2005

> <r_lp_Energy>
13.79843

> <b_lp_Chiralities_Consistent>
1

> <s_lp_Variant>
CHEMBL1957_lig2138-1

> <s_i_glide_gridfile>
glide-grid_2oj9

> <i_i_glide_lignum>
3112

> <i_i_glide_rotatable_bonds>
2

> <r_i_docking_score>
-6.84069841296841

> <r_i_glide_ligand_efficiency>
-0.285029100540351

> <r_i_glide_ligand_efficiency_sa>
-0.822166194687892

> <r_i_glide_ligand_efficiency_ln>
-1.63729302941957

> <r_i_glide_gscore>
-6.84069841296841

> <r_i_glide_lipo>
-2.91651352563832

> <r_i_glide_hbond>
0

> <r_i_glide_metal>
0

> <r_i_glide_rewards>
-2.03769177874263

> <r_i_glide_evdw>
-39.3587913513184

> <r_i_glide_ecoul>
-1.89558112621307

> <r_i_glide_erotb>
0.365783627910413

> <r_i_glide_esite>
0

> <r_i_glide_emodel>
-52.9317058597372

> <r_i_glide_energy>
-41.2543724775314

> <r_i_glide_einternal>
5.39857482910156

> <i_i_glide_confnum>
4

> <i_i_glide_posenum>
181

> <r_i_glide_eff_state_penalty>
0

> <s_user_duplicate_titles>
CHEMBL1957_lig2138

> <i_f3d_flags>
0

> <s_m_subgroup_title>
dock_pv

> <s_m_subgroupid>
dock_pv

> <b_m_subgroup_collapsed>
1

$$$$
CHEMBL1957_lig1026
                    3D
 Schrodinger Suite 2021-1.
 46 48  0  0  1  0            999 V2000
    8.8306   -4.1854   24.6380 C   0  0  0  0  0  0
    8.2265   -3.7045   23.4797 C   0  0  0  0  0  0
    8.2778   -4.4350   22.2962 C   0  0  0  0  0  0
    8.8569   -5.7000   22.2961 C   0  0  0  0  0  0
    9.3488   -6.2451   23.4901 C   0  0  0  0  0  0
    9.3790   -5.4621   24.6475 C   0  0  0  0  0  0
    9.7214   -7.7271   23.5638 C   0  0  2  0  0  0
    8.6398   -8.6254   24.2497 C   0  0  0  0  0  0
   10.9467   -7.9340   24.2381 O   0  0  0  0  0  0
    7.2902   -2.0531   23.5236 Br  0  0  0  0  0  0
    7.2628   -8.5928   23.7153 N   0  0  0  0  0  0
    6.4988   -7.4120   24.1439 C   0  0  0  0  0  0
    5.0919   -7.3483   23.5232 C   0  0  0  0  0  0
    5.1073   -7.4994   22.0600 N   0  0  0  0  0  0
    5.7692   -8.7623   21.7080 C   0  0  0  0  0  0
    7.2060   -8.8228   22.2658 C   0  0  0  0  0  0
    4.6355   -6.5527   21.1563 C   0  0  0  0  0  0
    4.0380   -6.9534   19.9573 C   0  0  0  0  0  0
    3.3618   -6.0343   19.1523 C   0  0  0  0  0  0
    3.3363   -4.6856   19.5069 C   0  0  0  0  0  0
    4.0373   -4.2381   20.6361 C   0  0  0  0  0  0
    4.6932   -5.1806   21.4410 C   0  0  0  0  0  0
    4.0733   -2.7442   20.9513 C   0  0  0  0  0  0
    4.3195   -2.5151   22.2386 F   0  0  0  0  0  0
    5.0379   -2.1655   20.2381 F   0  0  0  0  0  0
    2.9105   -2.1676   20.6381 F   0  0  0  0  0  0
    8.8374   -3.5942   25.5409 H   0  0  0  0  0  0
    7.8380   -4.0396   21.3928 H   0  0  0  0  0  0
    8.8616   -6.2744   21.3836 H   0  0  0  0  0  0
    9.7680   -5.8667   25.5709 H   0  0  0  0  0  0
    9.9008   -8.1025   22.5568 H   0  0  0  0  0  0
    8.9687   -9.6643   24.1911 H   0  0  0  0  0  0
    8.5996   -8.3961   25.3159 H   0  0  0  0  0  0
   11.6379   -7.6485   23.6237 H   0  0  0  0  0  0
    6.4131   -7.4300   25.2303 H   0  0  0  0  0  0
    6.9843   -6.4755   23.9063 H   0  0  0  0  0  0
    4.6350   -6.3999   23.8013 H   0  0  0  0  0  0
    4.4379   -8.1029   23.9576 H   0  0  0  0  0  0
    5.8227   -8.8679   20.6258 H   0  0  0  0  0  0
    5.1711   -9.6080   22.0515 H   0  0  0  0  0  0
    7.8134   -8.1040   21.7239 H   0  0  0  0  0  0
    7.6288   -9.8057   22.0513 H   0  0  0  0  0  0
    4.0048   -7.9977   19.6826 H   0  0  0  0  0  0
    2.8646   -6.3711   18.2535 H   0  0  0  0  0  0
    2.8225   -3.9826   18.8661 H   0  0  0  0  0  0
    5.2091   -4.8455   22.3281 H   0  0  0  0  0  0
  1  2  2  0  0  0
  1  6  1  0  0  0
  1 27  1  0  0  0
  2  3  1  0  0  0
  2 10  1  0  0  0
  3  4  2  0  0  0
  3 28  1  0  0  0
  4  5  1  0  0  0
  4 29  1  0  0  0
  5  6  2  0  0  0
  5  7  1  0  0  0
  6 30  1  0  0  0
  7  8  1  0  0  0
  7  9  1  0  0  0
  7 31  1  0  0  0
  8 11  1  0  0  0
  8 32  1  0  0  0
  8 33  1  0  0  0
  9 34  1  0  0  0
 11 12  1  0  0  0
 11 16  1  0  0  0
 12 13  1  0  0  0
 12 35  1  0  0  0
 12 36  1  0  0  0
 13 14  1  0  0  0
 13 37  1  0  0  0
 13 38  1  0  0  0
 14 15  1  0  0  0
 14 17  1  0  0  0
 15 16  1  0  0  0
 15 39  1  0  0  0
 15 40  1  0  0  0
 16 41  1  0  0  0
 16 42  1  0  0  0
 17 18  2  0  0  0
 17 22  1  0  0  0
 18 19  1  0  0  0
 18 43  1  0  0  0
 19 20  2  0  0  0
 19 44  1  0  0  0
 20 21  1  0  0  0
 20 45  1  0  0  0
 21 22  2  0  0  0
 21 23  1  0  0  0
 22 46  1  0  0  0
 23 24  1  0  0  0
 23 25  1  0  0  0
 23 26  1  0  0  0
M  END
> <s_m_entry_id>
5948

> <s_m_entry_name>
dock_pv.343

> <s_m_Source_Path>
/home/csk/Desktop/cluster/DUD-E-result/igf1r

> <s_m_Source_File>
dock_pv.maegz

> <i_m_Source_File_Index>
343

> <chembl_id>
CHEMBL3398112

> <chembl_pref_name>
None

> <i_lp_mmshare_version>
53161

> <r_lp_tautomer_probability>
1

> <s_lp_Force_Field>
OPLS_2005

> <r_lp_Energy>
54.328041

> <b_lp_Chiralities_Consistent>
1

> <s_lp_Variant>
CHEMBL1957_lig1026-1

> <s_i_glide_gridfile>
glide-grid_2oj9

> <i_i_glide_lignum>
1293

> <i_i_glide_rotatable_bonds>
6

> <r_i_docking_score>
-6.8401161143249

> <r_i_glide_ligand_efficiency>
-0.263081389012496

> <r_i_glide_ligand_efficiency_sa>
-0.77937757977424

> <r_i_glide_ligand_efficiency_ln>
-1.6063788251976

> <r_i_glide_gscore>
-6.8401161143249

> <r_i_glide_lipo>
-3.1966021587701

> <r_i_glide_hbond>
-0.15078910836197

> <r_i_glide_metal>
0

> <r_i_glide_rewards>
-1.94013167708808

> <r_i_glide_evdw>
-34.6143341064453

> <r_i_glide_ecoul>
-1.68805015087128

> <r_i_glide_erotb>
0.431331057848214

> <r_i_glide_esite>
0

> <r_i_glide_emodel>
-48.7030349193206

> <r_i_glide_energy>
-36.3023842573166

> <r_i_glide_einternal>
4.55843067169189

> <i_i_glide_confnum>
39

> <i_i_glide_posenum>
46

> <r_i_glide_eff_state_penalty>
0

> <s_user_duplicate_titles>
CHEMBL1957_lig1026

> <i_f3d_flags>
0

> <s_m_subgroup_title>
dock_pv

> <s_m_subgroupid>
dock_pv

> <b_m_subgroup_collapsed>
1

$$$$
CHEMBL1957_lig1027
                    3D
 Schrodinger Suite 2021-1.
 43 45  0  0  1  0            999 V2000
    6.2126   -7.8571   23.6306 C   0  0  0  0  0  0
    6.7909   -8.7609   22.7402 C   0  0  0  0  0  0
    8.1621   -8.7365   22.5027 C   0  0  0  0  0  0
    8.9515   -7.7611   23.1017 C   0  0  0  0  0  0
    8.3729   -6.8109   23.9499 C   0  0  0  0  0  0
    7.0066   -6.8930   24.2490 C   0  0  0  0  0  0
    9.2573   -5.6907   24.5131 C   0  0  1  0  0  0
    8.7911   -4.1945   24.4239 C   0  0  0  0  0  0
    9.6381   -5.9667   25.8367 O   0  0  0  0  0  0
    5.7063  -10.0209   21.8113 Br  0  0  0  0  0  0
    7.4972   -3.8569   23.8072 N   0  0  0  0  0  0
    7.4271   -4.2385   22.3969 C   0  0  0  0  0  0
    5.9619   -4.0747   21.9756 C   0  0  0  0  0  0
    5.6333   -2.6510   21.8670 N   0  0  0  0  0  0
    5.9461   -1.9377   23.1291 C   0  0  0  0  0  0
    7.2536   -2.4025   23.8570 C   0  0  0  0  0  0
    4.8928   -2.1450   20.7998 C   0  0  0  0  0  0
    3.9322   -2.9379   20.1486 C   0  0  0  0  0  0
    3.3107   -2.4999   18.9778 C   0  0  0  0  0  0
    3.6559   -1.2669   18.4311 C   0  0  0  0  0  0
    4.5923   -0.4630   19.0697 C   0  0  0  0  0  0
    5.1928   -0.8906   20.2432 C   0  0  0  0  0  0
    6.0563   -0.0534   20.8438 F   0  0  0  0  0  0
    5.1515   -7.8920   23.8284 H   0  0  0  0  0  0
    8.6127   -9.4617   21.8435 H   0  0  0  0  0  0
   10.0133   -7.7325   22.8893 H   0  0  0  0  0  0
    6.5536   -6.1801   24.9240 H   0  0  0  0  0  0
   10.1969   -5.7256   23.9574 H   0  0  0  0  0  0
    8.7836   -3.7746   25.4330 H   0  0  0  0  0  0
    9.5877   -3.6531   23.9169 H   0  0  0  0  0  0
    8.8658   -5.8531   26.4118 H   0  0  0  0  0  0
    8.0819   -3.6107   21.7877 H   0  0  0  0  0  0
    7.7399   -5.2573   22.1954 H   0  0  0  0  0  0
    5.2853   -4.5541   22.6844 H   0  0  0  0  0  0
    5.8050   -4.5984   21.0383 H   0  0  0  0  0  0
    5.1103   -2.0547   23.8178 H   0  0  0  0  0  0
    6.0114   -0.8650   22.9630 H   0  0  0  0  0  0
    7.1999   -2.0890   24.9004 H   0  0  0  0  0  0
    8.1058   -1.8694   23.4304 H   0  0  0  0  0  0
    3.6772   -3.9139   20.5345 H   0  0  0  0  0  0
    2.5923   -3.1301   18.4733 H   0  0  0  0  0  0
    3.2385   -0.9433   17.4920 H   0  0  0  0  0  0
    4.8862    0.4841   18.6447 H   0  0  0  0  0  0
  1  2  2  0  0  0
  1  6  1  0  0  0
  1 24  1  0  0  0
  2  3  1  0  0  0
  2 10  1  0  0  0
  3  4  2  0  0  0
  3 25  1  0  0  0
  4  5  1  0  0  0
  4 26  1  0  0  0
  5  6  2  0  0  0
  5  7  1  0  0  0
  6 27  1  0  0  0
  7  8  1  0  0  0
  7  9  1  0  0  0
  7 28  1  0  0  0
  8 11  1  0  0  0
  8 29  1  0  0  0
  8 30  1  0  0  0
  9 31  1  0  0  0
 11 12  1  0  0  0
 11 16  1  0  0  0
 12 13  1  0  0  0
 12 32  1  0  0  0
 12 33  1  0  0  0
 13 14  1  0  0  0
 13 34  1  0  0  0
 13 35  1  0  0  0
 14 15  1  0  0  0
 14 17  1  0  0  0
 15 16  1  0  0  0
 15 36  1  0  0  0
 15 37  1  0  0  0
 16 38  1  0  0  0
 16 39  1  0  0  0
 17 18  2  0  0  0
 17 22  1  0  0  0
 18 19  1  0  0  0
 18 40  1  0  0  0
 19 20  2  0  0  0
 19 41  1  0  0  0
 20 21  1  0  0  0
 20 42  1  0  0  0
 21 22  2  0  0  0
 21 43  1  0  0  0
 22 23  1  0  0  0
M  END
> <s_m_entry_id>
5949

> <s_m_entry_name>
dock_pv.344

> <s_m_Source_Path>
/home/csk/Desktop/cluster/DUD-E-result/igf1r

> <s_m_Source_File>
dock_pv.maegz

> <i_m_Source_File_Index>
344

> <chembl_id>
CHEMBL3398111

> <chembl_pref_name>
None

> <i_lp_mmshare_version>
53161

> <r_lp_tautomer_probability>
1

> <s_lp_Force_Field>
OPLS_2005

> <r_lp_Energy>
52.635514

> <b_lp_Chiralities_Consistent>
1

> <s_lp_Variant>
CHEMBL1957_lig1027-2

> <s_i_glide_gridfile>
glide-grid_2oj9

> <i_i_glide_lignum>
1296

> <i_i_glide_rotatable_bonds>
5

> <r_i_docking_score>
-6.83874167143016

> <r_i_glide_ligand_efficiency>
-0.297336594410007

> <r_i_glide_ligand_efficiency_sa>
-0.84558572186036

> <r_i_glide_ligand_efficiency_ln>
-1.65366974643287

> <r_i_glide_gscore>
-6.83874167143016

> <r_i_glide_lipo>
-3.29932184406938

> <r_i_glide_hbond>
-0.32

> <r_i_glide_metal>
0

> <r_i_glide_rewards>
-1.13198971171732

> <r_i_glide_evdw>
-34.8340682983398

> <r_i_glide_ecoul>
-5.60641813278198

> <r_i_glide_erotb>
0.539143417280899

> <r_i_glide_esite>
-0.0439073980900694

> <r_i_glide_emodel>
-52.3195607418012

> <r_i_glide_energy>
-40.4404864311218

> <r_i_glide_einternal>
9.8815450668335

> <i_i_glide_confnum>
51

> <i_i_glide_posenum>
50

> <r_i_glide_eff_state_penalty>
0

> <s_user_duplicate_titles>
CHEMBL1957_lig1027

> <i_f3d_flags>
0

> <s_m_subgroup_title>
dock_pv

> <s_m_subgroupid>
dock_pv

> <b_m_subgroup_collapsed>
1

$$$$
CHEMBL1957_lig3398
                    3D
 Schrodinger Suite 2021-1.
 35 37  0  0  1  0            999 V2000
    5.8748   -2.2189   22.1172 Cl  0  0  0  0  0  0
    5.5839   -6.5300   22.4258 S   0  0  0  0  0  0
    4.1360   -4.3231   21.0311 O   0  0  0  0  0  0
    4.4681   -7.9096   20.5949 N   0  0  0  0  0  0
    7.6283   -8.0571   24.1163 N   0  0  0  0  0  0
    9.4821   -9.5702   24.4359 N   0  0  0  0  0  0
    9.1131   -7.8056   25.9154 N   0  0  0  0  0  0
    6.1222   -8.1783   22.1887 C   0  0  0  0  0  0
    5.3271   -8.7337   21.1723 C   0  0  0  0  0  0
    7.2681   -8.7374   22.9896 C   0  0  0  0  0  0
    4.4770   -6.7038   21.1022 C   0  0  0  0  0  0
    3.6381   -5.5705   20.5348 C   0  0  0  0  0  0
    7.9945   -9.8559   22.5557 C   0  0  0  0  0  0
    8.7218   -8.5046   24.7833 C   0  0  0  0  0  0
    4.1551   -3.1947   20.2367 C   0  0  0  0  0  0
    5.3321  -10.1517   20.6377 C   0  0  0  0  0  0
    4.9816   -2.1336   20.6393 C   0  0  0  0  0  0
    9.1022  -10.2368   23.3163 C   0  0  0  0  0  0
    3.4306   -3.0713   19.0404 C   0  0  0  0  0  0
    5.1189   -0.9975   19.8391 C   0  0  0  0  0  0
    3.5732   -1.9386   18.2440 C   0  0  0  0  0  0
    4.4241   -0.9080   18.6382 C   0  0  0  0  0  0
    8.5368   -7.0433   26.2604 H   0  0  0  0  0  0
    9.9359   -8.1101   26.4103 H   0  0  0  0  0  0
    2.5943   -5.6541   20.8368 H   0  0  0  0  0  0
    3.6406   -5.6321   19.4463 H   0  0  0  0  0  0
    7.7472  -10.3924   21.6553 H   0  0  0  0  0  0
    5.4052  -10.8822   21.4432 H   0  0  0  0  0  0
    4.4376  -10.4083   20.0736 H   0  0  0  0  0  0
    6.1706  -10.3259   19.9651 H   0  0  0  0  0  0
    9.7166  -11.0770   23.0254 H   0  0  0  0  0  0
    2.7637   -3.8476   18.7002 H   0  0  0  0  0  0
    5.7848   -0.1976   20.1323 H   0  0  0  0  0  0
    3.0323   -1.8716   17.3091 H   0  0  0  0  0  0
    4.5628   -0.0542   17.9959 H   0  0  0  0  0  0
  1 17  1  0  0  0
  2  8  1  0  0  0
  2 11  1  0  0  0
  3 12  1  0  0  0
  3 15  1  0  0  0
  4  9  1  0  0  0
  4 11  2  0  0  0
  5 10  1  0  0  0
  5 14  2  0  0  0
  6 14  1  0  0  0
  6 18  2  0  0  0
  7 14  1  0  0  0
  7 23  1  0  0  0
  7 24  1  0  0  0
  8  9  2  0  0  0
  8 10  1  0  0  0
  9 16  1  0  0  0
 10 13  2  0  0  0
 11 12  1  0  0  0
 12 25  1  0  0  0
 12 26  1  0  0  0
 13 18  1  0  0  0
 13 27  1  0  0  0
 15 17  1  0  0  0
 15 19  2  0  0  0
 16 28  1  0  0  0
 16 29  1  0  0  0
 16 30  1  0  0  0
 17 20  2  0  0  0
 18 31  1  0  0  0
 19 21  1  0  0  0
 19 32  1  0  0  0
 20 22  1  0  0  0
 20 33  1  0  0  0
 21 22  2  0  0  0
 21 34  1  0  0  0
 22 35  1  0  0  0
M  END
> <s_m_entry_id>
5951

> <s_m_entry_name>
dock_pv.346

> <s_m_Source_Path>
/home/csk/Desktop/cluster/DUD-E-result/igf1r

> <s_m_Source_File>
dock_pv.maegz

> <i_m_Source_File_Index>
346

> <chembl_id>
CHEMBL1375640

> <chembl_pref_name>
None

> <i_lp_mmshare_version>
53161

> <r_lp_tautomer_probability>
0.999999987636

> <s_lp_Force_Field>
OPLS_2005

> <r_lp_Energy>
6.782556

> <b_lp_Chiralities_Consistent>
1

> <s_lp_Variant>
CHEMBL1957_lig3398-1

> <s_i_glide_gridfile>
glide-grid_2oj9

> <i_i_glide_lignum>
4785

> <i_i_glide_rotatable_bonds>
4

> <r_i_docking_score>
-6.83638575453236

> <r_i_glide_ligand_efficiency>
-0.310744807024198

> <r_i_glide_ligand_efficiency_sa>
-0.870719170181579

> <r_i_glide_ligand_efficiency_ln>
-1.67106204163694

> <r_i_glide_gscore>
-6.83638575453236

> <r_i_glide_lipo>
-3.44222023126548

> <r_i_glide_hbond>
-0.32

> <r_i_glide_metal>
0

> <r_i_glide_rewards>
-1.56521778181891

> <r_i_glide_evdw>
-34.9006500244141

> <r_i_glide_ecoul>
-2.89629197120667

> <r_i_glide_erotb>
0.680355041949262

> <r_i_glide_esite>
-0.00982648649553346

> <r_i_glide_emodel>
-53.6095502017747

> <r_i_glide_energy>
-37.7969419956207

> <r_i_glide_einternal>
1.33722031116486

> <i_i_glide_confnum>
3

> <i_i_glide_posenum>
155

> <r_i_glide_eff_state_penalty>
0

> <s_user_duplicate_titles>
CHEMBL1957_lig3398

> <i_f3d_flags>
0

> <s_m_subgroup_title>
dock_pv

> <s_m_subgroupid>
dock_pv

> <b_m_subgroup_collapsed>
1

$$$$
CHEMBL1957_lig2631
                    3D
 Schrodinger Suite 2021-1.
 40 44  0  0  1  0            999 V2000
    3.8620   -3.6831   20.1823 N   0  0  0  0  0  0
    4.4380   -4.5677   21.0380 C   0  0  0  0  0  0
    5.3973   -4.2793   21.9501 N   0  0  0  0  0  0
    5.8766   -3.0118   22.0247 C   0  0  0  0  0  0
    6.8465   -2.6892   22.9877 N   0  0  0  0  0  0
    7.2245   -3.6901   23.9846 C   0  0  0  0  0  0
    4.0686   -5.9026   20.8281 N   0  0  0  0  0  0
    4.6460   -7.0996   21.2864 C   0  0  0  0  0  0
    4.5909   -8.1994   20.4229 C   0  0  0  0  0  0
    5.9076   -8.3755   22.9450 C   0  0  0  0  0  0
    5.2692   -7.2054   22.5373 C   0  0  0  0  0  0
    4.3848   -2.4540   20.2032 C   0  0  0  0  0  0
    5.3932   -2.0693   21.1093 C   0  0  0  0  0  0
    5.7670   -0.7680   20.9093 O   0  0  0  0  0  0
    5.0329   -0.3365   19.8380 C   0  0  0  0  0  0
    4.1426   -1.3078   19.3928 C   0  0  0  0  0  0
    8.2379   -4.7236   23.5519 C   0  0  0  0  0  0
    8.6237   -3.6443   24.5408 C   0  0  0  0  0  0
    5.9069   -9.4746   22.0765 C   0  0  0  0  0  0
    5.2380   -9.3713   20.8330 C   0  0  0  0  0  0
    5.3966  -10.6062   20.2380 N   0  0  0  0  0  0
    6.1212  -11.4420   21.0022 N   0  0  0  0  0  0
    6.4379  -10.8012   22.0995 C   0  0  0  0  0  0
    7.2455  -11.4711   23.1873 C   0  0  0  0  0  0
    6.9912   -1.7143   23.2024 H   0  0  0  0  0  0
    6.4130   -4.0140   24.6380 H   0  0  0  0  0  0
    3.4621   -6.0012   20.0308 H   0  0  0  0  0  0
    4.0960   -8.1387   19.4651 H   0  0  0  0  0  0
    6.3937   -8.4313   23.9078 H   0  0  0  0  0  0
    5.2681   -6.3707   23.2208 H   0  0  0  0  0  0
    5.2380    0.6753   19.5130 H   0  0  0  0  0  0
    3.4532   -1.2217   18.5679 H   0  0  0  0  0  0
    8.1066   -5.7478   23.9018 H   0  0  0  0  0  0
    8.6404   -4.6815   22.5387 H   0  0  0  0  0  0
    9.2380   -2.8018   24.2380 H   0  0  0  0  0  0
    8.8255   -3.9446   25.5696 H   0  0  0  0  0  0
    5.0466  -10.9257   19.3404 H   0  0  0  0  0  0
    6.6808  -11.5279   24.1182 H   0  0  0  0  0  0
    8.1623  -10.9208   23.3989 H   0  0  0  0  0  0
    7.5371  -12.4902   22.9300 H   0  0  0  0  0  0
  1 12  1  0  0  0
  1  2  2  0  0  0
  2  3  1  0  0  0
  2  7  1  0  0  0
  3  4  2  0  0  0
  4 13  1  0  0  0
  4  5  1  0  0  0
  5  6  1  0  0  0
  5 25  1  0  0  0
  6 17  1  0  0  0
  6 18  1  0  0  0
  6 26  1  0  0  0
  7  8  1  0  0  0
  7 27  1  0  0  0
  8  9  2  0  0  0
  8 11  1  0  0  0
  9 20  1  0  0  0
  9 28  1  0  0  0
 10 19  1  0  0  0
 10 11  2  0  0  0
 10 29  1  0  0  0
 11 30  1  0  0  0
 12 13  2  0  0  0
 12 16  1  0  0  0
 13 14  1  0  0  0
 14 15  1  0  0  0
 15 16  2  0  0  0
 15 31  1  0  0  0
 16 32  1  0  0  0
 17 18  1  0  0  0
 17 33  1  0  0  0
 17 34  1  0  0  0
 18 35  1  0  0  0
 18 36  1  0  0  0
 19 20  2  0  0  0
 19 23  1  0  0  0
 20 21  1  0  0  0
 21 22  1  0  0  0
 21 37  1  0  0  0
 22 23  2  0  0  0
 23 24  1  0  0  0
 24 38  1  0  0  0
 24 39  1  0  0  0
 24 40  1  0  0  0
M  END
> <s_m_entry_id>
5952

> <s_m_entry_name>
dock_pv.347

> <s_m_Source_Path>
/home/csk/Desktop/cluster/DUD-E-result/igf1r

> <s_m_Source_File>
dock_pv.maegz

> <i_m_Source_File_Index>
347

> <chembl_id>
CHEMBL4062803

> <chembl_pref_name>
None

> <i_lp_mmshare_version>
53161

> <r_lp_tautomer_probability>
1

> <s_lp_Force_Field>
OPLS_2005

> <r_lp_Energy>
18.43402

> <b_lp_Chiralities_Consistent>
1

> <s_lp_Variant>
CHEMBL1957_lig2631-1

> <s_i_glide_gridfile>
glide-grid_2oj9

> <i_i_glide_lignum>
3647

> <i_i_glide_rotatable_bonds>
4

> <r_i_docking_score>
-6.83070423612792

> <r_i_glide_ligand_efficiency>
-0.28461267650533

> <r_i_glide_ligand_efficiency_sa>
-0.820965019918017

> <r_i_glide_ligand_efficiency_ln>
-1.63490096429874

> <r_i_glide_gscore>
-6.83070423612792

> <r_i_glide_lipo>
-3.07982403724769

> <r_i_glide_hbond>
-0.32

> <r_i_glide_metal>
0

> <r_i_glide_rewards>
-1.70300241525109

> <r_i_glide_evdw>
-39.0375328063965

> <r_i_glide_ecoul>
-3.35847020149231

> <r_i_glide_erotb>
0.727769386914537

> <r_i_glide_esite>
0

> <r_i_glide_emodel>
-57.0488189787408

> <r_i_glide_energy>
-42.3960030078888

> <r_i_glide_einternal>
4.67563533782959

> <i_i_glide_confnum>
9

> <i_i_glide_posenum>
162

> <r_i_glide_eff_state_penalty>
0

> <s_user_duplicate_titles>
CHEMBL1957_lig2631

> <i_f3d_flags>
0

> <s_m_subgroup_title>
dock_pv

> <s_m_subgroupid>
dock_pv

> <b_m_subgroup_collapsed>
1

$$$$
CHEMBL1957_lig1476
                    3D
 Schrodinger Suite 2021-1.
 45 47  0  0  1  0            999 V2000
    7.0027   -8.4610   23.9481 N   0  0  0  0  0  0
    6.4901   -7.2305   23.7018 C   0  0  0  0  0  0
    5.6886   -6.9097   22.6532 N   0  0  0  0  0  0
    5.3765   -7.9089   21.7904 C   0  0  0  0  0  0
    4.5361   -7.6558   20.7029 N   0  0  0  0  0  0
    6.8250   -6.2506   24.6373 N   0  0  0  0  0  0
    4.0382   -6.4672   20.2389 C   0  0  0  0  0  0
    4.0289   -5.1392   20.6379 C   0  0  0  0  0  0
    3.3772   -4.4307   19.6019 C   0  0  0  0  0  0
    3.0316   -5.2435   18.6303 N   0  0  0  0  0  0
    3.4051   -6.4530   19.0379 N   0  0  0  0  0  0
    3.0742   -2.9563   19.4429 C   0  0  0  0  0  0
    2.8950   -2.0913   20.6614 C   0  0  0  0  0  0
    4.1124   -1.9105   19.7761 C   0  0  0  0  0  0
    6.6869   -9.4391   23.0642 C   0  0  0  0  0  0
    5.8731   -9.2081   21.9559 C   0  0  0  0  0  0
    5.4687  -10.6308   20.7489 Br  0  0  0  0  0  0
    6.5289   -4.8362   24.4557 C   0  0  0  0  0  0
    7.7152   -4.0356   23.8827 C   0  0  0  0  0  0
    7.7503   -2.5392   24.2683 C   0  0  0  0  0  0
    6.4650   -1.8540   24.0982 N   0  0  0  0  0  0
    6.5259   -0.5241   24.7014 C   0  0  0  0  0  0
    6.0979   -1.7502   22.6882 C   0  0  0  0  0  0
    4.3855   -8.5017   20.1724 H   0  0  0  0  0  0
    7.4577   -6.4993   25.3859 H   0  0  0  0  0  0
    4.4562   -4.7325   21.5394 H   0  0  0  0  0  0
    3.3393   -7.2601   18.4320 H   0  0  0  0  0  0
    2.4376   -2.7270   18.5853 H   0  0  0  0  0  0
    2.0875   -1.3619   20.6379 H   0  0  0  0  0  0
    3.0203   -2.5397   21.6480 H   0  0  0  0  0  0
    5.0908   -2.2531   20.1101 H   0  0  0  0  0  0
    4.1802   -1.0328   19.1346 H   0  0  0  0  0  0
    7.0914  -10.4220   23.2592 H   0  0  0  0  0  0
    6.2437   -4.4583   25.4375 H   0  0  0  0  0  0
    5.6448   -4.6860   23.8376 H   0  0  0  0  0  0
    7.7911   -4.1671   22.8021 H   0  0  0  0  0  0
    8.6466   -4.4664   24.2543 H   0  0  0  0  0  0
    8.5024   -2.0303   23.6672 H   0  0  0  0  0  0
    8.0858   -2.4496   25.3032 H   0  0  0  0  0  0
    6.7531   -0.5950   25.7642 H   0  0  0  0  0  0
    5.5677   -0.0164   24.6153 H   0  0  0  0  0  0
    7.2840    0.1062   24.2386 H   0  0  0  0  0  0
    5.9961   -2.7380   22.2365 H   0  0  0  0  0  0
    5.1371   -1.2525   22.5813 H   0  0  0  0  0  0
    6.8380   -1.1892   22.1156 H   0  0  0  0  0  0
  1 15  1  0  0  0
  1  2  2  0  0  0
  2  3  1  0  0  0
  2  6  1  0  0  0
  3  4  2  0  0  0
  4 16  1  0  0  0
  4  5  1  0  0  0
  5  7  1  0  0  0
  5 24  1  0  0  0
  6 18  1  0  0  0
  6 25  1  0  0  0
  7  8  2  0  0  0
  7 11  1  0  0  0
  8  9  1  0  0  0
  8 26  1  0  0  0
  9 10  2  0  0  0
  9 12  1  0  0  0
 10 11  1  0  0  0
 11 27  1  0  0  0
 12 13  1  0  0  0
 12 14  1  0  0  0
 12 28  1  0  0  0
 13 14  1  0  0  0
 13 29  1  0  0  0
 13 30  1  0  0  0
 14 31  1  0  0  0
 14 32  1  0  0  0
 15 16  2  0  0  0
 15 33  1  0  0  0
 16 17  1  0  0  0
 18 19  1  0  0  0
 18 34  1  0  0  0
 18 35  1  0  0  0
 19 20  1  0  0  0
 19 36  1  0  0  0
 19 37  1  0  0  0
 20 21  1  0  0  0
 20 38  1  0  0  0
 20 39  1  0  0  0
 21 22  1  0  0  0
 21 23  1  0  0  0
 22 40  1  0  0  0
 22 41  1  0  0  0
 22 42  1  0  0  0
 23 43  1  0  0  0
 23 44  1  0  0  0
 23 45  1  0  0  0
M  END
> <s_m_entry_id>
5953

> <s_m_entry_name>
dock_pv.348

> <s_m_Source_Path>
/home/csk/Desktop/cluster/DUD-E-result/igf1r

> <s_m_Source_File>
dock_pv.maegz

> <i_m_Source_File_Index>
348

> <chembl_id>
CHEMBL3957329

> <chembl_pref_name>
None

> <i_lp_mmshare_version>
53161

> <r_lp_tautomer_probability>
0.157399990546105

> <s_lp_Force_Field>
OPLS_2005

> <r_lp_Energy>
6.979679

> <b_lp_Chiralities_Consistent>
1

> <s_lp_Variant>
CHEMBL1957_lig1476-2

> <s_i_glide_gridfile>
glide-grid_2oj9

> <i_i_glide_lignum>
2088

> <i_i_glide_rotatable_bonds>
8

> <r_i_docking_score>
-6.83025055455841

> <r_i_glide_ligand_efficiency>
-0.296967415415583

> <r_i_glide_ligand_efficiency_sa>
-0.84453582590956

> <r_i_glide_ligand_efficiency_ln>
-1.65161651738009

> <r_i_glide_gscore>
-6.83025055455841

> <r_i_glide_lipo>
-2.9311267788413

> <r_i_glide_hbond>
-0.4018581592611

> <r_i_glide_metal>
0

> <r_i_glide_rewards>
-2.10037938967238

> <r_i_glide_evdw>
-34.3939514160156

> <r_i_glide_ecoul>
-3.89277482032776

> <r_i_glide_erotb>
0.938974278715258

> <r_i_glide_esite>
-0.0322467116489403

> <r_i_glide_emodel>
-50.1503152952519

> <r_i_glide_energy>
-38.2867262363434

> <r_i_glide_einternal>
4.9587140083313

> <i_i_glide_confnum>
24

> <i_i_glide_posenum>
277

> <r_i_glide_eff_state_penalty>
0

> <s_user_duplicate_titles>
CHEMBL1957_lig1476

> <i_f3d_flags>
0

> <s_m_subgroup_title>
dock_pv

> <s_m_subgroupid>
dock_pv

> <b_m_subgroup_collapsed>
1

$$$$
CHEMBL1957_lig3504
                    3D
 Schrodinger Suite 2021-1.
 38 41  0  0  1  0            999 V2000
    4.4610   -8.3911   20.2402 C   0  0  0  0  0  0
    4.9879   -9.6784   20.3244 C   0  0  0  0  0  0
    6.0227  -10.0375   21.1268 N   0  0  0  0  0  0
    4.9976   -7.3693   21.0358 C   0  0  0  0  0  0
    6.1105   -7.6952   21.8410 C   0  0  0  0  0  0
    6.5525   -9.0409   21.8388 C   0  0  0  0  0  0
    7.6391   -9.1385   22.6794 N   0  0  0  0  0  0
    6.9884   -6.9735   22.6845 C   0  0  0  0  0  0
    7.9486   -7.8941   23.1925 C   0  0  0  0  0  0
    8.9857   -7.4889   24.0419 C   0  0  0  0  0  0
    9.0579   -6.1308   24.3602 C   0  0  0  0  0  0
    8.1304   -5.2109   23.8758 C   0  0  0  0  0  0
    7.0838   -5.6189   23.0511 C   0  0  0  0  0  0
    4.5008   -6.0574   21.0620 N   0  0  0  0  0  0
    3.4226   -5.5583   20.2130 C   0  0  0  0  0  0
    3.6377   -4.0957   19.8207 C   0  0  0  0  0  0
    4.3715   -3.1916   20.6076 C   0  0  0  0  0  0
    4.6035   -1.8932   20.1523 C   0  0  0  0  0  0
    4.0374   -1.4582   18.9547 C   0  0  0  0  0  0
    3.2695   -2.3364   18.1955 C   0  0  0  0  0  0
    3.0892   -3.6503   18.6153 C   0  0  0  0  0  0
    8.2621   -3.8636   24.2036 N   0  0  0  0  0  0
    5.6437   -0.8449   21.0374 Cl  0  0  0  0  0  0
    3.6367   -8.2180   19.5696 H   0  0  0  0  0  0
    4.5638  -10.4734   19.7290 H   0  0  0  0  0  0
    8.1478   -9.9899   22.8620 H   0  0  0  0  0  0
    9.7213   -8.1813   24.4222 H   0  0  0  0  0  0
    9.8568   -5.7926   25.0034 H   0  0  0  0  0  0
    6.3791   -4.8937   22.6798 H   0  0  0  0  0  0
    4.8464   -5.4520   21.7891 H   0  0  0  0  0  0
    2.4696   -5.6528   20.7352 H   0  0  0  0  0  0
    3.3502   -6.1502   19.3011 H   0  0  0  0  0  0
    4.8088   -3.4983   21.5456 H   0  0  0  0  0  0
    4.2249   -0.4543   18.6013 H   0  0  0  0  0  0
    2.8383   -2.0186   17.2566 H   0  0  0  0  0  0
    2.5162   -4.3194   17.9882 H   0  0  0  0  0  0
    7.6808   -3.2153   23.6939 H   0  0  0  0  0  0
    9.1935   -3.5617   24.4586 H   0  0  0  0  0  0
  1  2  2  0  0  0
  1  4  1  0  0  0
  1 24  1  0  0  0
  2  3  1  0  0  0
  2 25  1  0  0  0
  3  6  2  0  0  0
  4  5  2  0  0  0
  4 14  1  0  0  0
  5  6  1  0  0  0
  5  8  1  0  0  0
  6  7  1  0  0  0
  7  9  1  0  0  0
  7 26  1  0  0  0
  8  9  2  0  0  0
  8 13  1  0  0  0
  9 10  1  0  0  0
 10 11  2  0  0  0
 10 27  1  0  0  0
 11 12  1  0  0  0
 11 28  1  0  0  0
 12 13  2  0  0  0
 12 22  1  0  0  0
 13 29  1  0  0  0
 14 15  1  0  0  0
 14 30  1  0  0  0
 15 16  1  0  0  0
 15 31  1  0  0  0
 15 32  1  0  0  0
 16 17  2  0  0  0
 16 21  1  0  0  0
 17 18  1  0  0  0
 17 33  1  0  0  0
 18 19  2  0  0  0
 18 23  1  0  0  0
 19 20  1  0  0  0
 19 34  1  0  0  0
 20 21  2  0  0  0
 20 35  1  0  0  0
 21 36  1  0  0  0
 22 37  1  0  0  0
 22 38  1  0  0  0
M  END
> <s_m_entry_id>
5954

> <s_m_entry_name>
dock_pv.349

> <s_m_Source_Path>
/home/csk/Desktop/cluster/DUD-E-result/igf1r

> <s_m_Source_File>
dock_pv.maegz

> <i_m_Source_File_Index>
349

> <chembl_id>
CHEMBL4209480

> <chembl_pref_name>
None

> <i_lp_mmshare_version>
53161

> <r_lp_tautomer_probability>
1

> <s_lp_Force_Field>
OPLS_2005

> <r_lp_Energy>
17.710447

> <b_lp_Chiralities_Consistent>
1

> <s_lp_Variant>
CHEMBL1957_lig3504-1

> <s_i_glide_gridfile>
glide-grid_2oj9

> <i_i_glide_lignum>
4914

> <i_i_glide_rotatable_bonds>
3

> <r_i_docking_score>
-6.82858483000294

> <r_i_glide_ligand_efficiency>
-0.296894992608824

> <r_i_glide_ligand_efficiency_sa>
-0.844329865081044

> <r_i_glide_ligand_efficiency_ln>
-1.65121373007862

> <r_i_glide_gscore>
-6.82858483000294

> <r_i_glide_lipo>
-3.34290389844864

> <r_i_glide_hbond>
0

> <r_i_glide_metal>
0

> <r_i_glide_rewards>
-1.8766256303458

> <r_i_glide_evdw>
-38.4358367919922

> <r_i_glide_ecoul>
-1.50553619861603

> <r_i_glide_erotb>
0.538566968183508

> <r_i_glide_esite>
0

> <r_i_glide_emodel>
-53.1593306931775

> <r_i_glide_energy>
-39.9413729906082

> <r_i_glide_einternal>
3.06536531448364

> <i_i_glide_confnum>
7

> <i_i_glide_posenum>
372

> <r_i_glide_eff_state_penalty>
0

> <s_user_duplicate_titles>
CHEMBL1957_lig3504

> <i_f3d_flags>
0

> <s_m_subgroup_title>
dock_pv

> <s_m_subgroupid>
dock_pv

> <b_m_subgroup_collapsed>
1

$$$$
CHEMBL1957_lig2145
                    3D
 Schrodinger Suite 2021-1.
 55 59  0  0  1  0            999 V2000
    5.6272   -0.1938   18.7099 C   0  0  0  0  0  0
    4.3849   -0.4529   19.3430 O   0  0  0  0  0  0
    4.0409   -1.7795   19.3926 C   0  0  0  0  0  0
    3.3671   -2.3351   18.3023 C   0  0  0  0  0  0
    3.0074   -3.6792   18.3097 C   0  0  0  0  0  0
    3.2381   -4.4495   19.4474 C   0  0  0  0  0  0
    3.8798   -3.8839   20.5475 C   0  0  0  0  0  0
    4.3524   -2.5759   20.5072 C   0  0  0  0  0  0
    5.1238   -2.0540   21.5573 N   0  0  0  0  0  0
    6.0359   -2.6369   22.4491 C   0  0  0  0  0  0
    6.6171   -1.7491   23.2875 N   0  0  0  0  0  0
    7.5985   -2.2225   24.0898 C   0  0  0  0  0  0
    8.0237   -3.5533   24.0794 C   0  0  0  0  0  0
    9.1772   -4.0700   24.9481 C   0  0  0  0  0  0
   10.0011   -5.1707   24.2310 C   0  0  0  0  0  0
    9.0360   -6.2022   23.6843 C   0  0  0  0  0  0
    9.2769   -7.4819   23.6233 N   0  0  0  0  0  0
    8.1812   -8.0250   23.0847 N   0  0  0  0  0  0
    8.1879   -9.4237   22.8785 C   0  0  0  0  0  0
    7.1401  -10.2365   23.3297 C   0  0  0  0  0  0
    7.1889  -11.6122   23.1024 C   0  0  0  0  0  0
    8.2953  -12.1397   22.4338 C   0  0  0  0  0  0
    9.3331  -11.3766   22.0046 N   0  0  0  0  0  0
    9.2733  -10.0408   22.2379 C   0  0  0  0  0  0
    7.1971   -7.0814   22.8144 C   0  0  0  0  0  0
    5.8438   -7.4508   22.2085 C   0  0  0  0  0  0
    5.6809   -6.8539   20.8115 C   0  0  0  0  0  0
    4.6899   -7.0523   23.1482 C   0  0  0  0  0  0
    7.7673   -5.8555   23.2038 C   0  0  0  0  0  0
    7.3225   -4.4182   23.2139 C   0  0  0  0  0  0
    6.3314   -3.9677   22.3936 N   0  0  0  0  0  0
    5.6382    0.8378   18.3646 H   0  0  0  0  0  0
    6.4380   -0.3339   19.4227 H   0  0  0  0  0  0
    5.8089   -0.8253   17.8384 H   0  0  0  0  0  0
    3.1450   -1.7278   17.4377 H   0  0  0  0  0  0
    2.5083   -4.1069   17.4526 H   0  0  0  0  0  0
    2.9169   -5.4796   19.4804 H   0  0  0  0  0  0
    4.0379   -4.4700   21.4363 H   0  0  0  0  0  0
    5.1118   -1.0484   21.6097 H   0  0  0  0  0  0
    8.0403   -1.4991   24.7553 H   0  0  0  0  0  0
    8.7749   -4.4819   25.8707 H   0  0  0  0  0  0
    9.8330   -3.2489   25.2421 H   0  0  0  0  0  0
   10.6958   -5.6543   24.9178 H   0  0  0  0  0  0
   10.6127   -4.7500   23.4321 H   0  0  0  0  0  0
    6.2922   -9.8134   23.8497 H   0  0  0  0  0  0
    6.3836  -12.2516   23.4366 H   0  0  0  0  0  0
    8.3660  -13.1991   22.2382 H   0  0  0  0  0  0
   10.1215   -9.4623   21.8962 H   0  0  0  0  0  0
    5.7535   -8.5226   22.0522 H   0  0  0  0  0  0
    6.5995   -6.8540   20.2380 H   0  0  0  0  0  0
    4.8912   -7.3377   20.2349 H   0  0  0  0  0  0
    5.4463   -5.8117   20.8894 H   0  0  0  0  0  0
    4.7385   -7.6025   24.0889 H   0  0  0  0  0  0
    4.7134   -5.9910   23.3926 H   0  0  0  0  0  0
    3.7184   -7.2530   22.6949 H   0  0  0  0  0  0
  1  2  1  0  0  0
  1 32  1  0  0  0
  1 33  1  0  0  0
  1 34  1  0  0  0
  2  3  1  0  0  0
  3  4  2  0  0  0
  3  8  1  0  0  0
  4  5  1  0  0  0
  4 35  1  0  0  0
  5  6  2  0  0  0
  5 36  1  0  0  0
  6  7  1  0  0  0
  6 37  1  0  0  0
  7  8  2  0  0  0
  7 38  1  0  0  0
  8  9  1  0  0  0
  9 10  1  0  0  0
  9 39  1  0  0  0
 10 11  2  0  0  0
 10 31  1  0  0  0
 11 12  1  0  0  0
 12 13  2  0  0  0
 12 40  1  0  0  0
 13 14  1  0  0  0
 13 30  1  0  0  0
 14 15  1  0  0  0
 14 41  1  0  0  0
 14 42  1  0  0  0
 15 16  1  0  0  0
 15 43  1  0  0  0
 15 44  1  0  0  0
 16 17  2  0  0  0
 16 29  1  0  0  0
 17 18  1  0  0  0
 18 19  1  0  0  0
 18 25  1  0  0  0
 19 20  2  0  0  0
 19 24  1  0  0  0
 20 21  1  0  0  0
 20 45  1  0  0  0
 21 22  2  0  0  0
 21 46  1  0  0  0
 22 23  1  0  0  0
 22 47  1  0  0  0
 23 24  2  0  0  0
 24 48  1  0  0  0
 25 26  1  0  0  0
 25 29  2  0  0  0
 26 27  1  0  0  0
 26 28  1  0  0  0
 26 49  1  0  0  0
 27 50  1  0  0  0
 27 51  1  0  0  0
 27 52  1  0  0  0
 28 53  1  0  0  0
 28 54  1  0  0  0
 28 55  1  0  0  0
 29 30  1  0  0  0
 30 31  2  0  0  0
M  END
> <s_m_entry_id>
5956

> <s_m_entry_name>
dock_pv.351

> <s_m_Source_Path>
/home/csk/Desktop/cluster/DUD-E-result/igf1r

> <s_m_Source_File>
dock_pv.maegz

> <i_m_Source_File_Index>
351

> <chembl_id>
CHEMBL3656588

> <chembl_pref_name>
None

> <i_lp_mmshare_version>
53161

> <r_lp_tautomer_probability>
0.999999987636

> <s_lp_Force_Field>
OPLS_2005

> <r_lp_Energy>
22.489249

> <b_lp_Chiralities_Consistent>
1

> <s_lp_Variant>
CHEMBL1957_lig2145-1

> <s_i_glide_gridfile>
glide-grid_2oj9

> <i_i_glide_lignum>
3119

> <i_i_glide_rotatable_bonds>
5

> <r_i_docking_score>
-6.82086837197807

> <r_i_glide_ligand_efficiency>
-0.220028011999292

> <r_i_glide_ligand_efficiency_sa>
-0.691191739087537

> <r_i_glide_ligand_efficiency_ln>
-1.53831485239256

> <r_i_glide_gscore>
-6.82086837197807

> <r_i_glide_lipo>
-3.34803571101427

> <r_i_glide_hbond>
0

> <r_i_glide_metal>
0

> <r_i_glide_rewards>
-1.22159371779635

> <r_i_glide_evdw>
-45.9269409179688

> <r_i_glide_ecoul>
-2.01722383499146

> <r_i_glide_erotb>
0.347691677979708

> <r_i_glide_esite>
0

> <r_i_glide_emodel>
-62.8106192962086

> <r_i_glide_energy>
-47.9441647529602

> <r_i_glide_einternal>
6.83664131164551

> <i_i_glide_confnum>
2

> <i_i_glide_posenum>
15

> <r_i_glide_eff_state_penalty>
0

> <s_user_duplicate_titles>
CHEMBL1957_lig2145

> <i_f3d_flags>
0

> <s_m_subgroup_title>
dock_pv

> <s_m_subgroupid>
dock_pv

> <b_m_subgroup_collapsed>
1

$$$$
CHEMBL1957_lig185
                    3D
 Schrodinger Suite 2021-1.
 61 65  0  0  1  0            999 V2000
    5.7764   -2.6265   22.6479 C   0  0  0  0  0  0
    4.8256   -2.6846   21.6205 C   0  0  0  0  0  0
    4.4384   -3.8968   21.0379 C   0  0  0  0  0  0
    6.4389   -3.7821   23.0862 C   0  0  0  0  0  0
    6.0368   -4.9879   22.5144 C   0  0  0  0  0  0
    5.0386   -5.0747   21.5239 C   0  0  0  0  0  0
    4.8150   -6.3870   21.1832 N   0  0  0  0  0  0
    5.6672   -7.1086   21.8855 C   0  0  0  0  0  0
    6.4163   -6.2895   22.6967 N   0  0  0  0  0  0
    6.0396   -1.4004   23.2987 N   0  0  0  0  0  0
    6.3467   -1.2049   24.6279 C   0  0  0  0  0  0
    6.5442    0.0443   24.9678 N   0  0  0  0  0  0
    6.4134    0.7088   23.8380 C   0  0  0  0  0  0
    6.0380   -0.1259   22.7875 C   0  0  0  0  0  0
    5.8416   -8.5906   21.8117 C   0  0  0  0  0  0
    6.5499   -9.3074   22.7541 C   0  0  0  0  0  0
    6.7238  -10.7434   22.5571 C   0  0  0  0  0  0
    6.2429  -11.3009   21.4374 C   0  0  0  0  0  0
    5.5571  -10.5991   20.5011 N   0  0  0  0  0  0
    5.2379   -9.2908   20.6482 C   0  0  0  0  0  0
    4.4380   -8.8357   19.8381 O   0  0  0  0  0  0
    3.3932   -3.8896   19.9366 C   0  0  0  0  0  0
    7.0741   -8.7519   23.9078 N   0  0  0  0  0  0
    8.4859   -8.6528   24.3165 C   0  0  1  0  0  0
    9.1927  -10.0238   24.4950 C   0  0  0  0  0  0
    9.2999   -7.6097   23.5010 C   0  0  0  0  0  0
    9.6380   -8.0538   22.1967 O   0  0  0  0  0  0
   10.4901  -10.0015   25.3011 C   0  0  0  0  0  0
   10.5522  -10.6229   26.5500 C   0  0  0  0  0  0
   11.7570  -10.6620   27.2485 C   0  0  0  0  0  0
   12.9039  -10.0625   26.7248 C   0  0  0  0  0  0
   12.8339   -9.4273   25.4790 C   0  0  0  0  0  0
   11.6380   -9.4129   24.7714 C   0  0  0  0  0  0
   14.0456  -10.1284   27.4994 O   0  0  0  0  0  0
   15.2185   -9.4483   27.0636 C   0  0  0  0  0  0
    4.3545   -1.7751   21.2822 H   0  0  0  0  0  0
    7.1980   -3.7515   23.8547 H   0  0  0  0  0  0
    7.1445   -6.6560   23.2902 H   0  0  0  0  0  0
    6.4098   -2.0536   25.2859 H   0  0  0  0  0  0
    6.5809    1.7753   23.7898 H   0  0  0  0  0  0
    5.8552    0.0546   21.7378 H   0  0  0  0  0  0
    7.1961  -11.3583   23.3033 H   0  0  0  0  0  0
    6.2856  -12.3585   21.2144 H   0  0  0  0  0  0
    5.1209  -11.0457   19.7054 H   0  0  0  0  0  0
    2.7254   -3.0312   20.0188 H   0  0  0  0  0  0
    3.8735   -3.8663   18.9584 H   0  0  0  0  0  0
    2.7806   -4.7903   19.9932 H   0  0  0  0  0  0
    6.5073   -8.0279   24.3244 H   0  0  0  0  0  0
    8.4114   -8.2300   25.3206 H   0  0  0  0  0  0
    9.4135  -10.4561   23.5180 H   0  0  0  0  0  0
    8.5060  -10.7185   24.9798 H   0  0  0  0  0  0
    8.7801   -6.6598   23.4280 H   0  0  0  0  0  0
   10.1995   -7.3241   24.0431 H   0  0  0  0  0  0
   10.5292   -7.6987   21.9979 H   0  0  0  0  0  0
    9.6772  -11.0924   26.9756 H   0  0  0  0  0  0
   11.8017  -11.1518   28.2102 H   0  0  0  0  0  0
   13.6987   -8.9570   25.0381 H   0  0  0  0  0  0
   11.6320   -8.9657   23.7904 H   0  0  0  0  0  0
   16.0081   -9.5835   27.8037 H   0  0  0  0  0  0
   15.0455   -8.3752   26.9611 H   0  0  0  0  0  0
   15.5837   -9.8455   26.1145 H   0  0  0  0  0  0
  1  4  1  0  0  0
  1 10  1  0  0  0
  1  2  2  0  0  0
  2  3  1  0  0  0
  2 36  1  0  0  0
  3 22  1  0  0  0
  3  6  2  0  0  0
  4  5  2  0  0  0
  4 37  1  0  0  0
  5  9  1  0  0  0
  5  6  1  0  0  0
  6  7  1  0  0  0
  7  8  2  0  0  0
  8  9  1  0  0  0
  8 15  1  0  0  0
  9 38  1  0  0  0
 10 11  1  0  0  0
 10 14  1  0  0  0
 11 12  2  0  0  0
 11 39  1  0  0  0
 12 13  1  0  0  0
 13 14  2  0  0  0
 13 40  1  0  0  0
 14 41  1  0  0  0
 15 20  1  0  0  0
 15 16  2  0  0  0
 16 17  1  0  0  0
 16 23  1  0  0  0
 17 18  2  0  0  0
 17 42  1  0  0  0
 18 19  1  0  0  0
 18 43  1  0  0  0
 19 20  1  0  0  0
 19 44  1  0  0  0
 20 21  2  0  0  0
 22 45  1  0  0  0
 22 46  1  0  0  0
 22 47  1  0  0  0
 23 24  1  0  0  0
 23 48  1  0  0  0
 24 25  1  0  0  0
 24 26  1  0  0  0
 24 49  1  0  0  0
 25 28  1  0  0  0
 25 50  1  0  0  0
 25 51  1  0  0  0
 26 27  1  0  0  0
 26 52  1  0  0  0
 26 53  1  0  0  0
 27 54  1  0  0  0
 28 29  2  0  0  0
 28 33  1  0  0  0
 29 30  1  0  0  0
 29 55  1  0  0  0
 30 31  2  0  0  0
 30 56  1  0  0  0
 31 32  1  0  0  0
 31 34  1  0  0  0
 32 33  2  0  0  0
 32 57  1  0  0  0
 33 58  1  0  0  0
 34 35  1  0  0  0
 35 59  1  0  0  0
 35 60  1  0  0  0
 35 61  1  0  0  0
M  END
> <s_m_entry_id>
5957

> <s_m_entry_name>
dock_pv.352

> <s_m_Source_Path>
/home/csk/Desktop/cluster/DUD-E-result/igf1r

> <s_m_Source_File>
dock_pv.maegz

> <i_m_Source_File_Index>
352

> <chembl_id>
CHEMBL245513

> <chembl_pref_name>
None

> <i_lp_mmshare_version>
53161

> <r_lp_tautomer_probability>
0.999206294981429

> <s_lp_Force_Field>
OPLS_2005

> <r_lp_Energy>
39.258236

> <b_lp_Chiralities_Consistent>
1

> <s_lp_Variant>
CHEMBL1957_lig185-1

> <s_i_glide_gridfile>
glide-grid_2oj9

> <i_i_glide_lignum>
353

> <i_i_glide_rotatable_bonds>
9

> <r_i_docking_score>
-6.81929117296499

> <r_i_glide_ligand_efficiency>
-0.194836890656143

> <r_i_glide_ligand_efficiency_sa>
-0.637324388251903

> <r_i_glide_ligand_efficiency_ln>
-1.49698575847909

> <r_i_glide_gscore>
-6.81929117296499

> <r_i_glide_lipo>
-2.33760497268614

> <r_i_glide_hbond>
-0.480590355698594

> <r_i_glide_metal>
0

> <r_i_glide_rewards>
-1.33195270755293

> <r_i_glide_evdw>
-42.4680938720703

> <r_i_glide_ecoul>
-7.89736557006836

> <r_i_glide_erotb>
0.638866392086442

> <r_i_glide_esite>
0

> <r_i_glide_emodel>
-65.8610543178724

> <r_i_glide_energy>
-50.3654594421387

> <r_i_glide_einternal>
11.257420539856

> <i_i_glide_confnum>
30

> <i_i_glide_posenum>
63

> <r_i_glide_eff_state_penalty>
0

> <s_user_duplicate_titles>
CHEMBL1957_lig185

> <i_f3d_flags>
0

> <s_m_subgroup_title>
dock_pv

> <s_m_subgroupid>
dock_pv

> <b_m_subgroup_collapsed>
1

$$$$
CHEMBL1957_lig1628
                    3D
 Schrodinger Suite 2021-1.
 50 54  0  0  1  0            999 V2000
    4.4432   -2.0190   20.2346 C   0  0  0  0  0  0
    3.6436   -2.7796   19.3780 C   0  0  0  0  0  0
    3.4049   -4.0977   19.5837 N   0  0  0  0  0  0
    4.0375   -4.6707   20.6379 C   0  0  0  0  0  0
    4.8452   -4.0174   21.5068 N   0  0  0  0  0  0
    5.0427   -2.6891   21.3025 C   0  0  0  0  0  0
    5.8903   -1.9720   22.1582 N   0  0  0  0  0  0
    3.9351   -6.0650   20.6838 N   0  0  0  0  0  0
    6.8077   -2.4797   23.0446 C   0  0  0  0  0  0
    7.4186   -3.7455   23.0959 C   0  0  0  0  0  0
    8.3158   -3.7242   24.1480 C   0  0  0  0  0  0
    8.1792   -2.4540   24.6379 N   0  0  0  0  0  0
    7.2724   -1.7071   23.9970 N   0  0  0  0  0  0
    3.0962   -2.2148   18.0879 C   0  0  0  0  0  0
    4.6462   -7.0285   21.4120 C   0  0  0  0  0  0
    5.1231   -6.8079   22.7060 C   0  0  0  0  0  0
    5.8629   -7.7934   23.3533 C   0  0  0  0  0  0
    4.8760   -8.2629   20.8024 C   0  0  0  0  0  0
    5.6120   -9.2660   21.4449 C   0  0  0  0  0  0
    6.1360   -9.0138   22.7306 C   0  0  0  0  0  0
    6.9743  -10.0843   23.4326 C   0  0  0  0  0  0
    7.4262  -11.2010   22.4681 C   0  0  0  0  0  0
    6.2804  -11.6612   21.6906 N   0  0  2  0  0  0
    5.8656  -10.6127   20.7596 C   0  0  0  0  0  0
    9.2885   -4.7303   24.7296 C   0  0  0  0  0  0
    9.1150   -6.2000   24.4341 C   0  0  0  0  0  0
   10.2869   -5.4405   23.8449 C   0  0  0  0  0  0
    4.6361   -0.9745   20.0385 H   0  0  0  0  0  0
    5.9218   -0.9879   21.9512 H   0  0  0  0  0  0
    3.3739   -6.4376   19.9325 H   0  0  0  0  0  0
    7.2497   -4.5760   22.4270 H   0  0  0  0  0  0
    8.7497   -2.0706   25.3783 H   0  0  0  0  0  0
    3.2381   -1.1356   18.0312 H   0  0  0  0  0  0
    3.6150   -2.6647   17.2406 H   0  0  0  0  0  0
    2.0380   -2.4536   17.9876 H   0  0  0  0  0  0
    4.9265   -5.8803   23.2223 H   0  0  0  0  0  0
    6.2265   -7.6026   24.3535 H   0  0  0  0  0  0
    4.4997   -8.4473   19.8059 H   0  0  0  0  0  0
    7.8441   -9.6307   23.9091 H   0  0  0  0  0  0
    6.3909  -10.5260   24.2385 H   0  0  0  0  0  0
    7.8267  -12.0414   23.0368 H   0  0  0  0  0  0
    8.2373  -10.8567   21.8234 H   0  0  0  0  0  0
    5.5042  -11.8620   22.3101 H   0  0  0  0  0  0
    4.9438  -10.9511   20.2831 H   0  0  0  0  0  0
    6.6082  -10.4962   19.9710 H   0  0  0  0  0  0
    9.6371   -4.4808   25.7334 H   0  0  0  0  0  0
    8.3137   -6.5145   23.7668 H   0  0  0  0  0  0
    9.2878   -6.9098   25.2420 H   0  0  0  0  0  0
   11.2840   -5.6541   24.2344 H   0  0  0  0  0  0
   10.3018   -5.2106   22.7774 H   0  0  0  0  0  0
  1  2  2  0  0  0
  1  6  1  0  0  0
  1 28  1  0  0  0
  2  3  1  0  0  0
  2 14  1  0  0  0
  3  4  2  0  0  0
  4  5  1  0  0  0
  4  8  1  0  0  0
  5  6  2  0  0  0
  6  7  1  0  0  0
  7  9  1  0  0  0
  7 29  1  0  0  0
  8 15  1  0  0  0
  8 30  1  0  0  0
  9 13  2  0  0  0
  9 10  1  0  0  0
 10 11  2  0  0  0
 10 31  1  0  0  0
 11 25  1  0  0  0
 11 12  1  0  0  0
 12 32  1  0  0  0
 12 13  1  0  0  0
 14 33  1  0  0  0
 14 34  1  0  0  0
 14 35  1  0  0  0
 15 16  2  0  0  0
 15 18  1  0  0  0
 16 17  1  0  0  0
 16 36  1  0  0  0
 17 20  2  0  0  0
 17 37  1  0  0  0
 18 19  2  0  0  0
 18 38  1  0  0  0
 19 20  1  0  0  0
 19 24  1  0  0  0
 20 21  1  0  0  0
 21 22  1  0  0  0
 21 39  1  0  0  0
 21 40  1  0  0  0
 22 23  1  0  0  0
 22 41  1  0  0  0
 22 42  1  0  0  0
 23 24  1  0  0  0
 23 43  1  0  0  0
 24 44  1  0  0  0
 24 45  1  0  0  0
 25 26  1  0  0  0
 25 27  1  0  0  0
 25 46  1  0  0  0
 26 27  1  0  0  0
 26 47  1  0  0  0
 26 48  1  0  0  0
 27 49  1  0  0  0
 27 50  1  0  0  0
M  END
> <s_m_entry_id>
5958

> <s_m_entry_name>
dock_pv.353

> <s_m_Source_Path>
/home/csk/Desktop/cluster/DUD-E-result/igf1r

> <s_m_Source_File>
dock_pv.maegz

> <i_m_Source_File_Index>
353

> <chembl_id>
CHEMBL3952557

> <chembl_pref_name>
None

> <i_lp_mmshare_version>
53161

> <r_lp_tautomer_probability>
0.842599949391031

> <s_lp_Force_Field>
OPLS_2005

> <r_lp_Energy>
13.497136

> <b_lp_Chiralities_Consistent>
1

> <s_lp_Variant>
CHEMBL1957_lig1628-1

> <s_i_glide_gridfile>
glide-grid_2oj9

> <i_i_glide_lignum>
2365

> <i_i_glide_rotatable_bonds>
5

> <r_i_docking_score>
-6.8185499897988

> <r_i_glide_ligand_efficiency>
-0.252538888511067

> <r_i_glide_ligand_efficiency_sa>
-0.757616664700873

> <r_i_glide_ligand_efficiency_ln>
-1.58724602504306

> <r_i_glide_gscore>
-6.8185499897988

> <r_i_glide_lipo>
-3.69001951350026

> <r_i_glide_hbond>
-0.0367095555605158

> <r_i_glide_metal>
0

> <r_i_glide_rewards>
-1.27614977789404

> <r_i_glide_evdw>
-43.1796569824219

> <r_i_glide_ecoul>
-2.42243766784668

> <r_i_glide_erotb>
0.734475128722526

> <r_i_glide_esite>
-0.0277977722684101

> <r_i_glide_emodel>
-60.6729277787091

> <r_i_glide_energy>
-45.6020946502686

> <r_i_glide_einternal>
4.56625556945801

> <i_i_glide_confnum>
64

> <i_i_glide_posenum>
320

> <r_i_glide_eff_state_penalty>
0

> <s_user_duplicate_titles>
CHEMBL1957_lig1628

> <i_f3d_flags>
0

> <s_m_subgroup_title>
dock_pv

> <s_m_subgroupid>
dock_pv

> <b_m_subgroup_collapsed>
1

$$$$
CHEMBL1957_lig1635
                    3D
 Schrodinger Suite 2021-1.
 52 55  0  0  1  0            999 V2000
    4.4093   -1.9716   20.1231 C   0  0  0  0  0  0
    3.6380   -2.7663   19.2759 C   0  0  0  0  0  0
    3.4086   -4.0795   19.5218 N   0  0  0  0  0  0
    4.0378   -4.6183   20.5968 C   0  0  0  0  0  0
    4.8379   -3.9347   21.4532 N   0  0  0  0  0  0
    4.9974   -2.6038   21.2201 C   0  0  0  0  0  0
    5.7831   -1.8283   22.0781 N   0  0  0  0  0  0
    3.9382   -6.0112   20.6693 N   0  0  0  0  0  0
    6.6704   -2.2603   23.0258 C   0  0  0  0  0  0
    7.2711   -3.5152   23.2065 C   0  0  0  0  0  0
    8.1811   -3.3819   24.2373 C   0  0  0  0  0  0
    8.0378   -2.0707   24.6046 N   0  0  0  0  0  0
    7.1209   -1.4008   23.9035 N   0  0  0  0  0  0
    3.0982   -2.2356   17.9677 C   0  0  0  0  0  0
    9.1873   -4.3231   24.8630 C   0  0  0  0  0  0
    8.9543   -5.8141   24.8398 C   0  0  0  0  0  0
   10.0383   -5.2054   23.9754 C   0  0  0  0  0  0
    4.6651   -6.9659   21.3912 C   0  0  0  0  0  0
    4.9209   -8.1806   20.7572 C   0  0  0  0  0  0
    5.8293   -7.7526   23.3543 C   0  0  0  0  0  0
    5.1108   -6.7554   22.6985 C   0  0  0  0  0  0
    6.1071   -8.9642   22.7196 C   0  0  0  0  0  0
    5.6385   -9.1744   21.4144 C   0  0  0  0  0  0
    6.8328   -9.8935   23.4449 O   0  0  0  0  0  0
    7.0202  -11.2237   22.9394 C   0  0  0  0  0  0
    8.1354  -11.2939   21.8748 C   0  0  0  0  0  0
    8.0574  -12.3166   21.0071 N   0  0  0  0  0  0
    9.0290  -10.4476   21.8381 O   0  0  0  0  0  0
    9.0091  -12.5630   19.9274 C   0  0  0  0  0  0
    4.5837   -0.9283   19.9058 H   0  0  0  0  0  0
    5.7907   -0.8541   21.8261 H   0  0  0  0  0  0
    3.3983   -6.3925   19.9087 H   0  0  0  0  0  0
    7.1086   -4.4062   22.6203 H   0  0  0  0  0  0
    8.6384   -1.5928   25.2646 H   0  0  0  0  0  0
    3.2388   -1.1586   17.8779 H   0  0  0  0  0  0
    3.6109   -2.7169   17.1337 H   0  0  0  0  0  0
    2.0378   -2.4542   17.8729 H   0  0  0  0  0  0
    9.6466   -3.9345   25.7716 H   0  0  0  0  0  0
    9.2388   -6.3961   25.7178 H   0  0  0  0  0  0
    8.0500   -6.1949   24.3677 H   0  0  0  0  0  0
    9.8977   -5.1543   22.8945 H   0  0  0  0  0  0
   11.0804   -5.3887   24.2366 H   0  0  0  0  0  0
    4.5737   -8.3591   19.7489 H   0  0  0  0  0  0
    6.1656   -7.5904   24.3678 H   0  0  0  0  0  0
    4.8980   -5.8325   23.2162 H   0  0  0  0  0  0
    5.8215  -10.0977   20.8887 H   0  0  0  0  0  0
    6.0790  -11.6473   22.5815 H   0  0  0  0  0  0
    7.3239  -11.8453   23.7817 H   0  0  0  0  0  0
    7.3033  -12.9802   21.1049 H   0  0  0  0  0  0
    8.5461  -13.1829   19.1598 H   0  0  0  0  0  0
    9.8852  -13.0894   20.3068 H   0  0  0  0  0  0
    9.3436  -11.6441   19.4467 H   0  0  0  0  0  0
  1  2  2  0  0  0
  1  6  1  0  0  0
  1 30  1  0  0  0
  2  3  1  0  0  0
  2 14  1  0  0  0
  3  4  2  0  0  0
  4  5  1  0  0  0
  4  8  1  0  0  0
  5  6  2  0  0  0
  6  7  1  0  0  0
  7  9  1  0  0  0
  7 31  1  0  0  0
  8 18  1  0  0  0
  8 32  1  0  0  0
  9 13  2  0  0  0
  9 10  1  0  0  0
 10 11  2  0  0  0
 10 33  1  0  0  0
 11 15  1  0  0  0
 11 12  1  0  0  0
 12 34  1  0  0  0
 12 13  1  0  0  0
 14 35  1  0  0  0
 14 36  1  0  0  0
 14 37  1  0  0  0
 15 16  1  0  0  0
 15 17  1  0  0  0
 15 38  1  0  0  0
 16 17  1  0  0  0
 16 39  1  0  0  0
 16 40  1  0  0  0
 17 41  1  0  0  0
 17 42  1  0  0  0
 18 19  2  0  0  0
 18 21  1  0  0  0
 19 23  1  0  0  0
 19 43  1  0  0  0
 20 22  1  0  0  0
 20 21  2  0  0  0
 20 44  1  0  0  0
 21 45  1  0  0  0
 22 23  2  0  0  0
 22 24  1  0  0  0
 23 46  1  0  0  0
 24 25  1  0  0  0
 25 26  1  0  0  0
 25 47  1  0  0  0
 25 48  1  0  0  0
 26 27  1  0  0  0
 26 28  2  0  0  0
 27 29  1  0  0  0
 27 49  1  0  0  0
 29 50  1  0  0  0
 29 51  1  0  0  0
 29 52  1  0  0  0
M  END
> <s_m_entry_id>
5959

> <s_m_entry_name>
dock_pv.354

> <s_m_Source_Path>
/home/csk/Desktop/cluster/DUD-E-result/igf1r

> <s_m_Source_File>
dock_pv.maegz

> <i_m_Source_File_Index>
354

> <chembl_id>
CHEMBL3931926

> <chembl_pref_name>
None

> <i_lp_mmshare_version>
53161

> <r_lp_tautomer_probability>
0.842599949391031

> <s_lp_Force_Field>
OPLS_2005

> <r_lp_Energy>
12.686434

> <b_lp_Chiralities_Consistent>
1

> <s_lp_Variant>
CHEMBL1957_lig1635-1

> <s_i_glide_gridfile>
glide-grid_2oj9

> <i_i_glide_lignum>
2381

> <i_i_glide_rotatable_bonds>
9

> <r_i_docking_score>
-6.81532013541072

> <r_i_glide_ligand_efficiency>
-0.235011039152094

> <r_i_glide_ligand_efficiency_sa>
-0.722028368998465

> <r_i_glide_ligand_efficiency_ln>
-1.56053548940188

> <r_i_glide_gscore>
-6.81532013541072

> <r_i_glide_lipo>
-3.61495246936092

> <r_i_glide_hbond>
-0.176880878280379

> <r_i_glide_metal>
0

> <r_i_glide_rewards>
-1.18189230799922

> <r_i_glide_evdw>
-44.2752075195312

> <r_i_glide_ecoul>
-4.04354810714722

> <r_i_glide_erotb>
1.00957504061527

> <r_i_glide_esite>
-0.0308769283368368

> <r_i_glide_emodel>
-61.1018453296603

> <r_i_glide_energy>
-48.3187556266785

> <r_i_glide_einternal>
7.55238914489746

> <i_i_glide_confnum>
5

> <i_i_glide_posenum>
23

> <r_i_glide_eff_state_penalty>
0

> <s_user_duplicate_titles>
CHEMBL1957_lig1635

> <i_f3d_flags>
0

> <s_m_subgroup_title>
dock_pv

> <s_m_subgroupid>
dock_pv

> <b_m_subgroup_collapsed>
1

$$$$
CHEMBL1957_lig2738
                    3D
 Schrodinger Suite 2021-1.
 20 22  0  0  1  0            999 V2000
    6.3060   -6.0763   23.9301 Br  0  0  0  0  0  0
    3.2397   -3.5359   19.2092 N   0  0  0  0  0  0
    2.9528   -2.6211   18.2682 N   0  0  0  0  0  0
    4.1553   -2.9522   19.9532 C   0  0  0  0  0  0
    5.0247   -3.3084   21.0904 C   0  0  0  0  0  0
    4.4378   -1.6640   19.5333 C   0  0  0  0  0  0
    5.8142   -2.1795   21.3524 C   0  0  0  0  0  0
    5.5264   -1.0531   20.3696 C   0  0  0  0  0  0
    5.1849   -4.4760   21.8377 C   0  0  0  0  0  0
    3.6386   -1.4433   18.4324 C   0  0  0  0  0  0
    6.7390   -2.2143   22.3976 C   0  0  0  0  0  0
    6.1158   -4.5047   22.8758 C   0  0  0  0  0  0
    6.8885   -3.3773   23.1572 C   0  0  0  0  0  0
    2.3097   -2.8180   17.5087 H   0  0  0  0  0  0
    6.4060   -0.8338   19.7680 H   0  0  0  0  0  0
    5.2374   -0.1259   20.8593 H   0  0  0  0  0  0
    4.5919   -5.3507   21.6254 H   0  0  0  0  0  0
    3.5335   -0.6153   17.7483 H   0  0  0  0  0  0
    7.3481   -1.3527   22.6237 H   0  0  0  0  0  0
    7.6061   -3.4038   23.9633 H   0  0  0  0  0  0
  1 12  1  0  0  0
  2  4  2  0  0  0
  2  3  1  0  0  0
  3 14  1  0  0  0
  3 10  1  0  0  0
  4  5  1  0  0  0
  4  6  1  0  0  0
  5  7  1  0  0  0
  5  9  2  0  0  0
  6 10  2  0  0  0
  6  8  1  0  0  0
  7  8  1  0  0  0
  7 11  2  0  0  0
  8 15  1  0  0  0
  8 16  1  0  0  0
  9 12  1  0  0  0
  9 17  1  0  0  0
 10 18  1  0  0  0
 11 13  1  0  0  0
 11 19  1  0  0  0
 12 13  2  0  0  0
 13 20  1  0  0  0
M  END
> <s_m_entry_id>
5960

> <s_m_entry_name>
dock_pv.355

> <s_m_Source_Path>
/home/csk/Desktop/cluster/DUD-E-result/igf1r

> <s_m_Source_File>
dock_pv.maegz

> <i_m_Source_File_Index>
355

> <chembl_id>
CHEMBL1995172

> <chembl_pref_name>
None

> <i_lp_mmshare_version>
53161

> <r_lp_tautomer_probability>
0.5

> <s_lp_Force_Field>
OPLS_2005

> <r_lp_Energy>
35.373785

> <b_lp_Chiralities_Consistent>
1

> <s_lp_Variant>
CHEMBL1957_lig2738-2

> <s_i_glide_gridfile>
glide-grid_2oj9

> <i_i_glide_lignum>
3787

> <i_i_glide_rotatable_bonds>
0

> <r_i_docking_score>
-6.81513522283158

> <r_i_glide_ligand_efficiency>
-0.524241170987045

> <r_i_glide_ligand_efficiency_sa>
-1.23266644901928

> <r_i_glide_ligand_efficiency_ln>
-1.91170604108788

> <r_i_glide_gscore>
-6.81513522283158

> <r_i_glide_lipo>
-2.18095638719128

> <r_i_glide_hbond>
-0.32

> <r_i_glide_metal>
0

> <r_i_glide_rewards>
-2.83127286363636

> <r_i_glide_evdw>
-24.6784267425537

> <r_i_glide_ecoul>
-1.65989756584167

> <r_i_glide_erotb>
0

> <r_i_glide_esite>
0

> <r_i_glide_emodel>
-37.2431105340211

> <r_i_glide_energy>
-26.3383243083954

> <r_i_glide_einternal>
0

> <i_i_glide_confnum>
1

> <i_i_glide_posenum>
396

> <r_i_glide_eff_state_penalty>
0

> <s_user_duplicate_titles>
CHEMBL1957_lig2738

> <i_f3d_flags>
0

> <s_m_subgroup_title>
dock_pv

> <s_m_subgroupid>
dock_pv

> <b_m_subgroup_collapsed>
1

$$$$
CHEMBL1957_lig944
                    3D
 Schrodinger Suite 2021-1.
 39 41  0  0  1  0            999 V2000
    7.7739   -3.3411   23.7794 C   0  0  0  0  0  0
    7.1095   -2.2050   24.2375 C   0  0  0  0  0  0
    6.3718   -1.4107   23.4266 N   0  0  0  0  0  0
    6.3161   -1.7634   22.1209 C   0  0  0  0  0  0
    6.9077   -2.8615   21.5784 N   0  0  0  0  0  0
    7.6344   -3.6497   22.4161 C   0  0  0  0  0  0
    8.3608   -4.6776   21.8089 N   0  0  0  0  0  0
    8.1907   -5.9945   22.1449 C   0  0  0  0  0  0
    7.0671   -6.7679   22.3695 C   0  0  0  0  0  0
    7.5236   -8.0614   22.6511 C   0  0  0  0  0  0
    8.8383   -8.1121   22.6102 N   0  0  0  0  0  0
    9.2355   -6.8662   22.3142 N   0  0  0  0  0  0
    5.6549   -0.8312   21.3159 N   0  0  0  0  0  0
    8.8661   -4.3444   24.9811 Br  0  0  0  0  0  0
    6.7201   -9.3013   22.9710 C   0  0  0  0  0  0
    5.4112   -0.9511   19.8847 C   0  0  0  0  0  0
    3.9483   -1.2929   19.5225 C   0  0  0  0  0  0
    3.6667   -2.7786   19.3690 C   0  0  0  0  0  0
    3.2953   -3.3029   18.1280 C   0  0  0  0  0  0
    3.0847   -4.6251   17.9135 N   0  0  0  0  0  0
    3.2379   -5.4726   18.9612 C   0  0  0  0  0  0
    3.5809   -5.0312   20.2386 C   0  0  0  0  0  0
    3.7899   -3.6642   20.4426 C   0  0  0  0  0  0
    7.1943   -1.8879   25.2650 H   0  0  0  0  0  0
    8.5700   -4.4520   20.8497 H   0  0  0  0  0  0
    6.0412   -6.4361   22.3319 H   0  0  0  0  0  0
   10.2219   -6.6277   22.2349 H   0  0  0  0  0  0
    5.2388   -0.0543   21.7975 H   0  0  0  0  0  0
    5.6477   -9.1048   22.9876 H   0  0  0  0  0  0
    6.8883  -10.0901   22.2362 H   0  0  0  0  0  0
    6.9824   -9.7068   23.9480 H   0  0  0  0  0  0
    6.1097   -1.6540   19.4376 H   0  0  0  0  0  0
    5.6628    0.0255   19.4655 H   0  0  0  0  0  0
    3.7147   -0.8068   18.5753 H   0  0  0  0  0  0
    3.2397   -0.8728   20.2371 H   0  0  0  0  0  0
    3.1958   -2.6675   17.2600 H   0  0  0  0  0  0
    3.0846   -6.5236   18.7590 H   0  0  0  0  0  0
    3.6928   -5.7328   21.0514 H   0  0  0  0  0  0
    4.0673   -3.3031   21.4209 H   0  0  0  0  0  0
  1  6  1  0  0  0
  1  2  2  0  0  0
  1 14  1  0  0  0
  2  3  1  0  0  0
  2 24  1  0  0  0
  3  4  2  0  0  0
  4 13  1  0  0  0
  4  5  1  0  0  0
  5  6  2  0  0  0
  6  7  1  0  0  0
  7  8  1  0  0  0
  7 25  1  0  0  0
  8 12  1  0  0  0
  8  9  2  0  0  0
  9 10  1  0  0  0
  9 26  1  0  0  0
 10 15  1  0  0  0
 10 11  2  0  0  0
 11 12  1  0  0  0
 12 27  1  0  0  0
 13 16  1  0  0  0
 13 28  1  0  0  0
 15 29  1  0  0  0
 15 30  1  0  0  0
 15 31  1  0  0  0
 16 17  1  0  0  0
 16 32  1  0  0  0
 16 33  1  0  0  0
 17 18  1  0  0  0
 17 34  1  0  0  0
 17 35  1  0  0  0
 18 19  2  0  0  0
 18 23  1  0  0  0
 19 20  1  0  0  0
 19 36  1  0  0  0
 20 21  2  0  0  0
 21 22  1  0  0  0
 21 37  1  0  0  0
 22 23  2  0  0  0
 22 38  1  0  0  0
 23 39  1  0  0  0
M  END
> <s_m_entry_id>
5961

> <s_m_entry_name>
dock_pv.356

> <s_m_Source_Path>
/home/csk/Desktop/cluster/DUD-E-result/igf1r

> <s_m_Source_File>
dock_pv.maegz

> <i_m_Source_File_Index>
356

> <chembl_id>
CHEMBL2088089

> <chembl_pref_name>
None

> <i_lp_mmshare_version>
53161

> <r_lp_tautomer_probability>
0.15739995007316

> <s_lp_Force_Field>
OPLS_2005

> <r_lp_Energy>
-0.434653

> <b_lp_Chiralities_Consistent>
1

> <s_lp_Variant>
CHEMBL1957_lig944-2

> <s_i_glide_gridfile>
glide-grid_2oj9

> <i_i_glide_lignum>
1177

> <i_i_glide_rotatable_bonds>
6

> <r_i_docking_score>
-6.81469355882652

> <r_i_glide_ligand_efficiency>
-0.296291024296805

> <r_i_glide_ligand_efficiency_sa>
-0.842612259543414

> <r_i_glide_ligand_efficiency_ln>
-1.64785469474908

> <r_i_glide_gscore>
-6.81469355882652

> <r_i_glide_lipo>
-2.86646904701361

> <r_i_glide_hbond>
-0.234640954770292

> <r_i_glide_metal>
0

> <r_i_glide_rewards>
-2.27217927202015

> <r_i_glide_evdw>
-37.9679946899414

> <r_i_glide_ecoul>
-1.08208274841309

> <r_i_glide_erotb>
0.690225406534587

> <r_i_glide_esite>
-0.070917544798027

> <r_i_glide_emodel>
-49.7546655515475

> <r_i_glide_energy>
-39.0500774383545

> <r_i_glide_einternal>
12.0289096832275

> <i_i_glide_confnum>
35

> <i_i_glide_posenum>
283

> <r_i_glide_eff_state_penalty>
0

> <s_user_duplicate_titles>
CHEMBL1957_lig944

> <i_f3d_flags>
0

> <s_m_subgroup_title>
dock_pv

> <s_m_subgroupid>
dock_pv

> <b_m_subgroup_collapsed>
1

$$$$
CHEMBL1957_lig971
                    3D
 Schrodinger Suite 2021-1.
 54 57  0  0  1  0            999 V2000
    7.9911   -3.7756   23.5412 C   0  0  0  0  0  0
    7.6336   -2.4942   23.9767 C   0  0  0  0  0  0
    6.8463   -1.6540   23.1741 C   0  0  0  0  0  0
    6.4854   -2.0911   21.8842 C   0  0  0  0  0  0
    6.9326   -3.3355   21.4380 C   0  0  0  0  0  0
    7.6496   -4.1879   22.2596 C   0  0  0  0  0  0
    5.6218   -1.2980   20.9385 C   0  0  0  0  0  0
    6.0136   -0.2132   20.5126 O   0  0  0  0  0  0
    2.7155   -3.4857   18.6380 O   0  0  0  0  0  0
    3.4935   -2.3577   18.2850 C   0  0  0  0  0  0
    3.6688   -1.3628   19.4348 C   0  0  0  0  0  0
    4.4522   -1.8765   20.5544 N   0  0  0  0  0  0
    3.8253   -2.9708   21.3010 C   0  0  0  0  0  0
    3.8673   -4.3278   20.6352 C   0  0  0  0  0  0
    3.2787   -4.5027   19.3700 C   0  0  0  0  0  0
    3.2380   -5.7749   18.8229 C   0  0  0  0  0  0
    3.8035   -6.8540   19.4894 C   0  0  0  0  0  0
    4.4465   -6.7134   20.7255 C   0  0  0  0  0  0
    4.4380   -5.4291   21.2865 C   0  0  0  0  0  0
    5.1353   -7.8740   21.3959 C   0  0  0  0  0  0
    5.2380   -9.1388   20.7813 C   0  0  0  0  0  0
    5.9277  -10.1832   21.3976 C   0  0  0  0  0  0
    5.7394   -7.7619   22.6635 C   0  0  0  0  0  0
    6.4155   -8.7650   23.2772 N   0  0  0  0  0  0
    6.5108   -9.9511   22.6385 C   0  0  0  0  0  0
    8.8426   -4.9497   24.5813 S   0  0  0  0  0  0
   10.3586   -5.3796   23.5748 C   0  0  0  0  0  0
    7.9882   -6.1398   24.6366 O   0  0  0  0  0  0
    9.2730   -4.2693   25.8055 O   0  0  0  0  0  0
    7.2380  -10.9516   23.2701 N   0  0  0  0  0  0
    6.4161   -0.3011   23.7438 C   0  0  0  0  0  0
    8.0380   -2.0540   25.1832 F   0  0  0  0  0  0
    6.6829   -3.6540   20.4400 H   0  0  0  0  0  0
    7.9264   -5.1688   21.8996 H   0  0  0  0  0  0
    2.9809   -1.8570   17.4637 H   0  0  0  0  0  0
    4.4380   -2.6616   17.8496 H   0  0  0  0  0  0
    2.6754   -1.2540   19.8629 H   0  0  0  0  0  0
    3.9591   -0.3716   19.0821 H   0  0  0  0  0  0
    4.1508   -3.0008   22.3419 H   0  0  0  0  0  0
    2.7637   -2.7381   21.3974 H   0  0  0  0  0  0
    2.7655   -5.9210   17.8670 H   0  0  0  0  0  0
    3.7046   -7.8233   19.0380 H   0  0  0  0  0  0
    4.8842   -5.2488   22.2510 H   0  0  0  0  0  0
    4.8183   -9.3433   19.8100 H   0  0  0  0  0  0
    6.0149  -11.1426   20.9091 H   0  0  0  0  0  0
    5.7202   -6.8509   23.2403 H   0  0  0  0  0  0
   11.0225   -6.0003   24.1738 H   0  0  0  0  0  0
   10.8476   -4.4540   23.2862 H   0  0  0  0  0  0
   10.0379   -5.9280   22.6903 H   0  0  0  0  0  0
    7.2738  -11.8749   22.8674 H   0  0  0  0  0  0
    7.6099  -10.7597   24.1878 H   0  0  0  0  0  0
    6.1202    0.4207   22.9851 H   0  0  0  0  0  0
    5.5991   -0.4377   24.4513 H   0  0  0  0  0  0
    7.2380    0.1641   24.2881 H   0  0  0  0  0  0
  1  2  1  0  0  0
  1  6  2  0  0  0
  1 26  1  0  0  0
  2  3  2  0  0  0
  2 32  1  0  0  0
  3  4  1  0  0  0
  3 31  1  0  0  0
  4  5  2  0  0  0
  4  7  1  0  0  0
  5  6  1  0  0  0
  5 33  1  0  0  0
  6 34  1  0  0  0
  7  8  2  0  0  0
  7 12  1  0  0  0
  9 10  1  0  0  0
  9 15  1  0  0  0
 10 11  1  0  0  0
 10 35  1  0  0  0
 10 36  1  0  0  0
 11 12  1  0  0  0
 11 37  1  0  0  0
 11 38  1  0  0  0
 12 13  1  0  0  0
 13 14  1  0  0  0
 13 39  1  0  0  0
 13 40  1  0  0  0
 14 15  1  0  0  0
 14 19  2  0  0  0
 15 16  2  0  0  0
 16 17  1  0  0  0
 16 41  1  0  0  0
 17 18  2  0  0  0
 17 42  1  0  0  0
 18 19  1  0  0  0
 18 20  1  0  0  0
 19 43  1  0  0  0
 20 21  2  0  0  0
 20 23  1  0  0  0
 21 22  1  0  0  0
 21 44  1  0  0  0
 22 25  2  0  0  0
 22 45  1  0  0  0
 23 24  2  0  0  0
 23 46  1  0  0  0
 24 25  1  0  0  0
 25 30  1  0  0  0
 26 27  1  0  0  0
 26 28  2  0  0  0
 26 29  2  0  0  0
 27 47  1  0  0  0
 27 48  1  0  0  0
 27 49  1  0  0  0
 30 50  1  0  0  0
 30 51  1  0  0  0
 31 52  1  0  0  0
 31 53  1  0  0  0
 31 54  1  0  0  0
M  END
> <s_m_entry_id>
5962

> <s_m_entry_name>
dock_pv.357

> <s_m_Source_Path>
/home/csk/Desktop/cluster/DUD-E-result/igf1r

> <s_m_Source_File>
dock_pv.maegz

> <i_m_Source_File_Index>
357

> <chembl_id>
CHEMBL2333365

> <chembl_pref_name>
None

> <i_lp_mmshare_version>
53161

> <r_lp_tautomer_probability>
0.999999772200052

> <s_lp_Force_Field>
OPLS_2005

> <r_lp_Energy>
36.522751

> <b_lp_Chiralities_Consistent>
1

> <s_lp_Variant>
CHEMBL1957_lig971-1

> <s_i_glide_gridfile>
glide-grid_2oj9

> <i_i_glide_lignum>
1224

> <i_i_glide_rotatable_bonds>
4

> <r_i_docking_score>
-6.81401129920547

> <r_i_glide_ligand_efficiency>
-0.212937853100171

> <r_i_glide_ligand_efficiency_sa>
-0.676035543249135

> <r_i_glide_ligand_efficiency_ln>
-1.52584287282495

> <r_i_glide_gscore>
-6.81401129920547

> <r_i_glide_lipo>
-4.17247909777624

> <r_i_glide_hbond>
0

> <r_i_glide_metal>
0

> <r_i_glide_rewards>
-0.942740821070685

> <r_i_glide_evdw>
-40.6551933288574

> <r_i_glide_ecoul>
0.758489072322845

> <r_i_glide_erotb>
0.290475756729171

> <r_i_glide_esite>
-0.0702808314932674

> <r_i_glide_emodel>
-48.3533802377561

> <r_i_glide_energy>
-39.8967042565346

> <r_i_glide_einternal>
4.66403770446777

> <i_i_glide_confnum>
9

> <i_i_glide_posenum>
363

> <r_i_glide_eff_state_penalty>
0

> <s_user_duplicate_titles>
CHEMBL1957_lig971

> <i_f3d_flags>
0

> <s_m_subgroup_title>
dock_pv

> <s_m_subgroupid>
dock_pv

> <b_m_subgroup_collapsed>
1

$$$$
CHEMBL1957_lig1310
                    3D
 Schrodinger Suite 2021-1.
 42 45  0  0  1  0            999 V2000
    6.3987   -8.7990   21.8380 C   0  0  0  0  0  0
    7.6677   -8.7837   22.4218 C   0  0  0  0  0  0
    8.3090   -7.6301   22.7426 N   0  0  0  0  0  0
    7.6448   -6.4741   22.4925 C   0  0  0  0  0  0
    6.4141   -6.3961   21.9267 N   0  0  0  0  0  0
    5.7968   -7.5585   21.5877 C   0  0  0  0  0  0
    4.5676   -7.5078   20.9145 N   0  0  0  0  0  0
    8.2833   -5.3005   22.9102 N   0  0  0  0  0  0
    4.0380   -6.4013   20.3022 C   0  0  0  0  0  0
    3.9133   -5.0667   20.6380 C   0  0  0  0  0  0
    3.3027   -4.4250   19.5459 C   0  0  0  0  0  0
    3.1046   -5.2803   18.5687 N   0  0  0  0  0  0
    3.5339   -6.4540   19.0380 N   0  0  0  0  0  0
    2.9190   -2.9699   19.3628 C   0  0  0  0  0  0
    2.8636   -2.0603   20.5677 C   0  0  0  0  0  0
    3.9420   -1.8736   19.5175 C   0  0  0  0  0  0
    5.5702  -10.4541   21.3725 Br  0  0  0  0  0  0
    7.7663   -4.0085   23.0981 C   0  0  0  0  0  0
    8.1623   -3.3139   24.2380 C   0  0  0  0  0  0
    7.6380   -2.0540   24.5092 C   0  0  0  0  0  0
    6.7075   -1.4683   23.6395 C   0  0  0  0  0  0
    6.3446   -2.1520   22.4813 C   0  0  0  0  0  0
    6.8751   -3.4097   22.2016 C   0  0  0  0  0  0
    6.1160   -0.2345   23.8391 O   0  0  0  0  0  0
    6.4648    0.5267   24.9913 C   0  0  0  0  0  0
    8.1941   -9.7038   22.6311 H   0  0  0  0  0  0
    4.2221   -8.4293   20.6908 H   0  0  0  0  0  0
    9.1863   -5.4650   23.3301 H   0  0  0  0  0  0
    4.2437   -4.6087   21.5556 H   0  0  0  0  0  0
    3.5842   -7.2764   18.4482 H   0  0  0  0  0  0
    2.1843   -2.8016   18.5737 H   0  0  0  0  0  0
    2.0378   -1.3557   20.6380 H   0  0  0  0  0  0
    3.1436   -2.4540   21.5448 H   0  0  0  0  0  0
    4.9709   -2.1718   19.7176 H   0  0  0  0  0  0
    3.8877   -1.0198   18.8410 H   0  0  0  0  0  0
    8.8663   -3.7546   24.9293 H   0  0  0  0  0  0
    7.9686   -1.5494   25.4027 H   0  0  0  0  0  0
    5.6456   -1.6966   21.7988 H   0  0  0  0  0  0
    6.5861   -3.9127   21.2913 H   0  0  0  0  0  0
    5.8687    1.4385   25.0138 H   0  0  0  0  0  0
    7.5130    0.8253   24.9714 H   0  0  0  0  0  0
    6.2623   -0.0179   25.9146 H   0  0  0  0  0  0
  1  2  2  0  0  0
  1  6  1  0  0  0
  1 17  1  0  0  0
  2  3  1  0  0  0
  2 26  1  0  0  0
  3  4  2  0  0  0
  4  5  1  0  0  0
  4  8  1  0  0  0
  5  6  2  0  0  0
  6  7  1  0  0  0
  7  9  1  0  0  0
  7 27  1  0  0  0
  8 18  1  0  0  0
  8 28  1  0  0  0
  9 10  2  0  0  0
  9 13  1  0  0  0
 10 11  1  0  0  0
 10 29  1  0  0  0
 11 12  2  0  0  0
 11 14  1  0  0  0
 12 13  1  0  0  0
 13 30  1  0  0  0
 14 15  1  0  0  0
 14 16  1  0  0  0
 14 31  1  0  0  0
 15 16  1  0  0  0
 15 32  1  0  0  0
 15 33  1  0  0  0
 16 34  1  0  0  0
 16 35  1  0  0  0
 18 19  2  0  0  0
 18 23  1  0  0  0
 19 20  1  0  0  0
 19 36  1  0  0  0
 20 21  2  0  0  0
 20 37  1  0  0  0
 21 22  1  0  0  0
 21 24  1  0  0  0
 22 23  2  0  0  0
 22 38  1  0  0  0
 23 39  1  0  0  0
 24 25  1  0  0  0
 25 40  1  0  0  0
 25 41  1  0  0  0
 25 42  1  0  0  0
M  END
> <s_m_entry_id>
5963

> <s_m_entry_name>
dock_pv.358

> <s_m_Source_Path>
/home/csk/Desktop/cluster/DUD-E-result/igf1r

> <s_m_Source_File>
dock_pv.maegz

> <i_m_Source_File_Index>
358

> <chembl_id>
CHEMBL3918853

> <chembl_pref_name>
None

> <i_lp_mmshare_version>
53161

> <r_lp_tautomer_probability>
0.157399990546105

> <s_lp_Force_Field>
OPLS_2005

> <r_lp_Energy>
11.042903

> <b_lp_Chiralities_Consistent>
1

> <s_lp_Variant>
CHEMBL1957_lig1310-2

> <s_i_glide_gridfile>
glide-grid_2oj9

> <i_i_glide_lignum>
1756

> <i_i_glide_rotatable_bonds>
6

> <r_i_docking_score>
-6.81386153159442

> <r_i_glide_ligand_efficiency>
-0.272554461263777

> <r_i_glide_ligand_efficiency_sa>
-0.796954078509236

> <r_i_glide_ligand_efficiency_ln>
-1.61508937794046

> <r_i_glide_gscore>
-6.81386153159442

> <r_i_glide_lipo>
-2.8756643874296

> <r_i_glide_hbond>
-0.323706520310552

> <r_i_glide_metal>
0

> <r_i_glide_rewards>
-1.65393025591513

> <r_i_glide_evdw>
-37.3828773498535

> <r_i_glide_ecoul>
-3.4516327381134

> <r_i_glide_erotb>
0.426328410270553

> <r_i_glide_esite>
0

> <r_i_glide_emodel>
-55.5727419620987

> <r_i_glide_energy>
-40.8345100879669

> <r_i_glide_einternal>
4.26058673858643

> <i_i_glide_confnum>
8

> <i_i_glide_posenum>
375

> <r_i_glide_eff_state_penalty>
0

> <s_user_duplicate_titles>
CHEMBL1957_lig1310

> <i_f3d_flags>
0

> <s_m_subgroup_title>
dock_pv

> <s_m_subgroupid>
dock_pv

> <b_m_subgroup_collapsed>
1

$$$$
CHEMBL1957_lig3286
                    3D
 Schrodinger Suite 2021-1.
 37 40  0  0  1  0            999 V2000
    9.6475   -9.8610   23.6214 N   0  0  0  0  0  0
    9.9416   -9.1769   21.5176 O   0  0  0  0  0  0
    5.6380   -0.8773   20.2725 C   0  0  0  0  0  0
    6.6953   -3.8736   22.1523 C   0  0  0  0  0  0
    4.9255   -0.4541   19.1547 C   0  0  0  0  0  0
    8.4864   -6.5342   22.4720 C   0  0  0  0  0  0
    9.0079   -9.8034   24.9575 C   0  0  0  0  0  0
    9.1471   -8.3886   25.5830 C   0  0  0  0  0  0
    8.9099   -7.7024   23.1377 C   0  0  0  0  0  0
    9.5081   -8.9317   22.6407 C   0  0  0  0  0  0
    7.7848   -3.2250   24.1986 C   0  0  0  0  0  0
    7.2359   -1.9520   24.0367 C   0  0  0  0  0  0
    8.8171   -7.4007   24.4903 C   0  0  0  0  0  0
    7.5021   -4.2111   23.2469 C   0  0  0  0  0  0
    8.0579   -5.5850   23.4058 C   0  0  0  0  0  0
    6.1849   -2.5689   22.0459 C   0  0  0  0  0  0
    5.3697   -2.1145   20.8823 C   0  0  0  0  0  0
    4.3411   -2.9055   20.3440 C   0  0  0  0  0  0
    3.6127   -2.4760   19.2364 C   0  0  0  0  0  0
    3.9096   -1.2539   18.6381 C   0  0  0  0  0  0
    4.0381   -4.1079   20.8824 F   0  0  0  0  0  0
    8.2555   -6.1628   24.6379 N   0  0  0  0  0  0
    6.4477   -1.6196   22.9859 N   0  0  0  0  0  0
   10.2560  -10.6361   23.4058 H   0  0  0  0  0  0
    6.4369   -0.2507   20.6422 H   0  0  0  0  0  0
    6.4790   -4.6082   21.3922 H   0  0  0  0  0  0
    5.1827    0.4859   18.6856 H   0  0  0  0  0  0
    8.4989   -6.3957   21.3998 H   0  0  0  0  0  0
    9.4654  -10.5521   25.6069 H   0  0  0  0  0  0
    7.9548  -10.0740   24.8538 H   0  0  0  0  0  0
   10.1673   -8.2360   25.9340 H   0  0  0  0  0  0
    8.5026   -8.2773   26.4555 H   0  0  0  0  0  0
    8.4311   -3.4321   25.0379 H   0  0  0  0  0  0
    7.4501   -1.1649   24.7447 H   0  0  0  0  0  0
    2.8286   -3.0979   18.8295 H   0  0  0  0  0  0
    3.3510   -0.9318   17.7720 H   0  0  0  0  0  0
    8.0342   -5.7327   25.5314 H   0  0  0  0  0  0
  1 10  1  0  0  0
  1  7  1  0  0  0
  1 24  1  0  0  0
  2 10  2  0  0  0
  3  5  2  0  0  0
  3 17  1  0  0  0
  3 25  1  0  0  0
  4 16  2  0  0  0
  4 14  1  0  0  0
  4 26  1  0  0  0
  5 20  1  0  0  0
  5 27  1  0  0  0
  6 15  2  0  0  0
  6  9  1  0  0  0
  6 28  1  0  0  0
  7  8  1  0  0  0
  7 29  1  0  0  0
  7 30  1  0  0  0
  8 13  1  0  0  0
  8 31  1  0  0  0
  8 32  1  0  0  0
  9 10  1  0  0  0
  9 13  2  0  0  0
 11 12  1  0  0  0
 11 14  2  0  0  0
 11 33  1  0  0  0
 12 23  2  0  0  0
 12 34  1  0  0  0
 13 22  1  0  0  0
 14 15  1  0  0  0
 15 22  1  0  0  0
 16 23  1  0  0  0
 16 17  1  0  0  0
 17 18  2  0  0  0
 18 19  1  0  0  0
 18 21  1  0  0  0
 19 20  2  0  0  0
 19 35  1  0  0  0
 20 36  1  0  0  0
 22 37  1  0  0  0
M  END
> <s_m_entry_id>
5964

> <s_m_entry_name>
dock_pv.359

> <s_m_Source_Path>
/home/csk/Desktop/cluster/DUD-E-result/igf1r

> <s_m_Source_File>
dock_pv.maegz

> <i_m_Source_File_Index>
359

> <chembl_id>
CHEMBL226471

> <chembl_pref_name>
None

> <i_lp_mmshare_version>
53161

> <r_lp_tautomer_probability>
1

> <s_lp_Force_Field>
OPLS_2005

> <r_lp_Energy>
23.695039

> <b_lp_Chiralities_Consistent>
1

> <s_lp_Variant>
CHEMBL1957_lig3286-1

> <s_i_glide_gridfile>
glide-grid_2oj9

> <i_i_glide_lignum>
4612

> <i_i_glide_rotatable_bonds>
2

> <r_i_docking_score>
-6.81337637619352

> <r_i_glide_ligand_efficiency>
-0.296233755486675

> <r_i_glide_ligand_efficiency_sa>
-0.842449394665478

> <r_i_glide_ligand_efficiency_ln>
-1.64753618804487

> <r_i_glide_gscore>
-6.81337637619352

> <r_i_glide_lipo>
-2.33177971322733

> <r_i_glide_hbond>
-0.543366648632056

> <r_i_glide_metal>
0

> <r_i_glide_rewards>
-1.78807957186529

> <r_i_glide_evdw>
-35.4623527526855

> <r_i_glide_ecoul>
-4.58297300338745

> <r_i_glide_erotb>
0.39144017526002

> <r_i_glide_esite>
-0.0810270295864676

> <r_i_glide_emodel>
-55.3632655828505

> <r_i_glide_energy>
-40.045325756073

> <r_i_glide_einternal>
0.740997314453125

> <i_i_glide_confnum>
2

> <i_i_glide_posenum>
362

> <r_i_glide_eff_state_penalty>
0

> <s_user_duplicate_titles>
CHEMBL1957_lig3286

> <i_f3d_flags>
0

> <s_m_subgroup_title>
dock_pv

> <s_m_subgroupid>
dock_pv

> <b_m_subgroup_collapsed>
1

$$$$
CHEMBL1957_lig2863
                    3D
 Schrodinger Suite 2021-1.
 34 36  0  0  1  0            999 V2000
    3.6380   -0.8540   18.2272 Cl  0  0  0  0  0  0
    4.0288   -5.1193   20.8424 F   0  0  0  0  0  0
    6.3072   -1.8004   24.3721 O   0  0  0  0  0  0
    6.2325   -5.5698   22.3406 N   0  0  0  0  0  0
    6.4728   -8.4034   22.4287 N   0  0  0  0  0  0
    7.2558  -10.4385   23.4619 N   0  0  0  0  0  0
    8.4380   -2.4540   24.6380 N   0  0  0  0  0  0
    5.9940  -10.4923   21.4898 N   0  0  0  0  0  0
    6.2096   -4.2034   22.4800 C   0  0  0  0  0  0
    6.9599   -3.9303   23.6311 C   0  0  0  0  0  0
    6.9252   -6.1994   23.3389 C   0  0  0  0  0  0
    5.5043   -3.3362   21.4821 C   0  0  0  0  0  0
    7.3881   -5.1708   24.1464 C   0  0  0  0  0  0
    7.0663   -7.6821   23.4226 C   0  0  0  0  0  0
    4.4378   -3.8352   20.7163 C   0  0  0  0  0  0
    7.1869   -2.6481   24.2380 C   0  0  0  0  0  0
    5.9392   -2.0235   21.2532 C   0  0  0  0  0  0
    3.8248   -3.0428   19.7532 C   0  0  0  0  0  0
    7.7666   -8.3001   24.4646 C   0  0  0  0  0  0
    4.2971   -1.7587   19.5166 C   0  0  0  0  0  0
    5.3427   -1.2371   20.2708 C   0  0  0  0  0  0
    6.5948   -9.7510   22.4984 C   0  0  0  0  0  0
    7.8387   -9.6951   24.4387 C   0  0  0  0  0  0
    5.7618   -6.0626   21.5947 H   0  0  0  0  0  0
    9.1530   -3.1245   24.3951 H   0  0  0  0  0  0
    8.7152   -1.5468   25.0012 H   0  0  0  0  0  0
    5.9784  -11.4965   21.5839 H   0  0  0  0  0  0
    5.4221  -10.0179   20.8086 H   0  0  0  0  0  0
    7.9813   -5.3046   25.0380 H   0  0  0  0  0  0
    6.7707   -1.6113   21.8037 H   0  0  0  0  0  0
    3.0281   -3.4481   19.1471 H   0  0  0  0  0  0
    8.2332   -7.7289   25.2541 H   0  0  0  0  0  0
    5.7153   -0.2419   20.0714 H   0  0  0  0  0  0
    8.3667  -10.2383   25.2088 H   0  0  0  0  0  0
  1 20  1  0  0  0
  2 15  1  0  0  0
  3 16  2  0  0  0
  4  9  1  0  0  0
  4 11  1  0  0  0
  4 24  1  0  0  0
  5 14  1  0  0  0
  5 22  2  0  0  0
  6 22  1  0  0  0
  6 23  2  0  0  0
  7 16  1  0  0  0
  7 25  1  0  0  0
  7 26  1  0  0  0
  8 22  1  0  0  0
  8 27  1  0  0  0
  8 28  1  0  0  0
  9 10  2  0  0  0
  9 12  1  0  0  0
 10 13  1  0  0  0
 10 16  1  0  0  0
 11 13  2  0  0  0
 11 14  1  0  0  0
 12 15  1  0  0  0
 12 17  2  0  0  0
 13 29  1  0  0  0
 14 19  2  0  0  0
 15 18  2  0  0  0
 17 21  1  0  0  0
 17 30  1  0  0  0
 18 20  1  0  0  0
 18 31  1  0  0  0
 19 23  1  0  0  0
 19 32  1  0  0  0
 20 21  2  0  0  0
 21 33  1  0  0  0
 23 34  1  0  0  0
M  END
> <s_m_entry_id>
5965

> <s_m_entry_name>
dock_pv.360

> <s_m_Source_Path>
/home/csk/Desktop/cluster/DUD-E-result/igf1r

> <s_m_Source_File>
dock_pv.maegz

> <i_m_Source_File_Index>
360

> <chembl_id>
CHEMBL1981079

> <chembl_pref_name>
None

> <i_lp_mmshare_version>
53161

> <r_lp_tautomer_probability>
0.999999987636

> <s_lp_Force_Field>
OPLS_2005

> <r_lp_Energy>
0.372588

> <b_lp_Chiralities_Consistent>
1

> <s_lp_Variant>
CHEMBL1957_lig2863-1

> <s_i_glide_gridfile>
glide-grid_2oj9

> <i_i_glide_lignum>
3963

> <i_i_glide_rotatable_bonds>
3

> <r_i_docking_score>
-6.81246958997275

> <r_i_glide_ligand_efficiency>
-0.296194329998815

> <r_i_glide_ligand_efficiency_sa>
-0.842337273822508

> <r_i_glide_ligand_efficiency_ln>
-1.64731691891441

> <r_i_glide_gscore>
-6.81246958997275

> <r_i_glide_lipo>
-2.30493382958178

> <r_i_glide_hbond>
-0.321489453049816

> <r_i_glide_metal>
0

> <r_i_glide_rewards>
-1.87002394833229

> <r_i_glide_evdw>
-34.2931327819824

> <r_i_glide_ecoul>
-6.05343103408813

> <r_i_glide_erotb>
0.342132898477473

> <r_i_glide_esite>
-0.0354839632739937

> <r_i_glide_emodel>
-54.8754433151353

> <r_i_glide_energy>
-40.3465638160706

> <r_i_glide_einternal>
1.84260451793671

> <i_i_glide_confnum>
3

> <i_i_glide_posenum>
168

> <r_i_glide_eff_state_penalty>
0

> <s_user_duplicate_titles>
CHEMBL1957_lig2863

> <i_f3d_flags>
0

> <s_m_subgroup_title>
dock_pv

> <s_m_subgroupid>
dock_pv

> <b_m_subgroup_collapsed>
1

$$$$
CHEMBL1957_lig2001
                    3D
 Schrodinger Suite 2021-1.
 61 66  0  0  1  0            999 V2000
    8.2007   -6.2152   21.6581 O   0  0  0  0  0  0
    8.3789   -5.9522   22.8487 C   0  0  0  0  0  0
    8.5334   -6.9123   23.7795 N   0  0  0  0  0  0
    8.6093   -8.3565   23.5595 C   0  0  2  0  0  0
    7.9225   -9.1389   24.6983 C   0  0  0  0  0  0
    8.1685  -10.6522   24.6097 C   0  0  0  0  0  0
    9.6517  -10.9989   24.4067 C   0  0  0  0  0  0
   10.1661  -10.3297   23.2158 N   0  0  1  0  0  0
   10.0390   -8.8717   23.2661 C   0  0  0  0  0  0
    8.4941   -4.4668   23.3028 C   0  0  2  0  0  0
    9.1449   -4.2972   24.6838 C   0  0  0  0  0  0
    8.8516   -2.8538   25.0213 C   0  0  0  0  0  0
    7.5704   -2.5419   24.2383 C   0  0  0  0  0  0
    7.2546   -3.6587   23.3380 N   0  0  0  0  0  0
    6.2248   -3.6000   22.3890 C   0  0  0  0  0  0
    5.6004   -4.7610   22.1093 N   0  0  0  0  0  0
    4.6361   -4.7674   21.1570 C   0  0  0  0  0  0
    4.0389   -5.9890   20.7942 N   0  0  0  0  0  0
    4.5233   -7.2529   21.0521 C   0  0  0  0  0  0
    4.4401   -8.4409   20.3555 C   0  0  0  0  0  0
    5.1818   -9.3976   21.0634 C   0  0  0  0  0  0
    5.6389   -8.8764   22.1773 N   0  0  0  0  0  0
    5.2397   -7.6024   22.1632 N   0  0  0  0  0  0
    5.4483  -10.8444   20.6921 C   0  0  0  0  0  0
    6.8182  -11.4556   20.8607 C   0  0  0  0  0  0
    5.6631  -11.9139   21.7325 C   0  0  0  0  0  0
    4.2937   -3.5910   20.4647 C   0  0  0  0  0  0
    3.4446   -3.1951   19.3949 C   0  0  0  0  0  0
    3.6922   -1.8497   19.1671 C   0  0  0  0  0  0
    4.6529   -1.4020   20.0640 C   0  0  0  0  0  0
    5.0236   -2.4522   20.8659 N   0  0  0  0  0  0
    5.9604   -2.3959   21.8224 N   0  0  0  0  0  0
    8.7643   -6.6079   24.7135 H   0  0  0  0  0  0
    8.0698   -8.5651   22.6371 H   0  0  0  0  0  0
    6.8513   -8.9340   24.7014 H   0  0  0  0  0  0
    8.3293   -8.8038   25.6544 H   0  0  0  0  0  0
    7.5817  -11.0948   23.8083 H   0  0  0  0  0  0
    7.8100  -11.1297   25.5224 H   0  0  0  0  0  0
    9.7747  -12.0768   24.2909 H   0  0  0  0  0  0
   10.2397  -10.6928   25.2752 H   0  0  0  0  0  0
   11.1402  -10.5658   23.0448 H   0  0  0  0  0  0
   10.7189   -8.4992   24.0343 H   0  0  0  0  0  0
   10.4224   -8.4543   22.3336 H   0  0  0  0  0  0
    9.1695   -4.0489   22.5528 H   0  0  0  0  0  0
    8.6992   -4.9462   25.4390 H   0  0  0  0  0  0
   10.2131   -4.5028   24.6378 H   0  0  0  0  0  0
    8.8380   -2.6745   26.0952 H   0  0  0  0  0  0
    9.6383   -2.2197   24.6392 H   0  0  0  0  0  0
    6.7226   -2.3005   24.8831 H   0  0  0  0  0  0
    7.7388   -1.6426   23.6413 H   0  0  0  0  0  0
    3.3336   -5.8696   20.0842 H   0  0  0  0  0  0
    3.9144   -8.6038   19.4356 H   0  0  0  0  0  0
    5.5107   -6.9420   22.8801 H   0  0  0  0  0  0
    4.8657  -11.1771   19.8380 H   0  0  0  0  0  0
    7.1899  -12.1127   20.0759 H   0  0  0  0  0  0
    7.6116  -10.8517   21.3022 H   0  0  0  0  0  0
    5.6400  -11.6316   22.7822 H   0  0  0  0  0  0
    5.2215  -12.8967   21.5652 H   0  0  0  0  0  0
    2.7782   -3.8070   18.8076 H   0  0  0  0  0  0
    3.2392   -1.2544   18.3882 H   0  0  0  0  0  0
    5.1196   -0.4338   20.1633 H   0  0  0  0  0  0
  1  2  2  0  0  0
  2  3  1  0  0  0
  2 10  1  0  0  0
  3  4  1  0  0  0
  3 33  1  0  0  0
  4  5  1  0  0  0
  4  9  1  0  0  0
  4 34  1  0  0  0
  5  6  1  0  0  0
  5 35  1  0  0  0
  5 36  1  0  0  0
  6  7  1  0  0  0
  6 37  1  0  0  0
  6 38  1  0  0  0
  7  8  1  0  0  0
  7 39  1  0  0  0
  7 40  1  0  0  0
  8  9  1  0  0  0
  8 41  1  0  0  0
  9 42  1  0  0  0
  9 43  1  0  0  0
 10 11  1  0  0  0
 10 14  1  0  0  0
 10 44  1  0  0  0
 11 12  1  0  0  0
 11 45  1  0  0  0
 11 46  1  0  0  0
 12 13  1  0  0  0
 12 47  1  0  0  0
 12 48  1  0  0  0
 13 14  1  0  0  0
 13 49  1  0  0  0
 13 50  1  0  0  0
 14 15  1  0  0  0
 15 16  1  0  0  0
 15 32  2  0  0  0
 16 17  2  0  0  0
 17 27  1  0  0  0
 17 18  1  0  0  0
 18 19  1  0  0  0
 18 51  1  0  0  0
 19 23  1  0  0  0
 19 20  2  0  0  0
 20 21  1  0  0  0
 20 52  1  0  0  0
 21 24  1  0  0  0
 21 22  2  0  0  0
 22 23  1  0  0  0
 23 53  1  0  0  0
 24 25  1  0  0  0
 24 26  1  0  0  0
 24 54  1  0  0  0
 25 26  1  0  0  0
 25 55  1  0  0  0
 25 56  1  0  0  0
 26 57  1  0  0  0
 26 58  1  0  0  0
 27 28  2  0  0  0
 27 31  1  0  0  0
 28 29  1  0  0  0
 28 59  1  0  0  0
 29 30  2  0  0  0
 29 60  1  0  0  0
 30 31  1  0  0  0
 30 61  1  0  0  0
 31 32  1  0  0  0
M  END
> <s_m_entry_id>
5966

> <s_m_entry_name>
dock_pv.361

> <s_m_Source_Path>
/home/csk/Desktop/cluster/DUD-E-result/igf1r

> <s_m_Source_File>
dock_pv.maegz

> <i_m_Source_File_Index>
361

> <chembl_id>
CHEMBL3655728

> <chembl_pref_name>
None

> <i_lp_mmshare_version>
53161

> <r_lp_tautomer_probability>
0.157399999843308

> <s_lp_Force_Field>
OPLS_2005

> <r_lp_Energy>
57.394574

> <b_lp_Chiralities_Consistent>
1

> <s_lp_Variant>
CHEMBL1957_lig2001-3

> <s_i_glide_gridfile>
glide-grid_2oj9

> <i_i_glide_lignum>
2911

> <i_i_glide_rotatable_bonds>
7

> <r_i_docking_score>
-6.81107178430675

> <r_i_glide_ligand_efficiency>
-0.212845993259586

> <r_i_glide_ligand_efficiency_sa>
-0.675743906434316

> <r_i_glide_ligand_efficiency_ln>
-1.52518463531098

> <r_i_glide_gscore>
-6.81107178430675

> <r_i_glide_lipo>
-2.84429383635868

> <r_i_glide_hbond>
-0.270930160220712

> <r_i_glide_metal>
0

> <r_i_glide_rewards>
-1.18246593646173

> <r_i_glide_evdw>
-45.4968376159668

> <r_i_glide_ecoul>
-6.47487783432007

> <r_i_glide_erotb>
0.735310274034432

> <r_i_glide_esite>
-0.00261856935370926

> <r_i_glide_emodel>
-58.2854838014468

> <r_i_glide_energy>
-51.9717154502869

> <r_i_glide_einternal>
20.474437713623

> <i_i_glide_confnum>
27

> <i_i_glide_posenum>
151

> <r_i_glide_eff_state_penalty>
0

> <s_user_duplicate_titles>
CHEMBL1957_lig2001

> <i_f3d_flags>
0

> <s_m_subgroup_title>
dock_pv

> <s_m_subgroupid>
dock_pv

> <b_m_subgroup_collapsed>
1

$$$$
CHEMBL1957_lig82
                    3D
 Schrodinger Suite 2021-1.
 59 63  0  0  1  0            999 V2000
    5.8118   -2.8888   22.6629 C   0  0  0  0  0  0
    4.8315   -2.9628   21.6592 C   0  0  0  0  0  0
    4.4709   -4.1653   21.0392 C   0  0  0  0  0  0
    6.4733   -4.0507   23.0899 C   0  0  0  0  0  0
    3.4115   -4.1517   19.9510 C   0  0  0  0  0  0
    6.0787   -5.2528   22.5113 C   0  0  0  0  0  0
    5.1037   -5.3375   21.4972 C   0  0  0  0  0  0
    4.9348   -6.6449   21.1092 N   0  0  0  0  0  0
    5.7759   -7.3622   21.8298 C   0  0  0  0  0  0
    6.0212   -8.8313   21.7065 C   0  0  0  0  0  0
    6.9478   -9.5009   22.4795 C   0  0  0  0  0  0
    7.0977  -10.9416   22.3247 C   0  0  0  0  0  0
    6.3133  -11.5710   21.4373 C   0  0  0  0  0  0
    5.2382   -9.5761   20.6873 C   0  0  0  0  0  0
    4.4958   -9.1018   19.8369 O   0  0  0  0  0  0
    6.0765   -1.6245   23.3881 C   0  0  0  0  0  0
    6.3380   -1.6073   24.6376 N   0  0  0  0  0  0
    6.4917   -0.2422   25.0710 C   0  0  0  0  0  0
    6.3395    0.6316   23.8376 C   0  0  0  0  0  0
    6.0393   -0.3558   22.8270 N   0  0  0  0  0  0
    7.6878   -8.9305   23.4922 N   0  0  0  0  0  0
    8.9445   -8.1942   23.3156 C   0  0  0  0  0  0
   10.2245   -8.9752   23.7114 C   0  0  1  0  0  0
   10.2803   -9.4970   25.1553 C   0  0  0  0  0  0
   10.4362   -9.9872   22.7417 O   0  0  0  0  0  0
    9.4267   -9.0091   26.1615 C   0  0  0  0  0  0
    9.5171   -9.4934   27.4673 C   0  0  0  0  0  0
   10.4766  -10.4538   27.7917 C   0  0  0  0  0  0
   11.3552  -10.9139   26.8130 C   0  0  0  0  0  0
   11.2524  -10.4436   25.5041 C   0  0  0  0  0  0
   12.5873  -12.0470   27.2251 Cl  0  0  0  0  0  0
    6.0079    0.0275   21.4174 C   0  0  0  0  0  0
    6.4465   -6.5540   22.7134 N   0  0  0  0  0  0
    5.4140  -10.9199   20.6533 N   0  0  0  0  0  0
    4.2799   -2.0841   21.3768 H   0  0  0  0  0  0
    7.2159   -4.0288   23.8764 H   0  0  0  0  0  0
    2.7274   -3.3100   20.0698 H   0  0  0  0  0  0
    3.8756   -4.0798   18.9659 H   0  0  0  0  0  0
    2.8184   -5.0662   19.9853 H   0  0  0  0  0  0
    7.8297  -11.4867   22.9023 H   0  0  0  0  0  0
    6.3605  -12.6308   21.2239 H   0  0  0  0  0  0
    5.7117   -0.0502   25.8105 H   0  0  0  0  0  0
    7.4801   -0.1489   25.5219 H   0  0  0  0  0  0
    7.2352    1.2273   23.6563 H   0  0  0  0  0  0
    5.5434    1.3560   23.9862 H   0  0  0  0  0  0
    7.7953   -9.5398   24.2871 H   0  0  0  0  0  0
    8.8931   -7.2854   23.9132 H   0  0  0  0  0  0
    9.0312   -7.8508   22.2822 H   0  0  0  0  0  0
   11.0654   -8.2840   23.6448 H   0  0  0  0  0  0
   11.3943  -10.1163   22.6380 H   0  0  0  0  0  0
    8.6792   -8.2560   25.9508 H   0  0  0  0  0  0
    8.8520   -9.1149   28.2281 H   0  0  0  0  0  0
   10.5553  -10.8194   28.8054 H   0  0  0  0  0  0
   11.9512  -10.8018   24.7607 H   0  0  0  0  0  0
    6.8382   -0.4199   20.8767 H   0  0  0  0  0  0
    5.0980   -0.2827   20.9127 H   0  0  0  0  0  0
    6.0491    1.1098   21.2980 H   0  0  0  0  0  0
    7.1168   -6.9436   23.3630 H   0  0  0  0  0  0
    4.9074  -11.3818   19.9116 H   0  0  0  0  0  0
  1  4  1  0  0  0
  1 16  1  0  0  0
  1  2  2  0  0  0
  2  3  1  0  0  0
  2 35  1  0  0  0
  3  7  2  0  0  0
  3  5  1  0  0  0
  4  6  2  0  0  0
  4 36  1  0  0  0
  5 37  1  0  0  0
  5 38  1  0  0  0
  5 39  1  0  0  0
  6  7  1  0  0  0
  6 33  1  0  0  0
  7  8  1  0  0  0
  8  9  2  0  0  0
  9 10  1  0  0  0
  9 33  1  0  0  0
 10 11  2  0  0  0
 10 14  1  0  0  0
 11 12  1  0  0  0
 11 21  1  0  0  0
 12 13  2  0  0  0
 12 40  1  0  0  0
 13 34  1  0  0  0
 13 41  1  0  0  0
 14 15  2  0  0  0
 14 34  1  0  0  0
 16 17  2  0  0  0
 16 20  1  0  0  0
 17 18  1  0  0  0
 18 19  1  0  0  0
 18 42  1  0  0  0
 18 43  1  0  0  0
 19 20  1  0  0  0
 19 44  1  0  0  0
 19 45  1  0  0  0
 20 32  1  0  0  0
 21 22  1  0  0  0
 21 46  1  0  0  0
 22 23  1  0  0  0
 22 47  1  0  0  0
 22 48  1  0  0  0
 23 24  1  0  0  0
 23 25  1  0  0  0
 23 49  1  0  0  0
 24 26  2  0  0  0
 24 30  1  0  0  0
 25 50  1  0  0  0
 26 27  1  0  0  0
 26 51  1  0  0  0
 27 28  2  0  0  0
 27 52  1  0  0  0
 28 29  1  0  0  0
 28 53  1  0  0  0
 29 30  2  0  0  0
 29 31  1  0  0  0
 30 54  1  0  0  0
 32 55  1  0  0  0
 32 56  1  0  0  0
 32 57  1  0  0  0
 33 58  1  0  0  0
 34 59  1  0  0  0
M  END
> <s_m_entry_id>
5967

> <s_m_entry_name>
dock_pv.362

> <s_m_Source_Path>
/home/csk/Desktop/cluster/DUD-E-result/igf1r

> <s_m_Source_File>
dock_pv.maegz

> <i_m_Source_File_Index>
362

> <chembl_id>
CHEMBL387611

> <chembl_pref_name>
None

> <i_lp_mmshare_version>
53161

> <r_lp_tautomer_probability>
0.999206294975094

> <s_lp_Force_Field>
OPLS_2005

> <r_lp_Energy>
52.291418

> <b_lp_Chiralities_Consistent>
1

> <s_lp_Variant>
CHEMBL1957_lig82-2

> <s_i_glide_gridfile>
glide-grid_2oj9

> <i_i_glide_lignum>
240

> <i_i_glide_rotatable_bonds>
7

> <r_i_docking_score>
-6.81090213522322

> <r_i_glide_ligand_efficiency>
-0.200320651035977

> <r_i_glide_ligand_efficiency_sa>
-0.648961144372917

> <r_i_glide_ligand_efficiency_ln>
-1.50471932100477

> <r_i_glide_gscore>
-6.81090213522322

> <r_i_glide_lipo>
-2.40127109871379

> <r_i_glide_hbond>
-0.513674365109367

> <r_i_glide_metal>
0

> <r_i_glide_rewards>
-0.878019107549934

> <r_i_glide_evdw>
-44.3810729980469

> <r_i_glide_ecoul>
-8.2397928237915

> <r_i_glide_erotb>
0.445156019636366

> <r_i_glide_esite>
-0.0080710100154257

> <r_i_glide_emodel>
-65.101471081967

> <r_i_glide_energy>
-52.6208658218384

> <r_i_glide_einternal>
7.32604169845581

> <i_i_glide_confnum>
11

> <i_i_glide_posenum>
217

> <r_i_glide_eff_state_penalty>
0

> <s_user_duplicate_titles>
CHEMBL1957_lig82

> <i_f3d_flags>
0

> <s_m_subgroup_title>
dock_pv

> <s_m_subgroupid>
dock_pv

> <b_m_subgroup_collapsed>
1

$$$$
CHEMBL1957_lig2954
                    3D
 Schrodinger Suite 2021-1.
 25 28  0  0  1  0            999 V2000
    4.6218   -5.8251   21.4387 O   0  0  0  0  0  0
    6.0378   -0.4657   21.2461 N   0  0  0  0  0  0
    5.2864   -0.1297   20.2379 N   0  0  0  0  0  0
    4.9112   -2.2861   20.6594 C   0  0  0  0  0  0
    5.8441   -1.8231   21.5290 C   0  0  0  0  0  0
    4.4375   -3.5932   20.5786 C   0  0  0  0  0  0
    6.4407   -2.7076   22.4616 C   0  0  0  0  0  0
    6.0261   -4.0894   22.4400 C   0  0  0  0  0  0
    4.5737   -1.2552   19.8357 C   0  0  0  0  0  0
    5.0166   -4.5103   21.4961 C   0  0  0  0  0  0
    3.4910   -3.8356   19.5393 C   0  0  0  0  0  0
    3.6724   -1.5021   18.7998 C   0  0  0  0  0  0
    7.4308   -2.2906   23.3838 C   0  0  0  0  0  0
    6.6449   -4.9869   23.3574 C   0  0  0  0  0  0
    3.1357   -2.7941   18.6570 C   0  0  0  0  0  0
    8.0277   -3.2103   24.2381 C   0  0  0  0  0  0
    7.6318   -4.5424   24.2329 C   0  0  0  0  0  0
    5.0764   -6.3721   22.0819 H   0  0  0  0  0  0
    3.0891   -4.8299   19.4084 H   0  0  0  0  0  0
    3.3940   -0.7235   18.1060 H   0  0  0  0  0  0
    7.7304   -1.2543   23.4154 H   0  0  0  0  0  0
    6.3603   -6.0284   23.3786 H   0  0  0  0  0  0
    2.4478   -2.9880   17.8429 H   0  0  0  0  0  0
    8.7997   -2.8845   24.9206 H   0  0  0  0  0  0
    8.0954   -5.2387   24.9175 H   0  0  0  0  0  0
  1 10  1  0  0  0
  1 18  1  0  0  0
  2  3  2  0  0  0
  2  5  1  0  0  0
  3  9  1  0  0  0
  4  5  2  0  0  0
  4  6  1  0  0  0
  4  9  1  0  0  0
  5  7  1  0  0  0
  6 10  2  0  0  0
  6 11  1  0  0  0
  7  8  1  0  0  0
  7 13  2  0  0  0
  8 10  1  0  0  0
  8 14  2  0  0  0
  9 12  2  0  0  0
 11 15  2  0  0  0
 11 19  1  0  0  0
 12 15  1  0  0  0
 12 20  1  0  0  0
 13 16  1  0  0  0
 13 21  1  0  0  0
 14 17  1  0  0  0
 14 22  1  0  0  0
 15 23  1  0  0  0
 16 17  2  0  0  0
 16 24  1  0  0  0
 17 25  1  0  0  0
M  END
> <s_m_entry_id>
5968

> <s_m_entry_name>
dock_pv.363

> <s_m_Source_Path>
/home/csk/Desktop/cluster/DUD-E-result/igf1r

> <s_m_Source_File>
dock_pv.maegz

> <i_m_Source_File_Index>
363

> <chembl_id>
CHEMBL1725279

> <chembl_pref_name>
SP-600125

> <i_lp_mmshare_version>
53161

> <r_lp_tautomer_probability>
1

> <s_lp_Force_Field>
OPLS_2005

> <r_lp_Energy>
47.074234

> <b_lp_Chiralities_Consistent>
1

> <s_lp_Variant>
CHEMBL1957_lig2954-1

> <s_i_glide_gridfile>
glide-grid_2oj9

> <i_i_glide_lignum>
4088

> <i_i_glide_rotatable_bonds>
1

> <r_i_docking_score>
-6.80829943973547

> <r_i_glide_ligand_efficiency>
-0.400488202337381

> <r_i_glide_ligand_efficiency_sa>
-1.0297679409734

> <r_i_glide_ligand_efficiency_ln>
-1.77613371045273

> <r_i_glide_gscore>
-6.80829943973547

> <r_i_glide_lipo>
-2.77729760145408

> <r_i_glide_hbond>
0

> <r_i_glide_metal>
0

> <r_i_glide_rewards>
-2.29921584848485

> <r_i_glide_evdw>
-28.3392601013184

> <r_i_glide_ecoul>
-2.00005483627319

> <r_i_glide_erotb>
0

> <r_i_glide_esite>
-0.0148147592896467

> <r_i_glide_emodel>
-42.9728817744588

> <r_i_glide_energy>
-30.3393149375916

> <r_i_glide_einternal>
0.00107818632386625

> <i_i_glide_confnum>
1

> <i_i_glide_posenum>
172

> <r_i_glide_eff_state_penalty>
0

> <s_user_duplicate_titles>
CHEMBL1957_lig2954

> <i_f3d_flags>
0

> <s_m_subgroup_title>
dock_pv

> <s_m_subgroupid>
dock_pv

> <b_m_subgroup_collapsed>
1

$$$$
CHEMBL1957_lig850
                    3D
 Schrodinger Suite 2021-1.
 52 56  0  0  1  0            999 V2000
    7.0629   -8.2497   23.7265 C   0  0  0  0  0  0
    6.7393   -9.0650   22.6357 C   0  0  0  0  0  0
    5.7031   -8.7283   21.7461 C   0  0  0  0  0  0
    5.0222   -7.5129   21.9258 C   0  0  0  0  0  0
    5.2453   -6.7743   23.0920 C   0  0  0  0  0  0
    6.2553   -7.1375   23.9801 C   0  0  0  0  0  0
    5.3502   -9.5217   20.6665 O   0  0  0  0  0  0
    5.8541  -10.8515   20.6006 C   0  0  0  0  0  0
    4.1446   -7.0687   20.9150 N   0  0  0  0  0  0
    3.8808   -5.7816   20.4208 C   0  0  0  0  0  0
    3.2380   -5.7133   19.2281 N   0  0  0  0  0  0
    3.1583   -4.4857   18.6487 C   0  0  0  0  0  0
    3.7020   -3.3339   19.2212 C   0  0  0  0  0  0
    4.4123   -3.4972   20.4287 C   0  0  0  0  0  0
    4.4381   -4.7121   21.0385 N   0  0  0  0  0  0
    5.2595   -2.4569   21.1217 C   0  0  0  0  0  0
    5.3872   -1.0824   20.8983 C   0  0  0  0  0  0
    6.0380   -0.4334   21.8366 N   0  0  0  0  0  0
    6.1599   -2.6805   22.1609 N   0  0  0  0  0  0
    6.4845   -1.4062   22.6569 C   0  0  0  0  0  0
    7.2380   -1.3001   23.8380 C   0  0  0  0  0  0
    7.7863   -2.4543   24.3931 C   0  0  0  0  0  0
    7.5385   -3.7027   23.8361 C   0  0  0  0  0  0
    6.7119   -3.8089   22.7230 C   0  0  0  0  0  0
    3.5509   -1.8370   18.3703 Cl  0  0  0  0  0  0
    8.1657   -8.5088   24.5343 N   0  0  0  0  0  0
    9.3054   -9.3187   24.0670 C   0  0  0  0  0  0
   10.5935   -9.0586   24.8816 C   0  0  0  0  0  0
   10.3446   -9.2503   26.2704 O   0  0  0  0  0  0
    9.3214   -8.3893   26.7521 C   0  0  0  0  0  0
    8.0073   -8.6646   25.9874 C   0  0  0  0  0  0
    7.3228   -9.9566   22.4706 H   0  0  0  0  0  0
    4.6713   -5.8827   23.2972 H   0  0  0  0  0  0
    6.4497   -6.5075   24.8367 H   0  0  0  0  0  0
    5.3120  -11.4039   19.8397 H   0  0  0  0  0  0
    6.9112  -10.8621   20.3324 H   0  0  0  0  0  0
    5.7121  -11.3895   21.5386 H   0  0  0  0  0  0
    3.9049   -7.7960   20.2556 H   0  0  0  0  0  0
    2.6352   -4.4309   17.7032 H   0  0  0  0  0  0
    4.9086   -0.5136   20.1160 H   0  0  0  0  0  0
    7.4889   -0.3304   24.2397 H   0  0  0  0  0  0
    8.4410   -2.3735   25.2503 H   0  0  0  0  0  0
    7.9989   -4.5830   24.2649 H   0  0  0  0  0  0
    6.5358   -4.7480   22.2334 H   0  0  0  0  0  0
    9.5170   -9.0657   23.0264 H   0  0  0  0  0  0
    9.0435  -10.3778   24.0899 H   0  0  0  0  0  0
   11.3778   -9.7485   24.5686 H   0  0  0  0  0  0
   10.9769   -8.0531   24.6938 H   0  0  0  0  0  0
    9.1805   -8.5711   27.8184 H   0  0  0  0  0  0
    9.6256   -7.3447   26.6537 H   0  0  0  0  0  0
    7.6410   -9.6684   26.2078 H   0  0  0  0  0  0
    7.2476   -7.9756   26.3474 H   0  0  0  0  0  0
  1  6  1  0  0  0
  1  2  2  0  0  0
  1 26  1  0  0  0
  2  3  1  0  0  0
  2 32  1  0  0  0
  3  7  1  0  0  0
  3  4  2  0  0  0
  4  9  1  0  0  0
  4  5  1  0  0  0
  5  6  2  0  0  0
  5 33  1  0  0  0
  6 34  1  0  0  0
  7  8  1  0  0  0
  8 35  1  0  0  0
  8 36  1  0  0  0
  8 37  1  0  0  0
  9 10  1  0  0  0
  9 38  1  0  0  0
 10 15  1  0  0  0
 10 11  2  0  0  0
 11 12  1  0  0  0
 12 13  2  0  0  0
 12 39  1  0  0  0
 13 25  1  0  0  0
 13 14  1  0  0  0
 14 16  1  0  0  0
 14 15  2  0  0  0
 16 17  2  0  0  0
 16 19  1  0  0  0
 17 18  1  0  0  0
 17 40  1  0  0  0
 18 20  2  0  0  0
 19 20  1  0  0  0
 19 24  1  0  0  0
 20 21  1  0  0  0
 21 22  2  0  0  0
 21 41  1  0  0  0
 22 23  1  0  0  0
 22 42  1  0  0  0
 23 24  2  0  0  0
 23 43  1  0  0  0
 24 44  1  0  0  0
 26 27  1  0  0  0
 26 31  1  0  0  0
 27 28  1  0  0  0
 27 45  1  0  0  0
 27 46  1  0  0  0
 28 29  1  0  0  0
 28 47  1  0  0  0
 28 48  1  0  0  0
 29 30  1  0  0  0
 30 31  1  0  0  0
 30 49  1  0  0  0
 30 50  1  0  0  0
 31 51  1  0  0  0
 31 52  1  0  0  0
M  END
> <s_m_entry_id>
5969

> <s_m_entry_name>
dock_pv.364

> <s_m_Source_Path>
/home/csk/Desktop/cluster/DUD-E-result/igf1r

> <s_m_Source_File>
dock_pv.maegz

> <i_m_Source_File_Index>
364

> <chembl_id>
CHEMBL1809053

> <chembl_pref_name>
None

> <i_lp_mmshare_version>
53161

> <r_lp_tautomer_probability>
0.999999987636

> <s_lp_Force_Field>
OPLS_2005

> <r_lp_Energy>
30.92134

> <b_lp_Chiralities_Consistent>
1

> <s_lp_Variant>
CHEMBL1957_lig850-1

> <s_i_glide_gridfile>
glide-grid_2oj9

> <i_i_glide_lignum>
1081

> <i_i_glide_rotatable_bonds>
5

> <r_i_docking_score>
-6.80819697880077

> <r_i_glide_ligand_efficiency>
-0.21961925738067

> <r_i_glide_ligand_efficiency_sa>
-0.689907685238491

> <r_i_glide_ligand_efficiency_ln>
-1.53545706489952

> <r_i_glide_gscore>
-6.80819697880077

> <r_i_glide_lipo>
-3.33450022061621

> <r_i_glide_hbond>
0

> <r_i_glide_metal>
0

> <r_i_glide_rewards>
-1.37313807592175

> <r_i_glide_evdw>
-41.094066619873

> <r_i_glide_ecoul>
-3.09099268913269

> <r_i_glide_erotb>
0.417793552100744

> <r_i_glide_esite>
0

> <r_i_glide_emodel>
-57.237633368954

> <r_i_glide_energy>
-44.1850593090057

> <r_i_glide_einternal>
4.11459493637085

> <i_i_glide_confnum>
2

> <i_i_glide_posenum>
11

> <r_i_glide_eff_state_penalty>
0

> <s_user_duplicate_titles>
CHEMBL1957_lig850

> <i_f3d_flags>
0

> <s_m_subgroup_title>
dock_pv

> <s_m_subgroupid>
dock_pv

> <b_m_subgroup_collapsed>
1

$$$$
CHEMBL1957_lig828
                    3D
 Schrodinger Suite 2021-1.
 56 59  0  0  1  0            999 V2000
    6.4405  -10.8621   22.5567 C   0  0  0  0  0  0
    5.7568  -11.4946   21.5255 C   0  0  0  0  0  0
    5.0085  -10.7287   20.6373 C   0  0  0  0  0  0
    6.3926   -9.4790   22.7329 C   0  0  0  0  0  0
    5.6295   -8.6681   21.8279 C   0  0  0  0  0  0
    4.9493   -9.3243   20.7582 C   0  0  0  0  0  0
    4.2299   -8.6427   19.8384 N   0  0  0  0  0  0
    4.1103   -7.3040   19.9575 C   0  0  0  0  0  0
    4.6559   -6.5429   20.9917 C   0  0  0  0  0  0
    5.4559   -7.2455   21.9225 C   0  0  0  0  0  0
    4.4412   -5.1565   21.0394 N   0  0  0  0  0  0
    3.4145   -4.4081   20.2757 C   0  0  0  0  0  0
    3.8638   -3.0600   19.6506 C   0  0  0  0  0  0
    4.6759   -2.2798   20.6021 N   0  0  0  0  0  0
    4.8327   -2.7877   21.9796 C   0  0  0  0  0  0
    5.2261   -4.2850   21.9250 C   0  0  0  0  0  0
    7.0975   -8.9802   23.8317 N   0  0  0  0  0  0
    5.8329  -13.0145   21.4000 C   0  0  0  0  0  0
    5.3999  -13.5796   22.5263 F   0  0  0  0  0  0
    5.1014  -13.4879   20.3903 F   0  0  0  0  0  0
    7.1013  -13.3709   21.1962 F   0  0  0  0  0  0
    8.5371   -8.9093   23.5909 C   0  0  0  0  0  0
    8.9700   -7.4928   23.8552 C   0  0  0  0  0  0
    8.8386   -6.5252   22.8566 C   0  0  0  0  0  0
    9.0695   -5.1830   23.1614 C   0  0  0  0  0  0
    9.4826   -4.8263   24.4468 C   0  0  0  0  0  0
    9.6373   -5.7964   25.4330 C   0  0  0  0  0  0
    9.3753   -7.1309   25.1405 C   0  0  0  0  0  0
    5.2352   -1.0883   20.2522 C   0  0  0  0  0  0
    8.7975   -4.1386   22.1754 N   0  3  0  0  0  0
    9.2372   -4.2700   21.0386 O   0  0  0  0  0  0
    8.1220   -3.1942   22.5567 O   0  5  0  0  0  0
    5.0153   -0.4974   18.8546 C   0  0  0  0  0  0
    5.9169   -0.4235   21.0365 O   0  0  0  0  0  0
    7.0112  -11.4680   23.2485 H   0  0  0  0  0  0
    4.4621  -11.2047   19.8372 H   0  0  0  0  0  0
    3.5469   -6.8667   19.1514 H   0  0  0  0  0  0
    5.9392   -6.7322   22.7392 H   0  0  0  0  0  0
    2.9052   -5.0028   19.5219 H   0  0  0  0  0  0
    2.6554   -4.1611   21.0171 H   0  0  0  0  0  0
    2.9716   -2.5110   19.3505 H   0  0  0  0  0  0
    4.4582   -3.2905   18.7679 H   0  0  0  0  0  0
    5.5932   -2.2554   22.5542 H   0  0  0  0  0  0
    3.8828   -2.6915   22.5053 H   0  0  0  0  0  0
    6.2262   -4.3185   21.4969 H   0  0  0  0  0  0
    5.2376   -4.6802   22.9414 H   0  0  0  0  0  0
    6.9391   -9.5699   24.6367 H   0  0  0  0  0  0
    9.0654   -9.5836   24.2659 H   0  0  0  0  0  0
    8.8210   -9.1936   22.5751 H   0  0  0  0  0  0
    8.4970   -6.8061   21.8701 H   0  0  0  0  0  0
    9.6706   -3.7909   24.6844 H   0  0  0  0  0  0
    9.9280   -5.5103   26.4341 H   0  0  0  0  0  0
    9.4481   -7.8692   25.9273 H   0  0  0  0  0  0
    3.9990   -0.6459   18.4926 H   0  0  0  0  0  0
    5.7131   -0.9212   18.1367 H   0  0  0  0  0  0
    5.2114    0.5766   18.8806 H   0  0  0  0  0  0
  1  2  2  0  0  0
  1  4  1  0  0  0
  1 35  1  0  0  0
  2  3  1  0  0  0
  2 18  1  0  0  0
  3  6  2  0  0  0
  3 36  1  0  0  0
  4  5  2  0  0  0
  4 17  1  0  0  0
  5  6  1  0  0  0
  5 10  1  0  0  0
  6  7  1  0  0  0
  7  8  2  0  0  0
  8  9  1  0  0  0
  8 37  1  0  0  0
  9 10  2  0  0  0
  9 11  1  0  0  0
 10 38  1  0  0  0
 11 12  1  0  0  0
 11 16  1  0  0  0
 12 13  1  0  0  0
 12 39  1  0  0  0
 12 40  1  0  0  0
 13 14  1  0  0  0
 13 41  1  0  0  0
 13 42  1  0  0  0
 14 15  1  0  0  0
 14 29  1  0  0  0
 15 16  1  0  0  0
 15 43  1  0  0  0
 15 44  1  0  0  0
 16 45  1  0  0  0
 16 46  1  0  0  0
 17 22  1  0  0  0
 17 47  1  0  0  0
 18 19  1  0  0  0
 18 20  1  0  0  0
 18 21  1  0  0  0
 22 23  1  0  0  0
 22 48  1  0  0  0
 22 49  1  0  0  0
 23 24  2  0  0  0
 23 28  1  0  0  0
 24 25  1  0  0  0
 24 50  1  0  0  0
 25 26  2  0  0  0
 25 30  1  0  0  0
 26 27  1  0  0  0
 26 51  1  0  0  0
 27 28  2  0  0  0
 27 52  1  0  0  0
 28 53  1  0  0  0
 29 33  1  0  0  0
 29 34  2  0  0  0
 30 31  2  0  0  0
 30 32  1  0  0  0
 33 54  1  0  0  0
 33 55  1  0  0  0
 33 56  1  0  0  0
M  CHG  2  30   1  32  -1
M  END
> <s_m_entry_id>
5970

> <s_m_entry_name>
dock_pv.365

> <s_m_Source_Path>
/home/csk/Desktop/cluster/DUD-E-result/igf1r

> <s_m_Source_File>
dock_pv.maegz

> <i_m_Source_File_Index>
365

> <chembl_id>
CHEMBL1766529

> <chembl_pref_name>
None

> <i_lp_mmshare_version>
53161

> <r_lp_tautomer_probability>
1

> <s_lp_Force_Field>
OPLS_2005

> <r_lp_Energy>
52.883931

> <b_lp_Chiralities_Consistent>
1

> <s_lp_Variant>
CHEMBL1957_lig828-1

> <s_i_glide_gridfile>
glide-grid_2oj9

> <i_i_glide_lignum>
1059

> <i_i_glide_rotatable_bonds>
7

> <r_i_docking_score>
-6.80536969715566

> <r_i_glide_ligand_efficiency>
-0.200157932269284

> <r_i_glide_ligand_efficiency_sa>
-0.648433998736668

> <r_i_glide_ligand_efficiency_ln>
-1.50349705025601

> <r_i_glide_gscore>
-6.80536969715566

> <r_i_glide_lipo>
-2.97397649200106

> <r_i_glide_hbond>
0

> <r_i_glide_metal>
0

> <r_i_glide_rewards>
-1.08522546492873

> <r_i_glide_evdw>
-38.6693649291992

> <r_i_glide_ecoul>
-7.4267463684082

> <r_i_glide_erotb>
0.360960988934422

> <r_i_glide_esite>
-0.0596485274391054

> <r_i_glide_emodel>
-42.1464049356912

> <r_i_glide_energy>
-46.0961112976074

> <r_i_glide_einternal>
7.99075651168823

> <i_i_glide_confnum>
5

> <i_i_glide_posenum>
66

> <r_i_glide_eff_state_penalty>
0

> <s_user_duplicate_titles>
CHEMBL1957_lig828

> <i_f3d_flags>
0

> <s_m_subgroup_title>
dock_pv

> <s_m_subgroupid>
dock_pv

> <b_m_subgroup_collapsed>
1

$$$$
CHEMBL1957_lig851
                    3D
 Schrodinger Suite 2021-1.
 55 59  0  0  1  0            999 V2000
    6.3165   -8.0201   23.6123 C   0  0  0  0  0  0
    6.0977   -8.7195   22.4237 C   0  0  0  0  0  0
    5.2383   -8.2011   21.4349 C   0  0  0  0  0  0
    4.6561   -6.9349   21.6164 C   0  0  0  0  0  0
    4.8485   -6.2761   22.8316 C   0  0  0  0  0  0
    5.6340   -6.8266   23.8330 C   0  0  0  0  0  0
    4.9391   -8.8768   20.2691 O   0  0  0  0  0  0
    5.1052  -10.2859   20.2410 C   0  0  0  0  0  0
    3.8675   -6.3921   20.5810 N   0  0  0  0  0  0
    3.6416   -5.0847   20.1288 C   0  0  0  0  0  0
    3.1636   -4.9859   18.8662 N   0  0  0  0  0  0
    3.2153   -3.7541   18.2959 C   0  0  0  0  0  0
    3.7468   -2.6397   18.9426 C   0  0  0  0  0  0
    4.3569   -2.8514   20.1922 C   0  0  0  0  0  0
    4.2370   -4.0615   20.7997 N   0  0  0  0  0  0
    5.1988   -1.8383   20.9352 C   0  0  0  0  0  0
    5.5036   -0.5016   20.6381 C   0  0  0  0  0  0
    6.0170    0.1642   21.6439 N   0  0  0  0  0  0
    5.8998   -2.0528   22.1183 N   0  0  0  0  0  0
    6.2422   -0.7759   22.5838 C   0  0  0  0  0  0
    6.7989   -0.6300   23.8679 C   0  0  0  0  0  0
    7.1117   -1.7709   24.5964 C   0  0  0  0  0  0
    6.8560   -3.0362   24.0809 C   0  0  0  0  0  0
    6.2491   -3.1695   22.8359 C   0  0  0  0  0  0
    3.6389   -1.1040   18.1692 Cl  0  0  0  0  0  0
    7.2848   -8.5381   24.6745 C   0  0  0  0  0  0
    8.5760   -7.8453   24.7395 N   0  0  0  0  0  0
    8.5450   -6.3789   24.6354 C   0  0  0  0  0  0
    9.8901   -5.7643   25.0328 C   0  0  0  0  0  0
   10.9380   -6.3605   24.2759 O   0  0  0  0  0  0
   10.9979   -7.7822   24.4178 C   0  0  0  0  0  0
    9.6698   -8.4237   23.9571 C   0  0  0  0  0  0
    6.6044   -9.6608   22.2753 H   0  0  0  0  0  0
    4.4325   -5.3077   23.0273 H   0  0  0  0  0  0
    5.7422   -6.2907   24.7663 H   0  0  0  0  0  0
    4.4765  -10.6599   19.4387 H   0  0  0  0  0  0
    6.1406  -10.5657   20.0373 H   0  0  0  0  0  0
    4.7685  -10.7713   21.1582 H   0  0  0  0  0  0
    3.5981   -7.0910   19.9029 H   0  0  0  0  0  0
    2.8377   -3.6676   17.2894 H   0  0  0  0  0  0
    5.2461    0.0480   19.7469 H   0  0  0  0  0  0
    7.0683    0.3443   24.2448 H   0  0  0  0  0  0
    7.6164   -1.6546   25.5435 H   0  0  0  0  0  0
    7.1480   -3.9140   24.6365 H   0  0  0  0  0  0
    6.0934   -4.1235   22.3716 H   0  0  0  0  0  0
    7.4250   -9.6148   24.5675 H   0  0  0  0  0  0
    6.8379   -8.3949   25.6558 H   0  0  0  0  0  0
    7.7981   -5.9920   25.3187 H   0  0  0  0  0  0
    8.2500   -6.0653   23.6329 H   0  0  0  0  0  0
    9.8814   -4.6939   24.8285 H   0  0  0  0  0  0
   10.0379   -5.8771   26.1065 H   0  0  0  0  0  0
   11.8345   -8.1691   23.8380 H   0  0  0  0  0  0
   11.2103   -8.0541   25.4525 H   0  0  0  0  0  0
    9.4962   -8.3046   22.8869 H   0  0  0  0  0  0
    9.7205   -9.4975   24.1470 H   0  0  0  0  0  0
  1  6  1  0  0  0
  1 26  1  0  0  0
  1  2  2  0  0  0
  2  3  1  0  0  0
  2 33  1  0  0  0
  3  7  1  0  0  0
  3  4  2  0  0  0
  4  9  1  0  0  0
  4  5  1  0  0  0
  5  6  2  0  0  0
  5 34  1  0  0  0
  6 35  1  0  0  0
  7  8  1  0  0  0
  8 36  1  0  0  0
  8 37  1  0  0  0
  8 38  1  0  0  0
  9 10  1  0  0  0
  9 39  1  0  0  0
 10 11  2  0  0  0
 10 15  1  0  0  0
 11 12  1  0  0  0
 12 13  2  0  0  0
 12 40  1  0  0  0
 13 25  1  0  0  0
 13 14  1  0  0  0
 14 16  1  0  0  0
 14 15  2  0  0  0
 16 17  2  0  0  0
 16 19  1  0  0  0
 17 18  1  0  0  0
 17 41  1  0  0  0
 18 20  2  0  0  0
 19 20  1  0  0  0
 19 24  1  0  0  0
 20 21  1  0  0  0
 21 22  2  0  0  0
 21 42  1  0  0  0
 22 23  1  0  0  0
 22 43  1  0  0  0
 23 24  2  0  0  0
 23 44  1  0  0  0
 24 45  1  0  0  0
 26 27  1  0  0  0
 26 46  1  0  0  0
 26 47  1  0  0  0
 27 28  1  0  0  0
 27 32  1  0  0  0
 28 29  1  0  0  0
 28 48  1  0  0  0
 28 49  1  0  0  0
 29 30  1  0  0  0
 29 50  1  0  0  0
 29 51  1  0  0  0
 30 31  1  0  0  0
 31 32  1  0  0  0
 31 52  1  0  0  0
 31 53  1  0  0  0
 32 54  1  0  0  0
 32 55  1  0  0  0
M  END
> <s_m_entry_id>
5971

> <s_m_entry_name>
dock_pv.366

> <s_m_Source_Path>
/home/csk/Desktop/cluster/DUD-E-result/igf1r

> <s_m_Source_File>
dock_pv.maegz

> <i_m_Source_File_Index>
366

> <chembl_id>
CHEMBL1809054

> <chembl_pref_name>
None

> <i_lp_mmshare_version>
53161

> <r_lp_tautomer_probability>
0.999999987636

> <s_lp_Force_Field>
OPLS_2005

> <r_lp_Energy>
32.311451

> <b_lp_Chiralities_Consistent>
1

> <s_lp_Variant>
CHEMBL1957_lig851-1

> <s_i_glide_gridfile>
glide-grid_2oj9

> <i_i_glide_lignum>
1082

> <i_i_glide_rotatable_bonds>
6

> <r_i_docking_score>
-6.80402636602774

> <r_i_glide_ligand_efficiency>
-0.212625823938367

> <r_i_glide_ligand_efficiency_sa>
-0.675044912410895

> <r_i_glide_ligand_efficiency_ln>
-1.52360697410746

> <r_i_glide_gscore>
-6.80402636602774

> <r_i_glide_lipo>
-3.6091044774738

> <r_i_glide_hbond>
0

> <r_i_glide_metal>
0

> <r_i_glide_rewards>
-1.29836095558728

> <r_i_glide_evdw>
-38.8609275817871

> <r_i_glide_ecoul>
-2.97752356529236

> <r_i_glide_erotb>
0.493113980916549

> <r_i_glide_esite>
0

> <r_i_glide_emodel>
-50.7809436628293

> <r_i_glide_energy>
-41.8384511470795

> <r_i_glide_einternal>
7.19921016693115

> <i_i_glide_confnum>
15

> <i_i_glide_posenum>
11

> <r_i_glide_eff_state_penalty>
0

> <s_user_duplicate_titles>
CHEMBL1957_lig851

> <i_f3d_flags>
0

> <s_m_subgroup_title>
dock_pv

> <s_m_subgroupid>
dock_pv

> <b_m_subgroup_collapsed>
1

$$$$
CHEMBL1957_lig28
                    3D
 Schrodinger Suite 2021-1.
 57 59  0  0  1  0            999 V2000
    5.7340   -6.7756   22.2821 C   0  0  0  0  0  0
    6.8723   -7.4590   22.9105 C   0  0  0  0  0  0
    5.0305   -7.3608   21.2678 C   0  0  0  0  0  0
    7.6363   -6.7721   23.6820 N   0  0  0  0  0  0
    6.2457   -9.4414   21.5527 C   0  0  0  0  0  0
    5.2380   -8.7354   20.7713 C   0  0  0  0  0  0
    6.9932   -8.8825   22.5330 C   0  0  0  0  0  0
    8.9749   -7.2056   24.1706 C   0  0  2  0  0  0
    5.2433   -5.4190   22.8391 C   0  0  0  0  0  0
    8.9202   -8.0953   25.4449 C   0  0  0  0  0  0
    5.8778   -4.1122   22.2535 C   0  0  1  0  0  0
    4.9120   -3.0607   21.5759 C   0  0  1  0  0  0
    4.0381   -6.7394   20.5812 O   0  0  0  0  0  0
    7.7860   -9.7492   23.2164 O   0  0  0  0  0  0
    7.8705   -8.5200   25.9197 O   0  0  0  0  0  0
    9.8474   -5.9509   24.4989 C   0  0  2  0  0  0
    5.7963   -1.9728   20.8831 C   0  0  2  0  0  0
    4.6294   -9.2541   19.8379 O   0  0  0  0  0  0
   10.1575   -8.4608   25.8791 O   0  0  0  0  0  0
    9.2383   -5.0734   25.4380 O   0  0  0  0  0  0
    6.6905   -3.3517   23.3378 C   0  0  0  0  0  0
    7.5230   -2.1940   22.7491 C   0  0  0  0  0  0
    3.8960   -3.6460   20.5712 C   0  0  0  0  0  0
    6.6284   -1.2319   21.9450 C   0  0  0  0  0  0
    5.0175   -0.9614   19.9996 C   0  0  0  0  0  0
   10.1576   -5.0871   23.2713 C   0  0  0  0  0  0
    3.0778   -2.5906   19.8116 C   0  0  0  0  0  0
    3.9863   -1.6083   19.0627 C   0  0  0  0  0  0
    6.3680  -10.4989   21.3637 H   0  0  0  0  0  0
    9.5172   -7.7604   23.4005 H   0  0  0  0  0  0
    4.1700   -5.4295   22.7429 H   0  0  0  0  0  0
    5.3614   -5.4392   23.9244 H   0  0  0  0  0  0
    6.5910   -4.4285   21.4890 H   0  0  0  0  0  0
    4.3258   -2.5560   22.3468 H   0  0  0  0  0  0
    3.7276   -7.3380   19.8928 H   0  0  0  0  0  0
    7.9429   -9.4042   24.1003 H   0  0  0  0  0  0
   10.8172   -6.2593   24.8894 H   0  0  0  0  0  0
    6.4737   -2.5162   20.2280 H   0  0  0  0  0  0
   10.0902   -9.0417   26.6397 H   0  0  0  0  0  0
    8.7487   -5.5818   26.1003 H   0  0  0  0  0  0
    6.0382   -3.0012   24.1377 H   0  0  0  0  0  0
    7.3628   -4.0424   23.8404 H   0  0  0  0  0  0
    8.0352   -1.6557   23.5482 H   0  0  0  0  0  0
    8.3040   -2.5949   22.1033 H   0  0  0  0  0  0
    4.4378   -4.2187   19.8363 H   0  0  0  0  0  0
    3.2383   -4.3656   21.0380 H   0  0  0  0  0  0
    5.9760   -0.6624   22.6086 H   0  0  0  0  0  0
    7.2337   -0.4799   21.4380 H   0  0  0  0  0  0
    4.4682   -0.2795   20.6378 H   0  0  0  0  0  0
    5.7088   -0.3179   19.4520 H   0  0  0  0  0  0
   10.4230   -5.6643   22.3958 H   0  0  0  0  0  0
   11.0087   -4.4541   23.4869 H   0  0  0  0  0  0
    9.3256   -4.4557   22.9785 H   0  0  0  0  0  0
    2.4240   -2.0540   20.5009 H   0  0  0  0  0  0
    2.4370   -3.0906   19.0880 H   0  0  0  0  0  0
    3.3838   -0.8397   18.5789 H   0  0  0  0  0  0
    4.4928   -2.1322   18.2535 H   0  0  0  0  0  0
  1  2  1  0  0  0
  1  3  2  0  0  0
  1  9  1  0  0  0
  2  4  2  0  0  0
  2  7  1  0  0  0
  3  6  1  0  0  0
  3 13  1  0  0  0
  4  8  1  0  0  0
  5  6  1  0  0  0
  5  7  2  0  0  0
  5 29  1  0  0  0
  6 18  2  0  0  0
  7 14  1  0  0  0
  8 10  1  0  0  0
  8 16  1  0  0  0
  8 30  1  0  0  0
  9 11  1  0  0  0
  9 31  1  0  0  0
  9 32  1  0  0  0
 10 15  2  0  0  0
 10 19  1  0  0  0
 11 12  1  0  0  0
 11 21  1  0  0  0
 11 33  1  0  0  0
 12 17  1  0  0  0
 12 23  1  0  0  0
 12 34  1  0  0  0
 13 35  1  0  0  0
 14 36  1  0  0  0
 16 20  1  0  0  0
 16 26  1  0  0  0
 16 37  1  0  0  0
 17 25  1  0  0  0
 17 24  1  0  0  0
 17 38  1  0  0  0
 19 39  1  0  0  0
 20 40  1  0  0  0
 21 22  1  0  0  0
 21 41  1  0  0  0
 21 42  1  0  0  0
 22 24  1  0  0  0
 22 43  1  0  0  0
 22 44  1  0  0  0
 23 27  1  0  0  0
 23 45  1  0  0  0
 23 46  1  0  0  0
 24 47  1  0  0  0
 24 48  1  0  0  0
 25 28  1  0  0  0
 25 49  1  0  0  0
 25 50  1  0  0  0
 26 51  1  0  0  0
 26 52  1  0  0  0
 26 53  1  0  0  0
 27 28  1  0  0  0
 27 54  1  0  0  0
 27 55  1  0  0  0
 28 56  1  0  0  0
 28 57  1  0  0  0
M  END
> <s_m_entry_id>
5972

> <s_m_entry_name>
dock_pv.367

> <s_m_Source_Path>
/home/csk/Desktop/cluster/DUD-E-result/igf1r

> <s_m_Source_File>
dock_pv.maegz

> <i_m_Source_File_Index>
367

> <chembl_id>
CHEMBL442388

> <chembl_pref_name>
None

> <i_lp_mmshare_version>
53161

> <r_lp_tautomer_probability>
0.0909090909090909

> <s_lp_Force_Field>
OPLS_2005

> <r_lp_Energy>
26.647203

> <b_lp_Chiralities_Consistent>
1

> <s_lp_Variant>
CHEMBL1957_lig28-55

> <s_i_glide_gridfile>
glide-grid_2oj9

> <i_i_glide_lignum>
108

> <i_i_glide_rotatable_bonds>
9

> <r_i_docking_score>
-6.80339296866194

> <r_i_glide_ligand_efficiency>
-0.242978320309355

> <r_i_glide_ligand_efficiency_sa>
-0.737825287036731

> <r_i_glide_ligand_efficiency_ln>
-1.57042285346469

> <r_i_glide_gscore>
-6.80339296866194

> <r_i_glide_lipo>
-3.29751799948442

> <r_i_glide_hbond>
-0.32

> <r_i_glide_metal>
0

> <r_i_glide_rewards>
-1.57803328456224

> <r_i_glide_evdw>
-33.2919654846191

> <r_i_glide_ecoul>
-3.86657810211182

> <r_i_glide_erotb>
0.636743304932449

> <r_i_glide_esite>
0

> <r_i_glide_emodel>
-36.4538998435806

> <r_i_glide_energy>
-37.158543586731

> <r_i_glide_einternal>
9.49721717834473

> <i_i_glide_confnum>
62

> <i_i_glide_posenum>
270

> <r_i_glide_eff_state_penalty>
0

> <s_user_duplicate_titles>
CHEMBL1957_lig28

> <i_f3d_flags>
0

> <s_m_subgroup_title>
dock_pv

> <s_m_subgroupid>
dock_pv

> <b_m_subgroup_collapsed>
1

$$$$
CHEMBL1957_lig3277
                    3D
 Schrodinger Suite 2021-1.
 48 51  0  0  1  0            999 V2000
    8.3009  -11.7953   25.2751 O   0  0  0  0  0  0
    9.9927   -9.2018   26.6056 O   0  0  0  0  0  0
    5.6198   -1.8482   21.9548 O   0  0  0  0  0  0
    6.6881   -9.7507   23.2760 N   0  0  0  0  0  0
    8.3711   -7.1444   24.5646 N   0  0  0  0  0  0
    4.4617   -6.8492   21.1866 N   0  0  0  0  0  0
    7.6385   -9.5451   24.2554 C   0  0  0  0  0  0
    8.3241   -8.4983   24.7920 C   0  0  0  0  0  0
    8.3379  -10.5765   25.1214 C   0  0  0  0  0  0
    9.1310   -9.3639   25.7435 C   0  0  0  0  0  0
    5.9477   -8.7708   22.5986 C   0  0  0  0  0  0
    9.4759   -6.2418   24.8365 C   0  0  0  0  0  0
    5.5754   -8.9957   21.2703 C   0  0  0  0  0  0
    5.5364   -7.5855   23.2222 C   0  0  0  0  0  0
    9.7910   -5.3635   23.6165 C   0  0  0  0  0  0
    8.6500   -4.4540   23.1775 C   0  0  0  0  0  0
    6.6069   -2.7400   22.3331 C   0  0  0  0  0  0
    4.8379   -8.0142   20.6019 C   0  0  0  0  0  0
    4.8112   -6.6519   22.4828 C   0  0  0  0  0  0
    8.2128   -4.4928   21.8542 C   0  0  0  0  0  0
    8.0735   -3.5527   24.0758 C   0  0  0  0  0  0
    7.2012   -3.6387   21.4382 C   0  0  0  0  0  0
    7.0558   -2.6985   23.6536 C   0  0  0  0  0  0
    4.8674   -2.0538   20.8175 C   0  0  0  0  0  0
    4.1104   -3.2164   20.6548 C   0  0  0  0  0  0
    4.8379   -1.0592   19.8378 C   0  0  0  0  0  0
    3.3492   -3.3990   19.5043 C   0  0  0  0  0  0
    4.0570   -1.2287   18.6977 C   0  0  0  0  0  0
    3.3220   -2.4014   18.5320 C   0  0  0  0  0  0
    6.5327  -10.6884   22.9337 H   0  0  0  0  0  0
    7.6788   -6.7239   23.9617 H   0  0  0  0  0  0
    9.2857   -5.6446   25.7287 H   0  0  0  0  0  0
   10.3667   -6.8316   25.0582 H   0  0  0  0  0  0
    5.8560   -9.9061   20.7590 H   0  0  0  0  0  0
    5.7571   -7.3922   24.2623 H   0  0  0  0  0  0
   10.6743   -4.7523   23.8061 H   0  0  0  0  0  0
   10.0461   -6.0231   22.7891 H   0  0  0  0  0  0
    4.5411   -8.1511   19.5718 H   0  0  0  0  0  0
    4.4823   -5.7316   22.9414 H   0  0  0  0  0  0
    8.6673   -5.1686   21.1439 H   0  0  0  0  0  0
    8.4379   -3.4996   25.0900 H   0  0  0  0  0  0
    6.8917   -3.6545   20.4079 H   0  0  0  0  0  0
    6.6210   -1.9938   24.3458 H   0  0  0  0  0  0
    4.1300   -3.9790   21.4167 H   0  0  0  0  0  0
    5.4227   -0.1591   19.9635 H   0  0  0  0  0  0
    2.7915   -4.3131   19.3662 H   0  0  0  0  0  0
    4.0371   -0.4557   17.9410 H   0  0  0  0  0  0
    2.7355   -2.5414   17.6351 H   0  0  0  0  0  0
  1  9  2  0  0  0
  2 10  2  0  0  0
  3 17  1  0  0  0
  3 24  1  0  0  0
  4  7  1  0  0  0
  4 11  1  0  0  0
  4 30  1  0  0  0
  5  8  1  0  0  0
  5 12  1  0  0  0
  5 31  1  0  0  0
  6 18  2  0  0  0
  6 19  1  0  0  0
  7  8  2  0  0  0
  7  9  1  0  0  0
  8 10  1  0  0  0
  9 10  1  0  0  0
 11 13  2  0  0  0
 11 14  1  0  0  0
 12 15  1  0  0  0
 12 32  1  0  0  0
 12 33  1  0  0  0
 13 18  1  0  0  0
 13 34  1  0  0  0
 14 19  2  0  0  0
 14 35  1  0  0  0
 15 16  1  0  0  0
 15 36  1  0  0  0
 15 37  1  0  0  0
 16 20  2  0  0  0
 16 21  1  0  0  0
 17 22  2  0  0  0
 17 23  1  0  0  0
 18 38  1  0  0  0
 19 39  1  0  0  0
 20 22  1  0  0  0
 20 40  1  0  0  0
 21 23  2  0  0  0
 21 41  1  0  0  0
 22 42  1  0  0  0
 23 43  1  0  0  0
 24 25  2  0  0  0
 24 26  1  0  0  0
 25 27  1  0  0  0
 25 44  1  0  0  0
 26 28  2  0  0  0
 26 45  1  0  0  0
 27 29  2  0  0  0
 27 46  1  0  0  0
 28 29  1  0  0  0
 28 47  1  0  0  0
 29 48  1  0  0  0
M  END
> <s_m_entry_id>
5973

> <s_m_entry_name>
dock_pv.368

> <s_m_Source_Path>
/home/csk/Desktop/cluster/DUD-E-result/igf1r

> <s_m_Source_File>
dock_pv.maegz

> <i_m_Source_File_Index>
368

> <chembl_id>
CHEMBL1999321

> <chembl_pref_name>
None

> <i_lp_mmshare_version>
53161

> <r_lp_tautomer_probability>
1

> <s_lp_Force_Field>
OPLS_2005

> <r_lp_Energy>
55.928115

> <b_lp_Chiralities_Consistent>
1

> <s_lp_Variant>
CHEMBL1957_lig3277-1

> <s_i_glide_gridfile>
glide-grid_2oj9

> <i_i_glide_lignum>
4599

> <i_i_glide_rotatable_bonds>
8

> <r_i_docking_score>
-6.8004665327149

> <r_i_glide_ligand_efficiency>
-0.234498845955686

> <r_i_glide_ligand_efficiency_sa>
-0.720454749224907

> <r_i_glide_ligand_efficiency_ln>
-1.5571343910394

> <r_i_glide_gscore>
-6.8004665327149

> <r_i_glide_lipo>
-4.33861997559496

> <r_i_glide_hbond>
0

> <r_i_glide_metal>
0

> <r_i_glide_rewards>
-1.07319414214374

> <r_i_glide_evdw>
-46.4209518432617

> <r_i_glide_ecoul>
-0.701805651187897

> <r_i_glide_erotb>
1.04764402458803

> <r_i_glide_esite>
-0.00997799972295607

> <r_i_glide_emodel>
-62.5174560547046

> <r_i_glide_energy>
-47.1227574944496

> <r_i_glide_einternal>
7.85767030715942

> <i_i_glide_confnum>
7

> <i_i_glide_posenum>
191

> <r_i_glide_eff_state_penalty>
0

> <s_user_duplicate_titles>
CHEMBL1957_lig3277

> <i_f3d_flags>
0

> <s_m_subgroup_title>
dock_pv

> <s_m_subgroupid>
dock_pv

> <b_m_subgroup_collapsed>
1

$$$$
495432
                    3D
 Schrodinger Suite 2021-1.
 63 66  0  0  1  0            999 V2000
    4.8081    0.7211   26.2230 C   0  0  0  0  0  0
    5.6384    0.5113   25.0385 N   0  0  0  0  0  0
    6.8379    1.3386   25.1187 C   0  0  0  0  0  0
    5.9458   -0.9200   24.9107 C   0  0  0  0  0  0
    6.9350   -1.2693   23.7825 C   0  0  0  0  0  0
    6.9828   -2.7600   23.3879 C   0  0  0  0  0  0
    5.9009   -3.2388   22.4265 C   0  0  0  0  0  0
    5.1252   -2.3462   21.6820 C   0  0  0  0  0  0
    4.1985   -2.8112   20.7600 C   0  0  0  0  0  0
    4.0380   -4.1858   20.5510 C   0  0  0  0  0  0
    4.7858   -5.0961   21.3258 C   0  0  0  0  0  0
    5.7178   -4.6134   22.2493 C   0  0  0  0  0  0
    4.6077   -6.4593   21.0381 N   0  0  0  0  0  0
    5.2438   -7.6553   21.3633 C   0  0  0  0  0  0
    4.8385   -8.6813   20.5788 N   0  0  0  0  0  0
    5.3981   -9.8480   20.8891 C   0  0  0  0  0  0
    6.3394  -10.0714   21.9257 C   0  0  0  0  0  0
    6.5815  -11.4909   21.9582 C   0  0  0  0  0  0
    5.8861  -12.0389   20.9003 C   0  0  0  0  0  0
    5.1946  -11.0462   20.2510 N   0  0  0  0  0  0
    6.7430   -8.9095   22.6188 C   0  0  0  0  0  0
    6.1691   -7.7083   22.3535 N   0  0  0  0  0  0
    7.7022   -8.8969   23.6381 N   0  0  0  0  0  0
    8.7736   -9.7602   23.9539 C   0  0  0  0  0  0
    9.3630  -10.5511   22.9591 C   0  0  0  0  0  0
   10.3866  -11.4443   23.2628 C   0  0  0  0  0  0
   10.8652  -11.5320   24.5650 C   0  0  0  0  0  0
   10.3403  -10.7124   25.5585 C   0  0  0  0  0  0
    9.3018   -9.8165   25.2627 C   0  0  0  0  0  0
    8.8083   -8.9062   26.3444 C   0  0  0  0  0  0
    8.0383   -9.2883   27.2212 O   0  0  0  0  0  0
    9.2380   -7.6540   26.2395 N   0  0  0  0  0  0
   10.8622  -10.7929   26.8069 F   0  0  0  0  0  0
    3.2158   -4.6922   19.5565 O   0  0  0  0  0  0
    2.9154   -3.8717   18.4273 C   0  0  0  0  0  0
    4.6527  -11.2226   19.4106 H   0  0  0  0  0  0
    3.8906    0.1324   26.1672 H   0  0  0  0  0  0
    4.5148    1.7683   26.3102 H   0  0  0  0  0  0
    5.3340    0.4400   27.1360 H   0  0  0  0  0  0
    7.3414    1.3835   24.1538 H   0  0  0  0  0  0
    6.6071    2.3664   25.4035 H   0  0  0  0  0  0
    7.5426    0.9239   25.8379 H   0  0  0  0  0  0
    6.4006   -1.2542   25.8390 H   0  0  0  0  0  0
    5.0295   -1.5019   24.7950 H   0  0  0  0  0  0
    6.8379   -0.5884   22.9388 H   0  0  0  0  0  0
    7.9298   -1.0859   24.1822 H   0  0  0  0  0  0
    7.9396   -2.9642   22.9028 H   0  0  0  0  0  0
    6.9658   -3.3765   24.2891 H   0  0  0  0  0  0
    5.2371   -1.2790   21.7790 H   0  0  0  0  0  0
    3.6392   -2.0854   20.1910 H   0  0  0  0  0  0
    6.3232   -5.2950   22.8237 H   0  0  0  0  0  0
    3.9399   -6.6036   20.2955 H   0  0  0  0  0  0
    7.1979  -12.0494   22.6473 H   0  0  0  0  0  0
    5.8228  -13.0581   20.5442 H   0  0  0  0  0  0
    7.6371   -8.0750   24.2192 H   0  0  0  0  0  0
    9.0368  -10.4763   21.9325 H   0  0  0  0  0  0
   10.8233  -12.0532   22.4851 H   0  0  0  0  0  0
   11.6706  -12.2143   24.7949 H   0  0  0  0  0  0
    8.8650   -6.9519   26.8703 H   0  0  0  0  0  0
    9.8984   -7.3964   25.5225 H   0  0  0  0  0  0
    2.3622   -4.4540   17.6920 H   0  0  0  0  0  0
    2.3171   -3.0007   18.6891 H   0  0  0  0  0  0
    3.8300   -3.5257   17.9414 H   0  0  0  0  0  0
  1  2  1  0  0  0
  1 37  1  0  0  0
  1 38  1  0  0  0
  1 39  1  0  0  0
  2  3  1  0  0  0
  2  4  1  0  0  0
  3 40  1  0  0  0
  3 41  1  0  0  0
  3 42  1  0  0  0
  4  5  1  0  0  0
  4 43  1  0  0  0
  4 44  1  0  0  0
  5  6  1  0  0  0
  5 45  1  0  0  0
  5 46  1  0  0  0
  6  7  1  0  0  0
  6 47  1  0  0  0
  6 48  1  0  0  0
  7 12  1  0  0  0
  7  8  2  0  0  0
  8  9  1  0  0  0
  8 49  1  0  0  0
  9 10  2  0  0  0
  9 50  1  0  0  0
 10 11  1  0  0  0
 10 34  1  0  0  0
 11 12  2  0  0  0
 11 13  1  0  0  0
 12 51  1  0  0  0
 13 14  1  0  0  0
 13 52  1  0  0  0
 14 22  1  0  0  0
 14 15  2  0  0  0
 15 16  1  0  0  0
 16 20  1  0  0  0
 16 17  2  0  0  0
 17 18  1  0  0  0
 17 21  1  0  0  0
 18 19  2  0  0  0
 18 53  1  0  0  0
 19 20  1  0  0  0
 19 54  1  0  0  0
 20 36  1  0  0  0
 21 22  2  0  0  0
 21 23  1  0  0  0
 23 24  1  0  0  0
 23 55  1  0  0  0
 24 29  1  0  0  0
 24 25  2  0  0  0
 25 26  1  0  0  0
 25 56  1  0  0  0
 26 27  2  0  0  0
 26 57  1  0  0  0
 27 28  1  0  0  0
 27 58  1  0  0  0
 28 29  2  0  0  0
 28 33  1  0  0  0
 29 30  1  0  0  0
 30 31  2  0  0  0
 30 32  1  0  0  0
 32 59  1  0  0  0
 32 60  1  0  0  0
 34 35  1  0  0  0
 35 61  1  0  0  0
 35 62  1  0  0  0
 35 63  1  0  0  0
M  END
> <s_m_entry_id>
8078

> <s_m_entry_name>
ligand_docking-pose.21

> <s_m_Source_Path>
/home/csk/Desktop/cluster/DUD-E-result/igf1r

> <s_m_Source_File>
ligand_docking-pose.sdf

> <i_m_Source_File_Index>
21

> <i_lp_mmshare_version>
53161

> <r_lp_tautomer_probability>
1

> <s_lp_Force_Field>
OPLS_2005

> <r_lp_Energy>
27.784241

> <b_lp_Chiralities_Consistent>
1

> <s_lp_Variant>
495432-1

> <s_i_glide_gridfile>
glide-grid_2oj9

> <i_i_glide_lignum>
559

> <i_i_glide_rotatable_bonds>
10

> <r_i_docking_score>
-7.22284768992174

> <r_i_glide_ligand_efficiency>
-0.206367076854907

> <r_i_glide_ligand_efficiency_sa>
-0.675040391832184

> <r_i_glide_ligand_efficiency_ln>
-1.58557537040543

> <r_i_glide_gscore>
-7.22284768992174

> <r_i_glide_lipo>
-2.51798734013719

> <r_i_glide_hbond>
-0.627421458523313

> <r_i_glide_metal>
0

> <r_i_glide_rewards>
-1.05604129304277

> <r_i_glide_evdw>
-43.1026229858398

> <r_i_glide_ecoul>
-9.80328178405762

> <r_i_glide_erotb>
0.621845358743414

> <r_i_glide_esite>
-0.0176195400612531

> <r_i_glide_emodel>
-68.5123503618003

> <r_i_glide_energy>
-52.9059047698975

> <r_i_glide_einternal>
14.2873229980469

> <i_i_glide_confnum>
5

> <i_i_glide_posenum>
30

> <r_i_glide_eff_state_penalty>
0

> <s_user_duplicate_titles>
495432

> <i_f3d_flags>
0

> <s_m_subgroup_title>
dock_pv

> <s_m_subgroupid>
dock_pv1

> <b_m_subgroup_collapsed>
0

$$$$
