CHEMBL4282_lig973
                    3D
 Schrodinger Suite 2021-1.
 51 54  0  0  1  0            999 V2000
   11.0313   -1.2020   18.5995 C   0  0  0  0  0  0
   11.7571   -0.0171   18.7460 C   0  0  0  0  0  0
   12.4735    0.5004   17.6636 C   0  0  0  0  0  0
   12.4626   -0.1644   16.4397 C   0  0  0  0  0  0
   11.7430   -1.3506   16.3034 C   0  0  0  0  0  0
   11.0306   -1.8722   17.3795 C   0  0  0  0  0  0
   11.7793    0.6878   20.1018 C   0  0  0  0  0  0
   10.5732    1.6404   20.3285 C   0  0  1  0  0  0
   10.6136    2.2008   21.6915 N   0  0  0  0  0  0
   10.5110    2.8453   19.3420 C   0  0  0  0  0  0
    9.3097    3.3241   18.9129 N   0  0  0  0  0  0
   11.5881    3.3337   18.9845 O   0  0  0  0  0  0
    7.9975    2.8428   19.3687 C   0  0  0  0  0  0
    7.2421    2.2615   18.1511 C   0  0  0  0  0  0
    7.1811    3.1552   16.9820 N   0  0  0  0  0  0
    8.4862    3.7719   16.6640 C   0  0  0  0  0  0
    9.2460    4.3618   17.8721 C   0  0  0  0  0  0
    5.9715    3.6142   16.4615 C   0  0  0  0  0  0
    3.5345    4.7497   15.6054 N   0  0  0  0  0  0
    4.6877    5.4341   15.7849 C   0  0  0  0  0  0
    5.8857    4.9451   16.1842 N   0  0  0  0  0  0
   11.7262   -1.9948   15.1132 F   0  0  0  0  0  0
    4.5739    1.3458   16.1950 C   0  0  0  0  0  0
    3.2479    1.2572   15.8124 C   0  0  0  0  0  0
    2.7006    2.4924   15.6015 N   0  0  0  0  0  0
    3.6752    3.4381   15.7932 C   0  0  0  0  0  0
    4.8659    2.7637   16.2021 C   0  0  0  0  0  0
    5.4888    0.1877   16.5131 C   0  0  0  0  0  0
   10.4643   -1.6031   19.4289 H   0  0  0  0  0  0
   13.0328    1.4196   17.7692 H   0  0  0  0  0  0
   13.0106    0.2353   15.6020 H   0  0  0  0  0  0
   10.4756   -2.7894   17.2712 H   0  0  0  0  0  0
   11.7789   -0.0800   20.8772 H   0  0  0  0  0  0
   12.7198    1.2268   20.2222 H   0  0  0  0  0  0
    9.6868    1.0173   20.2211 H   0  0  0  0  0  0
   11.5262    2.5877   21.8895 H   0  0  0  0  0  0
    9.9765    2.9919   21.7851 H   0  0  0  0  0  0
    8.0312    2.1427   20.1993 H   0  0  0  0  0  0
    7.4391    3.6982   19.7556 H   0  0  0  0  0  0
    6.2321    2.0036   18.4752 H   0  0  0  0  0  0
    7.7238    1.3395   17.8214 H   0  0  0  0  0  0
    8.3767    4.5446   15.9024 H   0  0  0  0  0  0
    9.0857    2.9870   16.2027 H   0  0  0  0  0  0
    8.7083    5.2265   18.2644 H   0  0  0  0  0  0
   10.2287    4.7276   17.5668 H   0  0  0  0  0  0
    4.6383    6.4980   15.6138 H   0  0  0  0  0  0
    2.6355    0.3767   15.6776 H   0  0  0  0  0  0
    1.7417    2.6524   15.3094 H   0  0  0  0  0  0
    5.0640   -0.7590   16.1887 H   0  0  0  0  0  0
    6.4610    0.2879   16.0325 H   0  0  0  0  0  0
    5.6632    0.0850   17.5843 H   0  0  0  0  0  0
  1  6  1  0  0  0
  1  2  2  0  0  0
  1 29  1  0  0  0
  2  7  1  0  0  0
  2  3  1  0  0  0
  3  4  2  0  0  0
  3 30  1  0  0  0
  4  5  1  0  0  0
  4 31  1  0  0  0
  5 22  1  0  0  0
  5  6  2  0  0  0
  6 32  1  0  0  0
  7  8  1  0  0  0
  7 33  1  0  0  0
  7 34  1  0  0  0
  8  9  1  0  0  0
  8 10  1  0  0  0
  8 35  1  0  0  0
  9 36  1  0  0  0
  9 37  1  0  0  0
 10 11  1  0  0  0
 10 12  2  0  0  0
 11 17  1  0  0  0
 11 13  1  0  0  0
 13 14  1  0  0  0
 13 38  1  0  0  0
 13 39  1  0  0  0
 14 15  1  0  0  0
 14 40  1  0  0  0
 14 41  1  0  0  0
 15 16  1  0  0  0
 15 18  1  0  0  0
 16 17  1  0  0  0
 16 42  1  0  0  0
 16 43  1  0  0  0
 17 44  1  0  0  0
 17 45  1  0  0  0
 18 27  1  0  0  0
 18 21  2  0  0  0
 19 26  1  0  0  0
 19 20  2  0  0  0
 20 21  1  0  0  0
 20 46  1  0  0  0
 23 24  2  0  0  0
 23 27  1  0  0  0
 23 28  1  0  0  0
 24 25  1  0  0  0
 24 47  1  0  0  0
 25 26  1  0  0  0
 25 48  1  0  0  0
 26 27  2  0  0  0
 28 49  1  0  0  0
 28 50  1  0  0  0
 28 51  1  0  0  0
M  END
> <s_m_entry_id>
2263

> <s_m_entry_name>
dock_pv.2

> <s_m_Source_Path>
/home/csk/Desktop/cluster/DUD-E-result/akt1

> <s_m_Source_File>
dock_pv.maegz

> <i_m_Source_File_Index>
2

> <chembl_id>
CHEMBL1257282

> <chembl_pref_name>
None

> <i_lp_mmshare_version>
53161

> <i_f3d_flags>
0

> <r_lp_tautomer_probability>
0.999998369746258

> <s_lp_Force_Field>
OPLS_2005

> <r_lp_Energy>
38.292281

> <b_lp_Chiralities_Consistent>
1

> <s_lp_Variant>
CHEMBL4282_lig973-1

> <s_i_glide_gridfile>
glide-grid_3cqw

> <i_i_glide_lignum>
1369

> <i_i_glide_rotatable_bonds>
5

> <r_i_docking_score>
-9.69009762648103

> <r_i_glide_ligand_efficiency>
-0.346074915231465

> <r_i_glide_ligand_efficiency_sa>
-1.05088726986741

> <r_i_glide_ligand_efficiency_ln>
-2.23675904582102

> <r_i_glide_gscore>
-9.69009762648103

> <r_i_glide_lipo>
-2.62561985588462

> <r_i_glide_hbond>
-0.692490860879853

> <r_i_glide_metal>
0

> <r_i_glide_rewards>
-3.12398566614603

> <r_i_glide_evdw>
-44.1780891418457

> <r_i_glide_ecoul>
-8.59284687042236

> <r_i_glide_erotb>
0.371816316349877

> <r_i_glide_esite>
-0.121986072264756

> <r_i_glide_emodel>
-82.9849513888953

> <r_i_glide_energy>
-52.7709360122681

> <r_i_glide_einternal>
2.6123354434967

> <i_i_glide_confnum>
11

> <i_i_glide_posenum>
43

> <r_i_glide_eff_state_penalty>
0

> <s_user_duplicate_titles>
CHEMBL4282_lig973

> <s_m_subgroup_title>
dock_pv

> <s_m_subgroupid>
dock_pv

> <b_m_subgroup_collapsed>
1

$$$$
CHEMBL4282_lig966
                    3D
 Schrodinger Suite 2021-1.
 54 57  0  0  1  0            999 V2000
   12.3498    0.3247   17.6640 C   0  0  0  0  0  0
   11.7470   -0.1381   18.8382 C   0  0  0  0  0  0
   11.0315   -1.3378   18.8291 C   0  0  0  0  0  0
   10.9390   -2.0840   17.6588 C   0  0  0  0  0  0
   11.5414   -1.6210   16.4912 C   0  0  0  0  0  0
   12.2374   -0.4138   16.4874 C   0  0  0  0  0  0
   11.8930    0.6360   20.1472 C   0  0  0  0  0  0
   10.7697    1.6778   20.3971 C   0  0  1  0  0  0
   10.8950    2.2370   21.7574 N   0  0  0  0  0  0
   10.7537    2.8658   19.3853 C   0  0  0  0  0  0
    9.5670    3.4087   18.9928 N   0  0  0  0  0  0
   11.8425    3.2647   18.9588 O   0  0  0  0  0  0
    8.2561    3.0226   19.5283 C   0  0  0  0  0  0
    7.5047    2.2332   18.4324 C   0  0  0  0  0  0
    7.4560    2.8830   17.1093 N   0  0  0  0  0  0
    8.7629    3.4564   16.7164 C   0  0  0  0  0  0
    9.4835    4.2749   17.8124 C   0  0  0  0  0  0
    6.2477    3.3367   16.5851 C   0  0  0  0  0  0
    3.8388    4.4860   15.6683 N   0  0  0  0  0  0
    5.0162    5.1391   15.7850 C   0  0  0  0  0  0
    6.2059    4.6390   16.1904 N   0  0  0  0  0  0
   11.4311   -2.5568   15.0462 Cl  0  0  0  0  0  0
    4.7485    1.1021   16.5850 C   0  0  0  0  0  0
    3.4311    1.0345   16.1632 C   0  0  0  0  0  0
    2.9432    2.2619   15.8027 N   0  0  0  0  0  0
    3.9416    3.1856   15.9523 C   0  0  0  0  0  0
    5.1062    2.5038   16.4309 C   0  0  0  0  0  0
    5.6014   -0.0620   17.0702 C   0  0  0  0  0  0
    4.8468   -1.4073   17.1823 C   0  0  0  0  0  0
   12.9062    1.2523   17.6662 H   0  0  0  0  0  0
   10.5542   -1.7008   19.7291 H   0  0  0  0  0  0
   10.3948   -3.0172   17.6640 H   0  0  0  0  0  0
   12.6986   -0.0568   15.5786 H   0  0  0  0  0  0
   11.9201   -0.0865   20.9651 H   0  0  0  0  0  0
   12.8781    1.1048   20.1810 H   0  0  0  0  0  0
    9.8335    1.1243   20.3281 H   0  0  0  0  0  0
   10.6004    3.2185   21.7849 H   0  0  0  0  0  0
   10.2952    1.7680   22.4188 H   0  0  0  0  0  0
    8.2973    2.5029   20.4849 H   0  0  0  0  0  0
    7.7002    3.9369   19.7427 H   0  0  0  0  0  0
    6.4931    2.0668   18.8039 H   0  0  0  0  0  0
    7.9824    1.2622   18.2896 H   0  0  0  0  0  0
    8.6611    4.0749   15.8248 H   0  0  0  0  0  0
    9.4005    2.6159   16.4405 H   0  0  0  0  0  0
    8.9022    5.1662   18.0504 H   0  0  0  0  0  0
   10.4587    4.6367   17.4822 H   0  0  0  0  0  0
    5.0030    6.1918   15.5387 H   0  0  0  0  0  0
    2.7937    0.1668   16.0832 H   0  0  0  0  0  0
    2.0013    2.4214   15.4707 H   0  0  0  0  0  0
    6.4780   -0.1641   16.4309 H   0  0  0  0  0  0
    5.9850    0.1425   18.0658 H   0  0  0  0  0  0
    5.4319   -2.1444   17.7318 H   0  0  0  0  0  0
    3.9068   -1.3141   17.7253 H   0  0  0  0  0  0
    4.6081   -1.8337   16.2111 H   0  0  0  0  0  0
  1  6  1  0  0  0
  1  2  2  0  0  0
  1 30  1  0  0  0
  2  3  1  0  0  0
  2  7  1  0  0  0
  3  4  2  0  0  0
  3 31  1  0  0  0
  4  5  1  0  0  0
  4 32  1  0  0  0
  5 22  1  0  0  0
  5  6  2  0  0  0
  6 33  1  0  0  0
  7  8  1  0  0  0
  7 34  1  0  0  0
  7 35  1  0  0  0
  8  9  1  0  0  0
  8 10  1  0  0  0
  8 36  1  0  0  0
  9 37  1  0  0  0
  9 38  1  0  0  0
 10 11  1  0  0  0
 10 12  2  0  0  0
 11 17  1  0  0  0
 11 13  1  0  0  0
 13 14  1  0  0  0
 13 39  1  0  0  0
 13 40  1  0  0  0
 14 15  1  0  0  0
 14 41  1  0  0  0
 14 42  1  0  0  0
 15 16  1  0  0  0
 15 18  1  0  0  0
 16 17  1  0  0  0
 16 43  1  0  0  0
 16 44  1  0  0  0
 17 45  1  0  0  0
 17 46  1  0  0  0
 18 27  1  0  0  0
 18 21  2  0  0  0
 19 26  1  0  0  0
 19 20  2  0  0  0
 20 21  1  0  0  0
 20 47  1  0  0  0
 23 24  2  0  0  0
 23 27  1  0  0  0
 23 28  1  0  0  0
 24 25  1  0  0  0
 24 48  1  0  0  0
 25 26  1  0  0  0
 25 49  1  0  0  0
 26 27  2  0  0  0
 28 29  1  0  0  0
 28 50  1  0  0  0
 28 51  1  0  0  0
 29 52  1  0  0  0
 29 53  1  0  0  0
 29 54  1  0  0  0
M  END
> <s_m_entry_id>
2264

> <s_m_entry_name>
dock_pv.3

> <s_m_Source_Path>
/home/csk/Desktop/cluster/DUD-E-result/akt1

> <s_m_Source_File>
dock_pv.maegz

> <i_m_Source_File_Index>
3

> <chembl_id>
CHEMBL1258665

> <chembl_pref_name>
None

> <i_lp_mmshare_version>
53161

> <i_f3d_flags>
0

> <r_lp_tautomer_probability>
0.999998369746258

> <s_lp_Force_Field>
OPLS_2005

> <r_lp_Energy>
34.706485

> <b_lp_Chiralities_Consistent>
1

> <s_lp_Variant>
CHEMBL4282_lig966-1

> <s_i_glide_gridfile>
glide-grid_3cqw

> <i_i_glide_lignum>
1362

> <i_i_glide_rotatable_bonds>
6

> <r_i_docking_score>
-9.11201251580837

> <r_i_glide_ligand_efficiency>
-0.314207328131323

> <r_i_glide_ligand_efficiency_sa>
-0.965344459888124

> <r_i_glide_ligand_efficiency_ln>
-2.08641980541918

> <r_i_glide_gscore>
-9.11201251580837

> <r_i_glide_lipo>
-2.55845908051298

> <r_i_glide_hbond>
-0.268281785015629

> <r_i_glide_metal>
0

> <r_i_glide_rewards>
-3.10907680833239

> <r_i_glide_evdw>
-49.856861114502

> <r_i_glide_ecoul>
-6.73924255371094

> <r_i_glide_erotb>
0.462720847383065

> <r_i_glide_esite>
-0.135186250548699

> <r_i_glide_emodel>
-84.8043017744499

> <r_i_glide_energy>
-56.5961036682129

> <r_i_glide_einternal>
3.21640372276306

> <i_i_glide_confnum>
29

> <i_i_glide_posenum>
291

> <r_i_glide_eff_state_penalty>
0

> <s_user_duplicate_titles>
CHEMBL4282_lig966

> <s_m_subgroup_title>
dock_pv

> <s_m_subgroupid>
dock_pv

> <b_m_subgroup_collapsed>
1

$$$$
CHEMBL4282_lig965
                    3D
 Schrodinger Suite 2021-1.
 51 54  0  0  1  0            999 V2000
   11.0300   -1.1860   18.7544 C   0  0  0  0  0  0
   11.8933   -0.0909   18.7987 C   0  0  0  0  0  0
   12.6303    0.2610   17.6646 C   0  0  0  0  0  0
   12.4878   -0.4751   16.4884 C   0  0  0  0  0  0
   11.6226   -1.5665   16.4513 C   0  0  0  0  0  0
   10.9005   -1.9278   17.5851 C   0  0  0  0  0  0
   12.0211    0.7093   20.0929 C   0  0  0  0  0  0
   10.8130    1.6525   20.3472 C   0  0  1  0  0  0
   10.8785    2.2369   21.6980 N   0  0  0  0  0  0
   10.7305    2.8388   19.3415 C   0  0  0  0  0  0
    9.5200    3.3053   18.9195 N   0  0  0  0  0  0
   11.8019    3.3215   18.9578 O   0  0  0  0  0  0
    9.4371    4.2968   17.8396 C   0  0  0  0  0  0
    8.7018    3.6315   16.6535 C   0  0  0  0  0  0
    7.4032    3.0136   16.9883 N   0  0  0  0  0  0
    7.4827    2.1714   18.1964 C   0  0  0  0  0  0
    8.2144    2.8216   19.3920 C   0  0  0  0  0  0
    6.1806    3.4933   16.5220 C   0  0  0  0  0  0
    3.7395    4.6377   15.6846 N   0  0  0  0  0  0
    4.9141    5.3009   15.7848 C   0  0  0  0  0  0
    6.1129    4.8095   16.1848 N   0  0  0  0  0  0
   11.4314   -2.4728   14.9940 Cl  0  0  0  0  0  0
    4.7537    1.2350   16.3393 C   0  0  0  0  0  0
    3.4210    1.1526   15.9931 C   0  0  0  0  0  0
    2.8798    2.3937   15.7736 N   0  0  0  0  0  0
    3.8664    3.3311   15.9199 C   0  0  0  0  0  0
    5.0572    2.6510   16.3208 C   0  0  0  0  0  0
    5.6648    0.0614   16.6123 C   0  0  0  0  0  0
   10.4476   -1.4619   19.6232 H   0  0  0  0  0  0
   13.2969    1.1094   17.6902 H   0  0  0  0  0  0
   13.0431   -0.1978   15.6068 H   0  0  0  0  0  0
   10.2309   -2.7740   17.5646 H   0  0  0  0  0  0
   12.1116   -0.0076   20.9108 H   0  0  0  0  0  0
   12.9653    1.2567   20.1081 H   0  0  0  0  0  0
    9.9269    1.0233   20.2761 H   0  0  0  0  0  0
   11.7938    2.6233   21.8833 H   0  0  0  0  0  0
   10.2362    3.0252   21.7862 H   0  0  0  0  0  0
    8.8778    5.1663   18.1883 H   0  0  0  0  0  0
   10.4134    4.6681   17.5257 H   0  0  0  0  0  0
    9.3204    2.8279   16.2514 H   0  0  0  0  0  0
    8.5914    4.3607   15.8511 H   0  0  0  0  0  0
    7.9963    1.2514   17.9103 H   0  0  0  0  0  0
    6.4837    1.9003   18.5360 H   0  0  0  0  0  0
    8.2545    2.1619   20.2564 H   0  0  0  0  0  0
    7.6382    3.6833   19.7346 H   0  0  0  0  0  0
    4.8843    6.3578   15.5645 H   0  0  0  0  0  0
    2.8071    0.2750   15.8529 H   0  0  0  0  0  0
    1.9218    2.5499   15.4863 H   0  0  0  0  0  0
    5.2400   -0.8639   16.2257 H   0  0  0  0  0  0
    6.6307    0.1843   16.1289 H   0  0  0  0  0  0
    5.8389   -0.0888   17.6774 H   0  0  0  0  0  0
  1  6  1  0  0  0
  1  2  2  0  0  0
  1 29  1  0  0  0
  2  7  1  0  0  0
  2  3  1  0  0  0
  3  4  2  0  0  0
  3 30  1  0  0  0
  4  5  1  0  0  0
  4 31  1  0  0  0
  5 22  1  0  0  0
  5  6  2  0  0  0
  6 32  1  0  0  0
  7  8  1  0  0  0
  7 33  1  0  0  0
  7 34  1  0  0  0
  8  9  1  0  0  0
  8 10  1  0  0  0
  8 35  1  0  0  0
  9 36  1  0  0  0
  9 37  1  0  0  0
 10 11  1  0  0  0
 10 12  2  0  0  0
 11 17  1  0  0  0
 11 13  1  0  0  0
 13 14  1  0  0  0
 13 38  1  0  0  0
 13 39  1  0  0  0
 14 15  1  0  0  0
 14 40  1  0  0  0
 14 41  1  0  0  0
 15 16  1  0  0  0
 15 18  1  0  0  0
 16 17  1  0  0  0
 16 42  1  0  0  0
 16 43  1  0  0  0
 17 44  1  0  0  0
 17 45  1  0  0  0
 18 27  1  0  0  0
 18 21  2  0  0  0
 19 26  1  0  0  0
 19 20  2  0  0  0
 20 21  1  0  0  0
 20 46  1  0  0  0
 23 24  2  0  0  0
 23 27  1  0  0  0
 23 28  1  0  0  0
 24 25  1  0  0  0
 24 47  1  0  0  0
 25 26  1  0  0  0
 25 48  1  0  0  0
 26 27  2  0  0  0
 28 49  1  0  0  0
 28 50  1  0  0  0
 28 51  1  0  0  0
M  END
> <s_m_entry_id>
2265

> <s_m_entry_name>
dock_pv.4

> <s_m_Source_Path>
/home/csk/Desktop/cluster/DUD-E-result/akt1

> <s_m_Source_File>
dock_pv.maegz

> <i_m_Source_File_Index>
4

> <chembl_id>
CHEMBL1258664

> <chembl_pref_name>
None

> <i_lp_mmshare_version>
53161

> <i_f3d_flags>
0

> <r_lp_tautomer_probability>
0.999998369746258

> <s_lp_Force_Field>
OPLS_2005

> <r_lp_Energy>
38.168488

> <b_lp_Chiralities_Consistent>
1

> <s_lp_Variant>
CHEMBL4282_lig965-1

> <s_i_glide_gridfile>
glide-grid_3cqw

> <i_i_glide_lignum>
1361

> <i_i_glide_rotatable_bonds>
5

> <r_i_docking_score>
-8.99117845445342

> <r_i_glide_ligand_efficiency>
-0.321113516230479

> <r_i_glide_ligand_efficiency_sa>
-0.975089761022624

> <r_i_glide_ligand_efficiency_ln>
-2.07542797975846

> <r_i_glide_gscore>
-8.99117845445342

> <r_i_glide_lipo>
-2.63584802068792

> <r_i_glide_hbond>
-0.459315467349461

> <r_i_glide_metal>
0

> <r_i_glide_rewards>
-2.58840188363805

> <r_i_glide_evdw>
-47.9812774658203

> <r_i_glide_ecoul>
-7.52409601211548

> <r_i_glide_erotb>
0.34472143110361

> <r_i_glide_esite>
-0.124656238773264

> <r_i_glide_emodel>
-83.8760201610331

> <r_i_glide_energy>
-55.5053734779358

> <r_i_glide_einternal>
4.3901743888855

> <i_i_glide_confnum>
22

> <i_i_glide_posenum>
278

> <r_i_glide_eff_state_penalty>
0

> <s_user_duplicate_titles>
CHEMBL4282_lig965

> <s_m_subgroup_title>
dock_pv

> <s_m_subgroupid>
dock_pv

> <b_m_subgroup_collapsed>
1

$$$$
CHEMBL4282_lig1304
                    3D
 Schrodinger Suite 2021-1.
 51 54  0  0  1  0            999 V2000
   11.0304   -2.7867   18.0152 C   0  0  0  0  0  0
   11.4527   -3.1964   16.7531 C   0  0  0  0  0  0
   12.2303   -2.3555   15.9610 C   0  0  0  0  0  0
   12.5938   -1.0967   16.4340 C   0  0  0  0  0  0
   12.1831   -0.6794   17.7046 C   0  0  0  0  0  0
   11.3925   -1.5291   18.4884 C   0  0  0  0  0  0
   12.5749    0.7125   18.2186 C   0  0  1  0  0  0
   11.4826    1.4326   18.8710 N   0  0  0  0  0  0
   10.3764    1.9178   18.2785 C   0  0  0  0  0  0
   10.2313    1.8372   17.0584 O   0  0  0  0  0  0
    9.2877    2.6048   19.1842 C   0  0  0  0  0  0
    9.7017    2.6369   20.5848 N   0  0  0  0  0  0
    8.9675    4.0241   18.6690 C   0  0  0  0  0  0
    8.2374    4.0836   17.3069 C   0  0  0  0  0  0
    7.0019    3.2685   17.2502 N   0  0  0  0  0  0
    7.1816    1.9067   17.7883 C   0  0  0  0  0  0
    7.9589    1.8291   19.1162 C   0  0  0  0  0  0
    5.8673    3.6563   16.5271 C   0  0  0  0  0  0
    5.7733    4.9705   16.1841 N   0  0  0  0  0  0
    4.5762    5.4368   15.7616 C   0  0  0  0  0  0
    3.4307    4.7377   15.5856 N   0  0  0  0  0  0
    4.7894    2.7863   16.2192 C   0  0  0  0  0  0
    3.5925    3.4289   15.7847 C   0  0  0  0  0  0
    2.6424    2.4599   15.5710 N   0  0  0  0  0  0
    3.2078    1.2287   15.7857 C   0  0  0  0  0  0
    4.5131    1.3744   16.2028 C   0  0  0  0  0  0
   13.7745    0.6368   19.1725 C   0  0  0  0  0  0
   10.4172   -3.4331   18.6274 H   0  0  0  0  0  0
   11.1723   -4.1726   16.3854 H   0  0  0  0  0  0
   12.5518   -2.6809   14.9845 H   0  0  0  0  0  0
   13.1899   -0.4479   15.8097 H   0  0  0  0  0  0
   11.0517   -1.2145   19.4650 H   0  0  0  0  0  0
   12.8877    1.3200   17.3665 H   0  0  0  0  0  0
   11.5449    1.5834   19.8691 H   0  0  0  0  0  0
    9.8435    3.6032   20.9077 H   0  0  0  0  0  0
    8.9499    2.2940   21.1630 H   0  0  0  0  0  0
    8.5019    4.6500   19.4331 H   0  0  0  0  0  0
    9.9135    4.5580   18.5561 H   0  0  0  0  0  0
    7.9971    5.1327   17.1558 H   0  0  0  0  0  0
    8.8904    3.8145   16.4761 H   0  0  0  0  0  0
    6.1986    1.5348   18.0674 H   0  0  0  0  0  0
    7.5691    1.2324   17.0300 H   0  0  0  0  0  0
    8.1796    0.7755   19.3073 H   0  0  0  0  0  0
    7.3150    2.0273   19.9763 H   0  0  0  0  0  0
    4.5252    6.4967   15.5598 H   0  0  0  0  0  0
    1.6890    2.6022   15.2535 H   0  0  0  0  0  0
    2.6313    0.3306   15.6238 H   0  0  0  0  0  0
    5.1755    0.5561   16.4415 H   0  0  0  0  0  0
   14.6314    0.1817   18.6811 H   0  0  0  0  0  0
   14.0813    1.6295   19.5035 H   0  0  0  0  0  0
   13.5465    0.0462   20.0603 H   0  0  0  0  0  0
  1  2  2  0  0  0
  1  6  1  0  0  0
  1 28  1  0  0  0
  2  3  1  0  0  0
  2 29  1  0  0  0
  3  4  2  0  0  0
  3 30  1  0  0  0
  4  5  1  0  0  0
  4 31  1  0  0  0
  5  6  2  0  0  0
  5  7  1  0  0  0
  6 32  1  0  0  0
  7  8  1  0  0  0
  7 27  1  0  0  0
  7 33  1  0  0  0
  8  9  1  0  0  0
  8 34  1  0  0  0
  9 10  2  0  0  0
  9 11  1  0  0  0
 11 12  1  0  0  0
 11 13  1  0  0  0
 11 17  1  0  0  0
 12 35  1  0  0  0
 12 36  1  0  0  0
 13 14  1  0  0  0
 13 37  1  0  0  0
 13 38  1  0  0  0
 14 15  1  0  0  0
 14 39  1  0  0  0
 14 40  1  0  0  0
 15 16  1  0  0  0
 15 18  1  0  0  0
 16 17  1  0  0  0
 16 41  1  0  0  0
 16 42  1  0  0  0
 17 43  1  0  0  0
 17 44  1  0  0  0
 18 19  2  0  0  0
 18 22  1  0  0  0
 19 20  1  0  0  0
 20 21  2  0  0  0
 20 45  1  0  0  0
 21 23  1  0  0  0
 22 23  2  0  0  0
 22 26  1  0  0  0
 23 24  1  0  0  0
 24 25  1  0  0  0
 24 46  1  0  0  0
 25 26  2  0  0  0
 25 47  1  0  0  0
 26 48  1  0  0  0
 27 49  1  0  0  0
 27 50  1  0  0  0
 27 51  1  0  0  0
M  END
> <s_m_entry_id>
2266

> <s_m_entry_name>
dock_pv.5

> <s_m_Source_Path>
/home/csk/Desktop/cluster/DUD-E-result/akt1

> <s_m_Source_File>
dock_pv.maegz

> <i_m_Source_File_Index>
5

> <chembl_id>
CHEMBL2325986

> <chembl_pref_name>
None

> <i_lp_mmshare_version>
53161

> <i_f3d_flags>
0

> <r_lp_tautomer_probability>
0.999998369746258

> <s_lp_Force_Field>
OPLS_2005

> <r_lp_Energy>
22.146263

> <b_lp_Chiralities_Consistent>
1

> <s_lp_Variant>
CHEMBL4282_lig1304-2

> <s_i_glide_gridfile>
glide-grid_3cqw

> <i_i_glide_lignum>
1808

> <i_i_glide_rotatable_bonds>
5

> <r_i_docking_score>
-8.97027010730947

> <r_i_glide_ligand_efficiency>
-0.332232226196647

> <r_i_glide_ligand_efficiency_sa>
-0.996696677494958

> <r_i_glide_ligand_efficiency_ln>
-2.08813099452097

> <r_i_glide_gscore>
-8.97027010730947

> <r_i_glide_lipo>
-2.29833605595614

> <r_i_glide_hbond>
-0.72

> <r_i_glide_metal>
0

> <r_i_glide_rewards>
-2.68339328908624

> <r_i_glide_evdw>
-43.5168342590332

> <r_i_glide_ecoul>
-9.7587776184082

> <r_i_glide_erotb>
0.405284144879203

> <r_i_glide_esite>
-0.0341665514333995

> <r_i_glide_emodel>
-80.3242927905853

> <r_i_glide_energy>
-53.2756118774414

> <r_i_glide_einternal>
3.7856822013855

> <i_i_glide_confnum>
49

> <i_i_glide_posenum>
176

> <r_i_glide_eff_state_penalty>
0

> <s_user_duplicate_titles>
CHEMBL4282_lig1304

> <s_m_subgroup_title>
dock_pv

> <s_m_subgroupid>
dock_pv

> <b_m_subgroup_collapsed>
1

$$$$
CHEMBL4282_lig1301
                    3D
 Schrodinger Suite 2021-1.
 50 53  0  0  1  0            999 V2000
   12.1239   -2.2808   15.9442 C   0  0  0  0  0  0
   11.4332   -3.1245   16.8159 C   0  0  0  0  0  0
   11.1662   -2.6687   18.1077 C   0  0  0  0  0  0
   11.5548   -1.4469   18.5499 N   0  0  0  0  0  0
   12.2293   -0.6315   17.6918 C   0  0  0  0  0  0
   12.5301   -1.0168   16.3800 C   0  0  0  0  0  0
   12.6117    0.7580   18.2203 C   0  0  1  0  0  0
   11.5082    1.4657   18.8710 N   0  0  0  0  0  0
   10.3913    1.9269   18.2780 C   0  0  0  0  0  0
   10.2436    1.8370   17.0583 O   0  0  0  0  0  0
    9.2921    2.5996   19.1815 C   0  0  0  0  0  0
    9.6982    2.6369   20.5849 N   0  0  0  0  0  0
    8.9645    4.0186   18.6699 C   0  0  0  0  0  0
    8.2361    4.0784   17.3086 C   0  0  0  0  0  0
    7.0000    3.2647   17.2540 N   0  0  0  0  0  0
    7.1850    1.9000   17.7835 C   0  0  0  0  0  0
    7.9724    1.8069   19.1043 C   0  0  0  0  0  0
    5.8673    3.6543   16.5285 C   0  0  0  0  0  0
    5.7756    4.9688   16.1849 N   0  0  0  0  0  0
    4.5791    5.4372   15.7617 C   0  0  0  0  0  0
    3.4336    4.7379   15.5865 N   0  0  0  0  0  0
    4.7892    2.7856   16.2184 C   0  0  0  0  0  0
    3.5928    3.4290   15.7848 C   0  0  0  0  0  0
    2.6412    2.4608   15.5718 N   0  0  0  0  0  0
    3.2068    1.2290   15.7851 C   0  0  0  0  0  0
    4.5128    1.3740   16.1987 C   0  0  0  0  0  0
   13.8004    0.6816   19.1900 C   0  0  0  0  0  0
   12.3376   -2.6036   14.9376 H   0  0  0  0  0  0
   11.1089   -4.1034   16.4957 H   0  0  0  0  0  0
   10.6221   -3.2772   18.8171 H   0  0  0  0  0  0
   13.0513   -0.3515   15.7083 H   0  0  0  0  0  0
   12.9327    1.3715   17.3762 H   0  0  0  0  0  0
   11.5599    1.6003   19.8724 H   0  0  0  0  0  0
    9.8313    3.6051   20.9077 H   0  0  0  0  0  0
    8.9448    2.2896   21.1581 H   0  0  0  0  0  0
    8.4938    4.6387   19.4352 H   0  0  0  0  0  0
    9.9068    4.5589   18.5590 H   0  0  0  0  0  0
    7.9978    5.1272   17.1544 H   0  0  0  0  0  0
    8.8887    3.8065   16.4788 H   0  0  0  0  0  0
    6.2029    1.5268   18.0664 H   0  0  0  0  0  0
    7.5649    1.2330   17.0138 H   0  0  0  0  0  0
    8.2056    0.7523   19.2724 H   0  0  0  0  0  0
    7.3291    1.9842   19.9688 H   0  0  0  0  0  0
    4.5282    6.4976   15.5611 H   0  0  0  0  0  0
    1.6870    2.6047   15.2567 H   0  0  0  0  0  0
    2.6310    0.3309   15.6233 H   0  0  0  0  0  0
    5.1756    0.5555   16.4359 H   0  0  0  0  0  0
   14.6686    0.2381   18.7088 H   0  0  0  0  0  0
   14.0955    1.6735   19.5352 H   0  0  0  0  0  0
   13.5641    0.0812   20.0699 H   0  0  0  0  0  0
  1  2  2  0  0  0
  1  6  1  0  0  0
  1 28  1  0  0  0
  2  3  1  0  0  0
  2 29  1  0  0  0
  3  4  2  0  0  0
  3 30  1  0  0  0
  4  5  1  0  0  0
  5  6  2  0  0  0
  5  7  1  0  0  0
  6 31  1  0  0  0
  7  8  1  0  0  0
  7 27  1  0  0  0
  7 32  1  0  0  0
  8  9  1  0  0  0
  8 33  1  0  0  0
  9 10  2  0  0  0
  9 11  1  0  0  0
 11 12  1  0  0  0
 11 13  1  0  0  0
 11 17  1  0  0  0
 12 34  1  0  0  0
 12 35  1  0  0  0
 13 14  1  0  0  0
 13 36  1  0  0  0
 13 37  1  0  0  0
 14 15  1  0  0  0
 14 38  1  0  0  0
 14 39  1  0  0  0
 15 16  1  0  0  0
 15 18  1  0  0  0
 16 17  1  0  0  0
 16 40  1  0  0  0
 16 41  1  0  0  0
 17 42  1  0  0  0
 17 43  1  0  0  0
 18 19  2  0  0  0
 18 22  1  0  0  0
 19 20  1  0  0  0
 20 21  2  0  0  0
 20 44  1  0  0  0
 21 23  1  0  0  0
 22 23  2  0  0  0
 22 26  1  0  0  0
 23 24  1  0  0  0
 24 25  1  0  0  0
 24 45  1  0  0  0
 25 26  2  0  0  0
 25 46  1  0  0  0
 26 47  1  0  0  0
 27 48  1  0  0  0
 27 49  1  0  0  0
 27 50  1  0  0  0
M  END
> <s_m_entry_id>
2267

> <s_m_entry_name>
dock_pv.6

> <s_m_Source_Path>
/home/csk/Desktop/cluster/DUD-E-result/akt1

> <s_m_Source_File>
dock_pv.maegz

> <i_m_Source_File_Index>
6

> <chembl_id>
CHEMBL2325989

> <chembl_pref_name>
None

> <i_lp_mmshare_version>
53161

> <i_f3d_flags>
0

> <r_lp_tautomer_probability>
0.999998369746258

> <s_lp_Force_Field>
OPLS_2005

> <r_lp_Energy>
16.711649

> <b_lp_Chiralities_Consistent>
1

> <s_lp_Variant>
CHEMBL4282_lig1301-2

> <s_i_glide_gridfile>
glide-grid_3cqw

> <i_i_glide_lignum>
1802

> <i_i_glide_rotatable_bonds>
5

> <r_i_docking_score>
-8.94708504432317

> <r_i_glide_ligand_efficiency>
-0.331373520160117

> <r_i_glide_ligand_efficiency_sa>
-0.994120559388199

> <r_i_glide_ligand_efficiency_ln>
-2.0827338940934

> <r_i_glide_gscore>
-8.94708504432317

> <r_i_glide_lipo>
-2.30144906016936

> <r_i_glide_hbond>
-0.72

> <r_i_glide_metal>
0

> <r_i_glide_rewards>
-2.67549515440495

> <r_i_glide_evdw>
-43.6314582824707

> <r_i_glide_ecoul>
-9.58111953735352

> <r_i_glide_erotb>
0.403330286619669

> <r_i_glide_esite>
-0.0347302716419677

> <r_i_glide_emodel>
-80.8355956604394

> <r_i_glide_energy>
-53.2125778198242

> <r_i_glide_einternal>
3.37371635437012

> <i_i_glide_confnum>
51

> <i_i_glide_posenum>
100

> <r_i_glide_eff_state_penalty>
0

> <s_user_duplicate_titles>
CHEMBL4282_lig1301

> <s_m_subgroup_title>
dock_pv

> <s_m_subgroupid>
dock_pv

> <b_m_subgroup_collapsed>
1

$$$$
CHEMBL4282_lig1304
                    3D
 Schrodinger Suite 2021-1.
 51 54  0  0  1  0            999 V2000
   11.6926   -1.9867   15.3848 C   0  0  0  0  0  0
   11.2984   -3.2597   15.7853 C   0  0  0  0  0  0
   11.1040   -3.5481   17.1333 C   0  0  0  0  0  0
   11.3155   -2.5557   18.0866 C   0  0  0  0  0  0
   11.7271   -1.2749   17.6984 C   0  0  0  0  0  0
   11.9194   -0.9981   16.3388 C   0  0  0  0  0  0
   12.0451   -0.2333   18.7805 C   0  0  2  0  0  0
   10.9185    0.6241   19.1524 N   0  0  0  0  0  0
   10.3248    1.6044   18.4374 C   0  0  0  0  0  0
   10.6316    1.8333   17.2667 O   0  0  0  0  0  0
    9.2513    2.4754   19.1911 C   0  0  0  0  0  0
    9.6554    2.6369   20.5843 N   0  0  0  0  0  0
    9.0523    3.8628   18.5292 C   0  0  0  0  0  0
    8.3066    3.8510   17.1711 C   0  0  0  0  0  0
    7.0179    3.1241   17.2073 N   0  0  0  0  0  0
    7.1492    1.7852   17.8089 C   0  0  0  0  0  0
    7.8798    1.7833   19.1602 C   0  0  0  0  0  0
    5.8749    3.5383   16.5141 C   0  0  0  0  0  0
    5.7887    4.8567   16.1849 N   0  0  0  0  0  0
    4.5863    5.3346   15.7822 C   0  0  0  0  0  0
    3.4345    4.6408   15.6053 N   0  0  0  0  0  0
    4.7891    2.6792   16.2105 C   0  0  0  0  0  0
    3.5930    3.3282   15.7850 C   0  0  0  0  0  0
    2.6406    2.3597   15.5720 N   0  0  0  0  0  0
    3.2054    1.1267   15.7855 C   0  0  0  0  0  0
    4.5128    1.2685   16.1887 C   0  0  0  0  0  0
   13.3334    0.5788   18.5243 C   0  0  0  0  0  0
   11.8268   -1.7685   14.3360 H   0  0  0  0  0  0
   11.1337   -4.0274   15.0439 H   0  0  0  0  0  0
   10.7937   -4.5357   17.4417 H   0  0  0  0  0  0
   11.1626   -2.7881   19.1311 H   0  0  0  0  0  0
   12.2313   -0.0162   16.0156 H   0  0  0  0  0  0
   12.2562   -0.7976   19.6912 H   0  0  0  0  0  0
   10.4938    0.4299   20.0478 H   0  0  0  0  0  0
   10.6619    2.6020   20.6392 H   0  0  0  0  0  0
    9.4399    3.5741   20.9369 H   0  0  0  0  0  0
    8.6425    4.5973   19.2255 H   0  0  0  0  0  0
   10.0364    4.3046   18.3627 H   0  0  0  0  0  0
    8.1384    4.8943   16.9063 H   0  0  0  0  0  0
    8.9247    3.4401   16.3726 H   0  0  0  0  0  0
    6.1552    1.4331   18.0763 H   0  0  0  0  0  0
    7.5642    1.0680   17.1053 H   0  0  0  0  0  0
    8.0342    0.7374   19.4273 H   0  0  0  0  0  0
    7.2361    2.0848   19.9891 H   0  0  0  0  0  0
    4.5376    6.3977   15.5979 H   0  0  0  0  0  0
    1.6859    2.5052   15.2619 H   0  0  0  0  0  0
    2.6313    0.2301   15.6239 H   0  0  0  0  0  0
    5.1768    0.4485   16.4178 H   0  0  0  0  0  0
   14.1944   -0.0786   18.4121 H   0  0  0  0  0  0
   13.2634    1.1980   17.6302 H   0  0  0  0  0  0
   13.5470    1.2472   19.3594 H   0  0  0  0  0  0
  1  2  2  0  0  0
  1  6  1  0  0  0
  1 28  1  0  0  0
  2  3  1  0  0  0
  2 29  1  0  0  0
  3  4  2  0  0  0
  3 30  1  0  0  0
  4  5  1  0  0  0
  4 31  1  0  0  0
  5  6  2  0  0  0
  5  7  1  0  0  0
  6 32  1  0  0  0
  7  8  1  0  0  0
  7 27  1  0  0  0
  7 33  1  0  0  0
  8  9  1  0  0  0
  8 34  1  0  0  0
  9 10  2  0  0  0
  9 11  1  0  0  0
 11 12  1  0  0  0
 11 13  1  0  0  0
 11 17  1  0  0  0
 12 35  1  0  0  0
 12 36  1  0  0  0
 13 14  1  0  0  0
 13 37  1  0  0  0
 13 38  1  0  0  0
 14 15  1  0  0  0
 14 39  1  0  0  0
 14 40  1  0  0  0
 15 16  1  0  0  0
 15 18  1  0  0  0
 16 17  1  0  0  0
 16 41  1  0  0  0
 16 42  1  0  0  0
 17 43  1  0  0  0
 17 44  1  0  0  0
 18 19  2  0  0  0
 18 22  1  0  0  0
 19 20  1  0  0  0
 20 21  2  0  0  0
 20 45  1  0  0  0
 21 23  1  0  0  0
 22 23  2  0  0  0
 22 26  1  0  0  0
 23 24  1  0  0  0
 24 25  1  0  0  0
 24 46  1  0  0  0
 25 26  2  0  0  0
 25 47  1  0  0  0
 26 48  1  0  0  0
 27 49  1  0  0  0
 27 50  1  0  0  0
 27 51  1  0  0  0
M  END
> <s_m_entry_id>
2268

> <s_m_entry_name>
dock_pv.7

> <s_m_Source_Path>
/home/csk/Desktop/cluster/DUD-E-result/akt1

> <s_m_Source_File>
dock_pv.maegz

> <i_m_Source_File_Index>
7

> <chembl_id>
CHEMBL2325986

> <chembl_pref_name>
None

> <i_lp_mmshare_version>
53161

> <i_f3d_flags>
0

> <r_lp_tautomer_probability>
0.999998369746258

> <s_lp_Force_Field>
OPLS_2005

> <r_lp_Energy>
20.700286

> <b_lp_Chiralities_Consistent>
1

> <s_lp_Variant>
CHEMBL4282_lig1304-1

> <s_i_glide_gridfile>
glide-grid_3cqw

> <i_i_glide_lignum>
1807

> <i_i_glide_rotatable_bonds>
5

> <r_i_docking_score>
-8.88127737658836

> <r_i_glide_ligand_efficiency>
-0.328936199132902

> <r_i_glide_ligand_efficiency_sa>
-0.986808596314587

> <r_i_glide_ligand_efficiency_ln>
-2.06741495396893

> <r_i_glide_gscore>
-8.88127737658836

> <r_i_glide_lipo>
-2.26956351753332

> <r_i_glide_hbond>
-0.719002689094221

> <r_i_glide_metal>
0

> <r_i_glide_rewards>
-2.69963590071046

> <r_i_glide_evdw>
-44.9557342529297

> <r_i_glide_ecoul>
-8.76850891113281

> <r_i_glide_erotb>
0.405284144879203

> <r_i_glide_esite>
-0.0352963648131568

> <r_i_glide_emodel>
-75.8821849434467

> <r_i_glide_energy>
-53.7242431640625

> <r_i_glide_einternal>
4.11919403076172

> <i_i_glide_confnum>
30

> <i_i_glide_posenum>
120

> <r_i_glide_eff_state_penalty>
0

> <s_user_duplicate_titles>
CHEMBL4282_lig1304

> <s_m_subgroup_title>
dock_pv

> <s_m_subgroupid>
dock_pv

> <b_m_subgroup_collapsed>
1

$$$$
CHEMBL4282_lig1308
                    3D
 Schrodinger Suite 2021-1.
 54 57  0  0  1  0            999 V2000
   11.1561   -2.5727   17.8078 C   0  0  0  0  0  0
   11.5733   -2.5023   16.4806 C   0  0  0  0  0  0
   12.3124   -1.4143   16.0249 C   0  0  0  0  0  0
   12.6309   -0.3821   16.9005 C   0  0  0  0  0  0
   12.2050   -0.4362   18.2312 C   0  0  0  0  0  0
   11.4719   -1.5389   18.6836 C   0  0  0  0  0  0
   11.1572   -3.7631   15.3846 Cl  0  0  0  0  0  0
   12.4816    0.7476   19.1686 C   0  0  1  0  0  0
   11.2527    1.4329   19.5695 N   0  0  0  0  0  0
   10.2918    1.9322   18.7672 C   0  0  0  0  0  0
   10.3845    1.8697   17.5379 O   0  0  0  0  0  0
    9.0308    2.5762   19.4513 C   0  0  0  0  0  0
    9.1726    2.6370   20.9048 N   0  0  0  0  0  0
    8.7356    3.9804   18.8715 C   0  0  0  0  0  0
    8.1993    3.9966   17.4201 C   0  0  0  0  0  0
    6.9917    3.1597   17.2528 N   0  0  0  0  0  0
    7.2215    1.7853   17.7305 C   0  0  0  0  0  0
    7.8039    1.6914   19.1532 C   0  0  0  0  0  0
    5.8615    3.5581   16.5283 C   0  0  0  0  0  0
    5.7758    4.8734   16.1850 N   0  0  0  0  0  0
    4.5793    5.3497   15.7712 C   0  0  0  0  0  0
    3.4310    4.6543   15.5950 N   0  0  0  0  0  0
    4.7819    2.6936   16.2133 C   0  0  0  0  0  0
    3.5865    3.3431   15.7849 C   0  0  0  0  0  0
    2.6314    2.3774   15.5721 N   0  0  0  0  0  0
    3.1949    1.1443   15.7850 C   0  0  0  0  0  0
    4.5009    1.2827   16.1850 C   0  0  0  0  0  0
   13.2865    0.3628   20.4331 C   0  0  0  0  0  0
   14.6320   -0.3283   20.1636 C   0  0  0  0  0  0
   10.5740   -3.4121   18.1592 H   0  0  0  0  0  0
   12.6265   -1.3643   14.9926 H   0  0  0  0  0  0
   13.1787    0.4743   16.5359 H   0  0  0  0  0  0
   11.1165   -1.5794   19.7036 H   0  0  0  0  0  0
   13.0777    1.4885   18.6301 H   0  0  0  0  0  0
   11.1334    1.6364   20.5533 H   0  0  0  0  0  0
    9.5652    3.5477   21.1880 H   0  0  0  0  0  0
    8.2607    2.6162   21.3374 H   0  0  0  0  0  0
    8.1328    4.5898   19.5476 H   0  0  0  0  0  0
    9.6654    4.5526   18.8885 H   0  0  0  0  0  0
    7.9826    5.0370   17.1853 H   0  0  0  0  0  0
    8.9558    3.6891   16.6983 H   0  0  0  0  0  0
    6.2642    1.2991   17.8687 H   0  0  0  0  0  0
    7.7728    1.2127   16.9888 H   0  0  0  0  0  0
    8.0804    0.6487   19.3301 H   0  0  0  0  0  0
    7.0225    1.7994   19.9085 H   0  0  0  0  0  0
    4.5329    6.4109   15.5749 H   0  0  0  0  0  0
    1.6782    2.5237   15.2569 H   0  0  0  0  0  0
    2.6310    0.2412   15.6168 H   0  0  0  0  0  0
    5.1547    0.4501   16.3959 H   0  0  0  0  0  0
   13.4815    1.2683   21.0106 H   0  0  0  0  0  0
   12.6825   -0.2718   21.0837 H   0  0  0  0  0  0
   15.2067   -0.4282   21.0846 H   0  0  0  0  0  0
   14.4845   -1.3317   19.7660 H   0  0  0  0  0  0
   15.2369    0.2389   19.4549 H   0  0  0  0  0  0
  1  2  2  0  0  0
  1  6  1  0  0  0
  1 30  1  0  0  0
  2  3  1  0  0  0
  2  7  1  0  0  0
  3  4  2  0  0  0
  3 31  1  0  0  0
  4  5  1  0  0  0
  4 32  1  0  0  0
  5  6  2  0  0  0
  5  8  1  0  0  0
  6 33  1  0  0  0
  8  9  1  0  0  0
  8 28  1  0  0  0
  8 34  1  0  0  0
  9 10  1  0  0  0
  9 35  1  0  0  0
 10 11  2  0  0  0
 10 12  1  0  0  0
 12 13  1  0  0  0
 12 14  1  0  0  0
 12 18  1  0  0  0
 13 36  1  0  0  0
 13 37  1  0  0  0
 14 15  1  0  0  0
 14 38  1  0  0  0
 14 39  1  0  0  0
 15 16  1  0  0  0
 15 40  1  0  0  0
 15 41  1  0  0  0
 16 17  1  0  0  0
 16 19  1  0  0  0
 17 18  1  0  0  0
 17 42  1  0  0  0
 17 43  1  0  0  0
 18 44  1  0  0  0
 18 45  1  0  0  0
 19 20  2  0  0  0
 19 23  1  0  0  0
 20 21  1  0  0  0
 21 22  2  0  0  0
 21 46  1  0  0  0
 22 24  1  0  0  0
 23 24  2  0  0  0
 23 27  1  0  0  0
 24 25  1  0  0  0
 25 26  1  0  0  0
 25 47  1  0  0  0
 26 27  2  0  0  0
 26 48  1  0  0  0
 27 49  1  0  0  0
 28 29  1  0  0  0
 28 50  1  0  0  0
 28 51  1  0  0  0
 29 52  1  0  0  0
 29 53  1  0  0  0
 29 54  1  0  0  0
M  END
> <s_m_entry_id>
2269

> <s_m_entry_name>
dock_pv.8

> <s_m_Source_Path>
/home/csk/Desktop/cluster/DUD-E-result/akt1

> <s_m_Source_File>
dock_pv.maegz

> <i_m_Source_File_Index>
8

> <chembl_id>
CHEMBL2325982

> <chembl_pref_name>
None

> <i_lp_mmshare_version>
53161

> <i_f3d_flags>
0

> <r_lp_tautomer_probability>
0.999998369746258

> <s_lp_Force_Field>
OPLS_2005

> <r_lp_Energy>
23.319122

> <b_lp_Chiralities_Consistent>
1

> <s_lp_Variant>
CHEMBL4282_lig1308-2

> <s_i_glide_gridfile>
glide-grid_3cqw

> <i_i_glide_lignum>
1816

> <i_i_glide_rotatable_bonds>
6

> <r_i_docking_score>
-8.87326750846901

> <r_i_glide_ligand_efficiency>
-0.305974741671345

> <r_i_glide_ligand_efficiency_sa>
-0.940051346016611

> <r_i_glide_ligand_efficiency_ln>
-2.03175325278949

> <r_i_glide_gscore>
-8.87326750846901

> <r_i_glide_lipo>
-2.41390809053098

> <r_i_glide_hbond>
-0.72

> <r_i_glide_metal>
0

> <r_i_glide_rewards>
-2.3561249831965

> <r_i_glide_evdw>
-41.9209632873535

> <r_i_glide_ecoul>
-10.4363870620728

> <r_i_glide_erotb>
0.323904593168145

> <r_i_glide_esite>
-0.0456328042310878

> <r_i_glide_emodel>
-77.5634866366658

> <r_i_glide_energy>
-52.3573503494263

> <r_i_glide_einternal>
5.10086011886597

> <i_i_glide_confnum>
22

> <i_i_glide_posenum>
60

> <r_i_glide_eff_state_penalty>
0

> <s_user_duplicate_titles>
CHEMBL4282_lig1308

> <s_m_subgroup_title>
dock_pv

> <s_m_subgroupid>
dock_pv

> <b_m_subgroup_collapsed>
1

$$$$
CHEMBL4282_lig1311
                    3D
 Schrodinger Suite 2021-1.
 48 51  0  0  1  0            999 V2000
    9.0357    2.6370   20.9850 N   0  0  0  0  0  0
    8.9494    2.5610   19.5331 C   0  0  0  0  0  0
    8.6901    3.9643   18.9236 C   0  0  0  0  0  0
    8.2040    3.9675   17.4515 C   0  0  0  0  0  0
    6.9972    3.1357   17.2535 N   0  0  0  0  0  0
    7.2081    1.7709   17.7657 C   0  0  0  0  0  0
    7.7165    1.7085   19.2051 C   0  0  0  0  0  0
    5.8663    3.5421   16.5331 C   0  0  0  0  0  0
    5.7865    4.8567   16.1850 N   0  0  0  0  0  0
    4.5912    5.3368   15.7680 C   0  0  0  0  0  0
    3.4378    4.6474   15.5947 N   0  0  0  0  0  0
    3.5900    3.3360   15.7850 C   0  0  0  0  0  0
    2.6322    2.3732   15.5716 N   0  0  0  0  0  0
    3.1931    1.1392   15.7850 C   0  0  0  0  0  0
    4.4986    1.2726   16.1850 C   0  0  0  0  0  0
    4.7833    2.6824   16.2165 C   0  0  0  0  0  0
   10.2374    1.8810   18.9463 C   0  0  0  0  0  0
   10.6589    2.1746   17.8257 O   0  0  0  0  0  0
   10.8641    0.9684   19.7207 N   0  0  0  0  0  0
   12.1152    0.2889   19.4063 C   0  0  0  0  0  0
   11.9869   -0.7283   18.2864 C   0  0  0  0  0  0
   11.5049   -2.0118   18.5587 C   0  0  0  0  0  0
   11.4306   -2.9530   17.5365 C   0  0  0  0  0  0
   11.8408   -2.6038   16.2521 C   0  0  0  0  0  0
   11.7706   -3.7630   14.9850 Cl  0  0  0  0  0  0
   12.3172   -1.3255   15.9797 C   0  0  0  0  0  0
   12.4019   -0.3874   16.9987 C   0  0  0  0  0  0
    9.8309    2.1077   21.3020 H   0  0  0  0  0  0
    9.2694    3.5977   21.2708 H   0  0  0  0  0  0
    8.0706    4.5873   19.5717 H   0  0  0  0  0  0
    9.6245    4.5274   18.9660 H   0  0  0  0  0  0
    8.0071    5.0062   17.1886 H   0  0  0  0  0  0
    8.9816    3.6355   16.7637 H   0  0  0  0  0  0
    6.2577    1.2633   17.8556 H   0  0  0  0  0  0
    7.8310    1.1906   17.0946 H   0  0  0  0  0  0
    7.9646    0.6611   19.3855 H   0  0  0  0  0  0
    6.9105    1.8390   19.9314 H   0  0  0  0  0  0
    4.5501    6.3979   15.5697 H   0  0  0  0  0  0
    1.6795    2.5216   15.2559 H   0  0  0  0  0  0
    2.6310    0.2370   15.6128 H   0  0  0  0  0  0
    5.1487    0.4361   16.3906 H   0  0  0  0  0  0
   10.3533    0.6092   20.5131 H   0  0  0  0  0  0
   12.4594   -0.2227   20.3064 H   0  0  0  0  0  0
   12.8916    1.0209   19.1715 H   0  0  0  0  0  0
   11.1803   -2.2771   19.5552 H   0  0  0  0  0  0
   11.0591   -3.9460   17.7432 H   0  0  0  0  0  0
   12.6310   -1.0611   14.9850 H   0  0  0  0  0  0
   12.7749    0.6048   16.7869 H   0  0  0  0  0  0
  1  2  1  0  0  0
  1 28  1  0  0  0
  1 29  1  0  0  0
  2  3  1  0  0  0
  2  7  1  0  0  0
  2 17  1  0  0  0
  3  4  1  0  0  0
  3 30  1  0  0  0
  3 31  1  0  0  0
  4  5  1  0  0  0
  4 32  1  0  0  0
  4 33  1  0  0  0
  5  6  1  0  0  0
  5  8  1  0  0  0
  6  7  1  0  0  0
  6 34  1  0  0  0
  6 35  1  0  0  0
  7 36  1  0  0  0
  7 37  1  0  0  0
  8  9  2  0  0  0
  8 16  1  0  0  0
  9 10  1  0  0  0
 10 11  2  0  0  0
 10 38  1  0  0  0
 11 12  1  0  0  0
 12 13  1  0  0  0
 12 16  2  0  0  0
 13 14  1  0  0  0
 13 39  1  0  0  0
 14 15  2  0  0  0
 14 40  1  0  0  0
 15 16  1  0  0  0
 15 41  1  0  0  0
 17 18  2  0  0  0
 17 19  1  0  0  0
 19 20  1  0  0  0
 19 42  1  0  0  0
 20 21  1  0  0  0
 20 43  1  0  0  0
 20 44  1  0  0  0
 21 22  2  0  0  0
 21 27  1  0  0  0
 22 23  1  0  0  0
 22 45  1  0  0  0
 23 24  2  0  0  0
 23 46  1  0  0  0
 24 25  1  0  0  0
 24 26  1  0  0  0
 26 27  2  0  0  0
 26 47  1  0  0  0
 27 48  1  0  0  0
M  END
> <s_m_entry_id>
2270

> <s_m_entry_name>
dock_pv.9

> <s_m_Source_Path>
/home/csk/Desktop/cluster/DUD-E-result/akt1

> <s_m_Source_File>
dock_pv.maegz

> <i_m_Source_File_Index>
9

> <chembl_id>
CHEMBL598194

> <chembl_pref_name>
None

> <i_lp_mmshare_version>
53161

> <i_f3d_flags>
0

> <r_lp_tautomer_probability>
0.999998369746258

> <s_lp_Force_Field>
OPLS_2005

> <r_lp_Energy>
23.038014

> <b_lp_Chiralities_Consistent>
1

> <s_lp_Variant>
CHEMBL4282_lig1311-1

> <s_i_glide_gridfile>
glide-grid_3cqw

> <i_i_glide_lignum>
1820

> <i_i_glide_rotatable_bonds>
5

> <r_i_docking_score>
-8.84421467810956

> <r_i_glide_ligand_efficiency>
-0.32756350659665

> <r_i_glide_ligand_efficiency_sa>
-0.982690518710356

> <r_i_glide_ligand_efficiency_ln>
-2.0587873687894

> <r_i_glide_gscore>
-8.84421467810956

> <r_i_glide_lipo>
-2.42118645267114

> <r_i_glide_hbond>
-0.72

> <r_i_glide_metal>
0

> <r_i_glide_rewards>
-2.54933448342437

> <r_i_glide_evdw>
-43.5400161743164

> <r_i_glide_ecoul>
-8.65534591674805

> <r_i_glide_erotb>
0.367620944500217

> <r_i_glide_esite>
-0.0460119902862439

> <r_i_glide_emodel>
-75.2663290513946

> <r_i_glide_energy>
-52.1953620910645

> <r_i_glide_einternal>
4.52516794204712

> <i_i_glide_confnum>
4

> <i_i_glide_posenum>
137

> <r_i_glide_eff_state_penalty>
0

> <s_user_duplicate_titles>
CHEMBL4282_lig1311

> <s_m_subgroup_title>
dock_pv

> <s_m_subgroupid>
dock_pv

> <b_m_subgroup_collapsed>
1

$$$$
CHEMBL4282_lig909
                    3D
 Schrodinger Suite 2021-1.
 48 51  0  0  1  0            999 V2000
    8.7693    3.1599   18.5633 C   0  0  2  0  0  0
    5.7110    5.0123   15.9578 N   0  0  0  0  0  0
    4.4235    5.3727   15.7680 C   0  0  0  0  0  0
    3.3347    4.5708   15.7817 N   0  0  0  0  0  0
    5.9603    3.7153   16.2894 C   0  0  0  0  0  0
    4.7713    1.3071   16.3882 C   0  0  0  0  0  0
    4.9274    2.7452   16.2474 C   0  0  0  0  0  0
    3.6341    3.2843   15.9766 C   0  0  0  0  0  0
    2.7485    2.2400   15.9306 N   0  0  0  0  0  0
    3.4310    1.0739   16.1735 C   0  0  0  0  0  0
    7.2794    3.3969   16.6467 N   0  0  0  0  0  0
    7.6171    2.5187   17.7770 C   0  0  0  0  0  0
    8.4227    4.2980   16.4780 C   0  0  0  0  0  0
    9.5234    3.8010   17.4078 C   0  0  0  0  0  0
    5.7877    0.2280   16.6781 C   0  0  0  0  0  0
    9.6169    2.1766   19.4295 C   0  0  0  0  0  0
   10.0065    0.8993   18.8087 N   0  0  0  0  0  0
    8.2318    4.1777   19.4547 N   0  0  0  0  0  0
   11.1328    0.6606   18.1082 C   0  0  0  0  0  0
   11.9394    1.5401   17.8032 O   0  0  0  0  0  0
   11.3711   -0.7714   17.6845 C   0  0  0  0  0  0
   12.1716   -1.0455   16.5669 C   0  0  0  0  0  0
   12.4159   -2.3613   16.1832 C   0  0  0  0  0  0
   11.8666   -3.4130   16.9094 C   0  0  0  0  0  0
   11.0783   -3.1582   18.0266 C   0  0  0  0  0  0
   10.8361   -1.8435   18.4141 C   0  0  0  0  0  0
    4.2442    6.4221   15.5858 H   0  0  0  0  0  0
    1.7542    2.2889   15.7469 H   0  0  0  0  0  0
    2.9077    0.1294   16.1727 H   0  0  0  0  0  0
    7.9939    1.5776   17.3844 H   0  0  0  0  0  0
    6.7744    2.3644   18.4548 H   0  0  0  0  0  0
    8.1919    5.3257   16.7549 H   0  0  0  0  0  0
    8.7524    4.2481   15.4420 H   0  0  0  0  0  0
   10.1844    4.6031   17.7320 H   0  0  0  0  0  0
   10.1313    3.0778   16.8662 H   0  0  0  0  0  0
    5.3528   -0.7655   16.5749 H   0  0  0  0  0  0
    6.6303    0.2703   15.9942 H   0  0  0  0  0  0
    6.1639    0.2764   17.6986 H   0  0  0  0  0  0
    9.0392    1.9027   20.3153 H   0  0  0  0  0  0
   10.4988    2.6936   19.8171 H   0  0  0  0  0  0
    9.3939    0.1173   18.9951 H   0  0  0  0  0  0
    8.9624    4.6122   20.0176 H   0  0  0  0  0  0
    7.7898    4.9054   18.9165 H   0  0  0  0  0  0
   12.6103   -0.2416   15.9921 H   0  0  0  0  0  0
   13.0316   -2.5692   15.3249 H   0  0  0  0  0  0
   12.0584   -4.4329   16.6098 H   0  0  0  0  0  0
   10.6596   -3.9728   18.5990 H   0  0  0  0  0  0
   10.2313   -1.6765   19.2949 H   0  0  0  0  0  0
  1 14  1  0  0  0
  1 16  1  0  0  0
  1 18  1  0  0  0
  1 12  1  0  0  0
  2  3  2  0  0  0
  2  5  1  0  0  0
  3  4  1  0  0  0
  3 27  1  0  0  0
  4  8  2  0  0  0
  5  7  2  0  0  0
  5 11  1  0  0  0
  6 15  1  0  0  0
  6  7  1  0  0  0
  6 10  2  0  0  0
  7  8  1  0  0  0
  8  9  1  0  0  0
  9 10  1  0  0  0
  9 28  1  0  0  0
 10 29  1  0  0  0
 11 13  1  0  0  0
 11 12  1  0  0  0
 12 30  1  0  0  0
 12 31  1  0  0  0
 13 14  1  0  0  0
 13 32  1  0  0  0
 13 33  1  0  0  0
 14 34  1  0  0  0
 14 35  1  0  0  0
 15 36  1  0  0  0
 15 37  1  0  0  0
 15 38  1  0  0  0
 16 17  1  0  0  0
 16 39  1  0  0  0
 16 40  1  0  0  0
 17 19  1  0  0  0
 17 41  1  0  0  0
 18 42  1  0  0  0
 18 43  1  0  0  0
 19 20  2  0  0  0
 19 21  1  0  0  0
 21 22  2  0  0  0
 21 26  1  0  0  0
 22 23  1  0  0  0
 22 44  1  0  0  0
 23 24  2  0  0  0
 23 45  1  0  0  0
 24 25  1  0  0  0
 24 46  1  0  0  0
 25 26  2  0  0  0
 25 47  1  0  0  0
 26 48  1  0  0  0
M  END
> <s_m_entry_id>
2271

> <s_m_entry_name>
dock_pv.10

> <s_m_Source_Path>
/home/csk/Desktop/cluster/DUD-E-result/akt1

> <s_m_Source_File>
dock_pv.maegz

> <i_m_Source_File_Index>
10

> <chembl_id>
CHEMBL1171842

> <chembl_pref_name>
None

> <i_lp_mmshare_version>
53161

> <i_f3d_flags>
0

> <r_lp_tautomer_probability>
0.999998369746258

> <s_lp_Force_Field>
OPLS_2005

> <r_lp_Energy>
38.628225

> <b_lp_Chiralities_Consistent>
1

> <s_lp_Variant>
CHEMBL4282_lig909-2

> <s_i_glide_gridfile>
glide-grid_3cqw

> <i_i_glide_lignum>
1299

> <i_i_glide_rotatable_bonds>
5

> <r_i_docking_score>
-8.7788950176363

> <r_i_glide_ligand_efficiency>
-0.337649808370627

> <r_i_glide_ligand_efficiency_sa>
-1.00028622871014

> <r_i_glide_ligand_efficiency_ln>
-2.06169468898782

> <r_i_glide_gscore>
-8.7788950176363

> <r_i_glide_lipo>
-2.42208790020311

> <r_i_glide_hbond>
-0.484120602452459

> <r_i_glide_metal>
0

> <r_i_glide_rewards>
-3.0578534913933

> <r_i_glide_evdw>
-43.7729225158691

> <r_i_glide_ecoul>
-6.83126735687256

> <r_i_glide_erotb>
0.434633199406692

> <r_i_glide_esite>
-0.0361299936697935

> <r_i_glide_emodel>
-57.975891192861

> <r_i_glide_energy>
-50.6041898727417

> <r_i_glide_einternal>
15.6299266815186

> <i_i_glide_confnum>
1

> <i_i_glide_posenum>
378

> <r_i_glide_eff_state_penalty>
0

> <s_user_duplicate_titles>
CHEMBL4282_lig909,649895

> <s_m_subgroup_title>
dock_pv

> <s_m_subgroupid>
dock_pv

> <b_m_subgroup_collapsed>
1

$$$$
CHEMBL4282_lig1302
                    3D
 Schrodinger Suite 2021-1.
 50 53  0  0  1  0            999 V2000
   11.0314   -2.7738   17.8072 C   0  0  0  0  0  0
   11.4732   -3.0701   16.5174 C   0  0  0  0  0  0
   12.2300   -2.2146   15.7853 N   0  0  0  0  0  0
   12.5688   -1.0253   16.3470 C   0  0  0  0  0  0
   12.1826   -0.6497   17.6386 C   0  0  0  0  0  0
   11.3886   -1.5466   18.3674 C   0  0  0  0  0  0
   12.5804    0.7146   18.2125 C   0  0  1  0  0  0
   11.4798    1.4166   18.8714 N   0  0  0  0  0  0
   10.3758    1.9096   18.2795 C   0  0  0  0  0  0
   10.2322    1.8365   17.0583 O   0  0  0  0  0  0
    9.2900    2.6004   19.1863 C   0  0  0  0  0  0
    9.7073    2.6370   20.5855 N   0  0  0  0  0  0
    8.9721    4.0193   18.6668 C   0  0  0  0  0  0
    8.2407    4.0755   17.3056 C   0  0  0  0  0  0
    7.0026    3.2648   17.2514 N   0  0  0  0  0  0
    7.1777    1.9047   17.7983 C   0  0  0  0  0  0
    7.9586    1.8277   19.1233 C   0  0  0  0  0  0
    5.8698    3.6552   16.5259 C   0  0  0  0  0  0
    5.7777    4.9693   16.1805 N   0  0  0  0  0  0
    4.5794    5.4377   15.7602 C   0  0  0  0  0  0
    3.4329    4.7379   15.5872 N   0  0  0  0  0  0
    4.7918    2.7862   16.2173 C   0  0  0  0  0  0
    3.5948    3.4290   15.7849 C   0  0  0  0  0  0
    2.6455    2.4592   15.5715 N   0  0  0  0  0  0
    3.2102    1.2276   15.7851 C   0  0  0  0  0  0
    4.5164    1.3739   16.1984 C   0  0  0  0  0  0
   13.7622    0.5900   19.1840 C   0  0  0  0  0  0
   10.4207   -3.4687   18.3663 H   0  0  0  0  0  0
   11.2179   -4.0083   16.0472 H   0  0  0  0  0  0
   13.1578   -0.3639   15.7305 H   0  0  0  0  0  0
   11.0453   -1.2937   19.3612 H   0  0  0  0  0  0
   12.9078    1.3533   17.3876 H   0  0  0  0  0  0
   11.5524    1.5803   19.8668 H   0  0  0  0  0  0
    9.8424    3.6041   20.9091 H   0  0  0  0  0  0
    8.9591    2.2884   21.1652 H   0  0  0  0  0  0
    8.5083    4.6478   19.4294 H   0  0  0  0  0  0
    9.9182    4.5518   18.5507 H   0  0  0  0  0  0
    8.0018    5.1236   17.1508 H   0  0  0  0  0  0
    8.8910    3.8044   16.4743 H   0  0  0  0  0  0
    6.1931    1.5381   18.0802 H   0  0  0  0  0  0
    7.5649    1.2218   17.0488 H   0  0  0  0  0  0
    8.1779    0.7736   19.3099 H   0  0  0  0  0  0
    7.3186    2.0268   19.9858 H   0  0  0  0  0  0
    4.5293    6.4976   15.5581 H   0  0  0  0  0  0
    1.6911    2.6012   15.2574 H   0  0  0  0  0  0
    2.6319    0.3304   15.6244 H   0  0  0  0  0  0
    5.1814    0.5567   16.4346 H   0  0  0  0  0  0
   14.6305    0.1619   18.6874 H   0  0  0  0  0  0
   14.0605    1.5637   19.5738 H   0  0  0  0  0  0
   13.5167   -0.0445   20.0357 H   0  0  0  0  0  0
  1  2  2  0  0  0
  1  6  1  0  0  0
  1 28  1  0  0  0
  2  3  1  0  0  0
  2 29  1  0  0  0
  3  4  2  0  0  0
  4  5  1  0  0  0
  4 30  1  0  0  0
  5  6  2  0  0  0
  5  7  1  0  0  0
  6 31  1  0  0  0
  7  8  1  0  0  0
  7 27  1  0  0  0
  7 32  1  0  0  0
  8  9  1  0  0  0
  8 33  1  0  0  0
  9 10  2  0  0  0
  9 11  1  0  0  0
 11 12  1  0  0  0
 11 13  1  0  0  0
 11 17  1  0  0  0
 12 34  1  0  0  0
 12 35  1  0  0  0
 13 14  1  0  0  0
 13 36  1  0  0  0
 13 37  1  0  0  0
 14 15  1  0  0  0
 14 38  1  0  0  0
 14 39  1  0  0  0
 15 16  1  0  0  0
 15 18  1  0  0  0
 16 17  1  0  0  0
 16 40  1  0  0  0
 16 41  1  0  0  0
 17 42  1  0  0  0
 17 43  1  0  0  0
 18 19  2  0  0  0
 18 22  1  0  0  0
 19 20  1  0  0  0
 20 21  2  0  0  0
 20 44  1  0  0  0
 21 23  1  0  0  0
 22 23  2  0  0  0
 22 26  1  0  0  0
 23 24  1  0  0  0
 24 25  1  0  0  0
 24 45  1  0  0  0
 25 26  2  0  0  0
 25 46  1  0  0  0
 26 47  1  0  0  0
 27 48  1  0  0  0
 27 49  1  0  0  0
 27 50  1  0  0  0
M  END
> <s_m_entry_id>
2272

> <s_m_entry_name>
dock_pv.11

> <s_m_Source_Path>
/home/csk/Desktop/cluster/DUD-E-result/akt1

> <s_m_Source_File>
dock_pv.maegz

> <i_m_Source_File_Index>
11

> <chembl_id>
CHEMBL2325988

> <chembl_pref_name>
None

> <i_lp_mmshare_version>
53161

> <i_f3d_flags>
0

> <r_lp_tautomer_probability>
0.999998369746258

> <s_lp_Force_Field>
OPLS_2005

> <r_lp_Energy>
20.242752

> <b_lp_Chiralities_Consistent>
1

> <s_lp_Variant>
CHEMBL4282_lig1302-2

> <s_i_glide_gridfile>
glide-grid_3cqw

> <i_i_glide_lignum>
1804

> <i_i_glide_rotatable_bonds>
5

> <r_i_docking_score>
-8.77714756896463

> <r_i_glide_ligand_efficiency>
-0.325079539591283

> <r_i_glide_ligand_efficiency_sa>
-0.975238617702439

> <r_i_glide_ligand_efficiency_ln>
-2.04317525146817

> <r_i_glide_gscore>
-8.77714756896463

> <r_i_glide_lipo>
-2.04103597343752

> <r_i_glide_hbond>
-0.72

> <r_i_glide_metal>
0

> <r_i_glide_rewards>
-2.67674848717628

> <r_i_glide_evdw>
-44.2187423706055

> <r_i_glide_ecoul>
-9.98473072052002

> <r_i_glide_erotb>
0.403330286619669

> <r_i_glide_esite>
-0.0340466683622285

> <r_i_glide_emodel>
-80.8994564565354

> <r_i_glide_energy>
-54.2034730911255

> <r_i_glide_einternal>
3.95581746101379

> <i_i_glide_confnum>
42

> <i_i_glide_posenum>
63

> <r_i_glide_eff_state_penalty>
0

> <s_user_duplicate_titles>
CHEMBL4282_lig1302

> <s_m_subgroup_title>
dock_pv

> <s_m_subgroupid>
dock_pv

> <b_m_subgroup_collapsed>
1

$$$$
CHEMBL4282_lig1302
                    3D
 Schrodinger Suite 2021-1.
 50 53  0  0  1  0            999 V2000
   11.0307   -3.0078   17.5138 C   0  0  0  0  0  0
   11.5305   -2.9067   16.2156 C   0  0  0  0  0  0
   12.2319   -1.8303   15.7819 N   0  0  0  0  0  0
   12.4574   -0.8197   16.6593 C   0  0  0  0  0  0
   11.9963   -0.8350   17.9840 C   0  0  0  0  0  0
   11.2632   -1.9547   18.4000 C   0  0  0  0  0  0
   12.2915    0.2925   18.9838 C   0  0  2  0  0  0
   11.1069    1.0473   19.3862 N   0  0  0  0  0  0
   10.2773    1.7754   18.6115 C   0  0  0  0  0  0
   10.4221    1.8361   17.3878 O   0  0  0  0  0  0
    9.1184    2.5536   19.3382 C   0  0  0  0  0  0
    9.3594    2.6368   20.7773 N   0  0  0  0  0  0
    8.8934    3.9610   18.7323 C   0  0  0  0  0  0
    8.2554    3.9879   17.3213 C   0  0  0  0  0  0
    6.9987    3.2119   17.2347 N   0  0  0  0  0  0
    7.1593    1.8456   17.7628 C   0  0  0  0  0  0
    7.8027    1.7808   19.1550 C   0  0  0  0  0  0
    5.8703    3.6292   16.5190 C   0  0  0  0  0  0
    5.7929    4.9469   16.1850 N   0  0  0  0  0  0
    4.5956    5.4304   15.7758 C   0  0  0  0  0  0
    3.4405    4.7436   15.5990 N   0  0  0  0  0  0
    4.7825    2.7751   16.2102 C   0  0  0  0  0  0
    3.5894    3.4305   15.7851 C   0  0  0  0  0  0
    2.6311    2.4666   15.5754 N   0  0  0  0  0  0
    3.1929    1.2312   15.7851 C   0  0  0  0  0  0
    4.4990    1.3658   16.1835 C   0  0  0  0  0  0
   13.4355    1.2442   18.5833 C   0  0  0  0  0  0
   10.4758   -3.8774   17.8336 H   0  0  0  0  0  0
   11.3709   -3.6973   15.4974 H   0  0  0  0  0  0
   13.0126    0.0173   16.2640 H   0  0  0  0  0  0
   10.8721   -2.0100   19.4067 H   0  0  0  0  0  0
   12.6371   -0.2103   19.8900 H   0  0  0  0  0  0
   10.8911    1.0779   20.3742 H   0  0  0  0  0  0
    9.7900    3.5395   21.0255 H   0  0  0  0  0  0
    8.4776    2.6500   21.2693 H   0  0  0  0  0  0
    8.3925    4.6354   19.4300 H   0  0  0  0  0  0
    9.8646    4.4553   18.6645 H   0  0  0  0  0  0
    8.0661    5.0356   17.0939 H   0  0  0  0  0  0
    8.9480    3.6437   16.5537 H   0  0  0  0  0  0
    6.1757    1.4342   17.9646 H   0  0  0  0  0  0
    7.6369    1.2021   17.0260 H   0  0  0  0  0  0
    7.9958    0.7284   19.3748 H   0  0  0  0  0  0
    7.0763    1.9902   19.9435 H   0  0  0  0  0  0
    4.5534    6.4926   15.5840 H   0  0  0  0  0  0
    1.6768    2.6142   15.2627 H   0  0  0  0  0  0
    2.6311    0.3273   15.6158 H   0  0  0  0  0  0
    5.1562    0.5360   16.3971 H   0  0  0  0  0  0
   14.3602    0.6947   18.4084 H   0  0  0  0  0  0
   13.1940    1.8101   17.6834 H   0  0  0  0  0  0
   13.6366    1.9686   19.3746 H   0  0  0  0  0  0
  1  2  2  0  0  0
  1  6  1  0  0  0
  1 28  1  0  0  0
  2  3  1  0  0  0
  2 29  1  0  0  0
  3  4  2  0  0  0
  4  5  1  0  0  0
  4 30  1  0  0  0
  5  6  2  0  0  0
  5  7  1  0  0  0
  6 31  1  0  0  0
  7  8  1  0  0  0
  7 27  1  0  0  0
  7 32  1  0  0  0
  8  9  1  0  0  0
  8 33  1  0  0  0
  9 10  2  0  0  0
  9 11  1  0  0  0
 11 12  1  0  0  0
 11 13  1  0  0  0
 11 17  1  0  0  0
 12 34  1  0  0  0
 12 35  1  0  0  0
 13 14  1  0  0  0
 13 36  1  0  0  0
 13 37  1  0  0  0
 14 15  1  0  0  0
 14 38  1  0  0  0
 14 39  1  0  0  0
 15 16  1  0  0  0
 15 18  1  0  0  0
 16 17  1  0  0  0
 16 40  1  0  0  0
 16 41  1  0  0  0
 17 42  1  0  0  0
 17 43  1  0  0  0
 18 19  2  0  0  0
 18 22  1  0  0  0
 19 20  1  0  0  0
 20 21  2  0  0  0
 20 44  1  0  0  0
 21 23  1  0  0  0
 22 23  2  0  0  0
 22 26  1  0  0  0
 23 24  1  0  0  0
 24 25  1  0  0  0
 24 45  1  0  0  0
 25 26  2  0  0  0
 25 46  1  0  0  0
 26 47  1  0  0  0
 27 48  1  0  0  0
 27 49  1  0  0  0
 27 50  1  0  0  0
M  END
> <s_m_entry_id>
2273

> <s_m_entry_name>
dock_pv.12

> <s_m_Source_Path>
/home/csk/Desktop/cluster/DUD-E-result/akt1

> <s_m_Source_File>
dock_pv.maegz

> <i_m_Source_File_Index>
12

> <chembl_id>
CHEMBL2325988

> <chembl_pref_name>
None

> <i_lp_mmshare_version>
53161

> <i_f3d_flags>
0

> <r_lp_tautomer_probability>
0.999998369746258

> <s_lp_Force_Field>
OPLS_2005

> <r_lp_Energy>
17.359567

> <b_lp_Chiralities_Consistent>
1

> <s_lp_Variant>
CHEMBL4282_lig1302-1

> <s_i_glide_gridfile>
glide-grid_3cqw

> <i_i_glide_lignum>
1803

> <i_i_glide_rotatable_bonds>
5

> <r_i_docking_score>
-8.6774151618038

> <r_i_glide_ligand_efficiency>
-0.321385746733474

> <r_i_glide_ligand_efficiency_sa>
-0.964157239141188

> <r_i_glide_ligand_efficiency_ln>
-2.01995919129836

> <r_i_glide_gscore>
-8.6774151618038

> <r_i_glide_lipo>
-1.88154390294379

> <r_i_glide_hbond>
-0.72

> <r_i_glide_metal>
0

> <r_i_glide_rewards>
-2.6823206306204

> <r_i_glide_evdw>
-43.828556060791

> <r_i_glide_ecoul>
-10.4283676147461

> <r_i_glide_erotb>
0.403330286619669

> <r_i_glide_esite>
-0.041197969607822

> <r_i_glide_emodel>
-81.0808465644952

> <r_i_glide_energy>
-54.2569236755371

> <r_i_glide_einternal>
4.55843353271484

> <i_i_glide_confnum>
48

> <i_i_glide_posenum>
297

> <r_i_glide_eff_state_penalty>
0

> <s_user_duplicate_titles>
CHEMBL4282_lig1302

> <s_m_subgroup_title>
dock_pv

> <s_m_subgroupid>
dock_pv

> <b_m_subgroup_collapsed>
1

$$$$
CHEMBL4282_lig910
                    3D
 Schrodinger Suite 2021-1.
 48 51  0  0  1  0            999 V2000
    8.7586    2.6348   18.7333 C   0  0  2  0  0  0
    5.8087    4.9881   16.1723 N   0  0  0  0  0  0
    4.6025    5.4657   15.7849 C   0  0  0  0  0  0
    3.4497    4.7752   15.6147 N   0  0  0  0  0  0
    5.8961    3.6590   16.4376 C   0  0  0  0  0  0
    4.5353    1.3822   16.1853 C   0  0  0  0  0  0
    4.8020    2.8001   16.1926 C   0  0  0  0  0  0
    3.6021    3.4621   15.7946 C   0  0  0  0  0  0
    2.6383    2.5057   15.6050 N   0  0  0  0  0  0
    3.2135    1.2754   15.7944 C   0  0  0  0  0  0
    7.1000    3.1975   16.9813 N   0  0  0  0  0  0
    7.2555    2.7313   18.3671 C   0  0  0  0  0  0
    8.4223    3.6921   16.6296 C   0  0  0  0  0  0
    9.3896    2.7645   17.3739 C   0  0  0  0  0  0
    5.4810    0.2416   16.4814 C   0  0  0  0  0  0
    9.1060    1.3498   19.5719 C   0  0  0  0  0  0
   10.2730    0.5373   19.1751 N   0  0  0  0  0  0
    9.2393    3.8329   19.3851 N   0  0  0  0  0  0
   10.2466   -0.4188   18.2228 C   0  0  0  0  0  0
    9.3031   -0.5631   17.4462 O   0  0  0  0  0  0
   11.4171   -1.3681   18.1700 C   0  0  0  0  0  0
   11.9695   -1.8760   19.3569 C   0  0  0  0  0  0
   12.9985   -2.8172   19.3148 C   0  0  0  0  0  0
   13.5040   -3.2450   18.0913 C   0  0  0  0  0  0
   12.9828   -2.7321   16.9053 C   0  0  0  0  0  0
   11.9405   -1.8045   16.9390 C   0  0  0  0  0  0
   11.4445   -1.3600   15.7582 F   0  0  0  0  0  0
    4.5474    6.5314   15.6148 H   0  0  0  0  0  0
    1.6782    2.6500   15.3100 H   0  0  0  0  0  0
    2.6316    0.3813   15.6364 H   0  0  0  0  0  0
    6.7252    1.7912   18.4977 H   0  0  0  0  0  0
    6.7823    3.4371   19.0443 H   0  0  0  0  0  0
    8.5001    4.7469   16.8992 H   0  0  0  0  0  0
    8.5272    3.7133   15.5511 H   0  0  0  0  0  0
   10.4228    3.1099   17.3849 H   0  0  0  0  0  0
    9.4179    1.7757   16.9691 H   0  0  0  0  0  0
    5.0489   -0.7148   16.1892 H   0  0  0  0  0  0
    6.4212    0.3430   15.9421 H   0  0  0  0  0  0
    5.7200    0.1609   17.5398 H   0  0  0  0  0  0
    8.2442    0.6755   19.5804 H   0  0  0  0  0  0
    9.2254    1.6135   20.6247 H   0  0  0  0  0  0
   11.1220    0.6797   19.7008 H   0  0  0  0  0  0
    8.8676    4.6581   18.9412 H   0  0  0  0  0  0
    9.0372    3.9117   20.3783 H   0  0  0  0  0  0
   11.5752   -1.5809   20.3201 H   0  0  0  0  0  0
   13.3965   -3.2187   20.2349 H   0  0  0  0  0  0
   14.2945   -3.9801   18.0636 H   0  0  0  0  0  0
   13.3756   -3.0622   15.9549 H   0  0  0  0  0  0
  1 16  1  0  0  0
  1 18  1  0  0  0
  1 12  1  0  0  0
  1 14  1  0  0  0
  2  3  2  0  0  0
  2  5  1  0  0  0
  3  4  1  0  0  0
  3 28  1  0  0  0
  4  8  2  0  0  0
  5  7  2  0  0  0
  5 11  1  0  0  0
  6 15  1  0  0  0
  6  7  1  0  0  0
  6 10  2  0  0  0
  7  8  1  0  0  0
  8  9  1  0  0  0
  9 10  1  0  0  0
  9 29  1  0  0  0
 10 30  1  0  0  0
 11 13  1  0  0  0
 11 12  1  0  0  0
 12 31  1  0  0  0
 12 32  1  0  0  0
 13 14  1  0  0  0
 13 33  1  0  0  0
 13 34  1  0  0  0
 14 35  1  0  0  0
 14 36  1  0  0  0
 15 37  1  0  0  0
 15 38  1  0  0  0
 15 39  1  0  0  0
 16 17  1  0  0  0
 16 40  1  0  0  0
 16 41  1  0  0  0
 17 19  1  0  0  0
 17 42  1  0  0  0
 18 43  1  0  0  0
 18 44  1  0  0  0
 19 20  2  0  0  0
 19 21  1  0  0  0
 21 22  2  0  0  0
 21 26  1  0  0  0
 22 23  1  0  0  0
 22 45  1  0  0  0
 23 24  2  0  0  0
 23 46  1  0  0  0
 24 25  1  0  0  0
 24 47  1  0  0  0
 25 26  2  0  0  0
 25 48  1  0  0  0
 26 27  1  0  0  0
M  END
> <s_m_entry_id>
2274

> <s_m_entry_name>
dock_pv.13

> <s_m_Source_Path>
/home/csk/Desktop/cluster/DUD-E-result/akt1

> <s_m_Source_File>
dock_pv.maegz

> <i_m_Source_File_Index>
13

> <chembl_id>
CHEMBL1171501

> <chembl_pref_name>
None

> <i_lp_mmshare_version>
53161

> <i_f3d_flags>
0

> <r_lp_tautomer_probability>
0.999998369746258

> <s_lp_Force_Field>
OPLS_2005

> <r_lp_Energy>
38.113813

> <b_lp_Chiralities_Consistent>
1

> <s_lp_Variant>
CHEMBL4282_lig910-2

> <s_i_glide_gridfile>
glide-grid_3cqw

> <i_i_glide_lignum>
1301

> <i_i_glide_rotatable_bonds>
5

> <r_i_docking_score>
-8.62687621568086

> <r_i_glide_ligand_efficiency>
-0.319513933914106

> <r_i_glide_ligand_efficiency_sa>
-0.958541800689252

> <r_i_glide_ligand_efficiency_ln>
-2.00819455784059

> <r_i_glide_gscore>
-8.62687621568086

> <r_i_glide_lipo>
-1.95359081964581

> <r_i_glide_hbond>
-0.66959627057629

> <r_i_glide_metal>
0

> <r_i_glide_rewards>
-3.21502554633713

> <r_i_glide_evdw>
-37.1919326782227

> <r_i_glide_ecoul>
-8.29901313781738

> <r_i_glide_erotb>
0.397530695902218

> <r_i_glide_esite>
-0.0817456704401113

> <r_i_glide_emodel>
-60.0395666452699

> <r_i_glide_energy>
-45.49094581604

> <r_i_glide_einternal>
11.9491529464722

> <i_i_glide_confnum>
23

> <i_i_glide_posenum>
31

> <r_i_glide_eff_state_penalty>
0

> <s_user_duplicate_titles>
CHEMBL4282_lig910,649923

> <s_m_subgroup_title>
dock_pv

> <s_m_subgroupid>
dock_pv

> <b_m_subgroup_collapsed>
1

$$$$
CHEMBL4282_lig949
                    3D
 Schrodinger Suite 2021-1.
 57 61  0  0  1  0            999 V2000
   12.7175   -0.2672   17.9498 C   0  0  0  0  0  0
   11.9976   -0.6040   19.1014 C   0  0  0  0  0  0
   11.1812   -1.7382   19.1003 C   0  0  0  0  0  0
   11.1097   -2.5463   17.9687 C   0  0  0  0  0  0
   11.8459   -2.2170   16.8319 C   0  0  0  0  0  0
   12.6359   -1.0704   16.8132 C   0  0  0  0  0  0
   12.1279    0.2417   20.3714 C   0  0  0  0  0  0
   11.0193    1.3145   20.5424 C   0  0  1  0  0  0
   11.1970    2.0693   21.7960 N   0  0  0  0  0  0
   10.9821    2.3513   19.3771 C   0  0  0  0  0  0
    9.8029    2.6714   18.7728 N   0  0  0  0  0  0
   12.0665    2.8331   19.0237 O   0  0  0  0  0  0
    9.9092    3.2953   17.4454 C   0  0  0  0  0  0
    8.6573    4.0704   17.0603 C   0  0  0  0  0  0
    7.4085    3.3630   17.3003 N   0  0  0  0  0  0
    7.3487    2.9131   18.6989 C   0  0  0  0  0  0
    8.5309    2.0454   19.1700 C   0  0  0  0  0  0
    6.2500    3.7226   16.6266 C   0  0  0  0  0  0
    3.9129    4.6524   15.4747 N   0  0  0  0  0  0
    4.9952    5.4222   15.6902 C   0  0  0  0  0  0
    6.1803    5.0137   16.1842 N   0  0  0  0  0  0
    4.0389    3.3362   15.7963 C   0  0  0  0  0  0
    5.1835    2.7953   16.4486 C   0  0  0  0  0  0
    5.1835    1.4090   16.8185 C   0  0  0  0  0  0
    4.0757    0.6063   16.5285 C   0  0  0  0  0  0
    3.0403    1.1431   15.7691 C   0  0  0  0  0  0
    3.0166    2.4760   15.4086 C   0  0  0  0  0  0
   11.8002   -3.2503   15.4482 Cl  0  0  0  0  0  0
    3.9203   -0.8096   16.9836 C   0  0  0  0  0  0
    2.7524   -1.4627   17.3870 C   0  0  0  0  0  0
    2.8527   -2.7502   17.5936 N   0  0  0  0  0  0
    4.1477   -2.9622   17.4404 N   0  0  0  0  0  0
    4.8339   -1.7724   17.3120 C   0  0  0  0  0  0
   13.3457    0.6114   17.9384 H   0  0  0  0  0  0
   10.6101   -2.0075   19.9778 H   0  0  0  0  0  0
   10.4920   -3.4314   17.9880 H   0  0  0  0  0  0
   13.1955   -0.8138   15.9263 H   0  0  0  0  0  0
   12.1215   -0.4376   21.2252 H   0  0  0  0  0  0
   13.1187    0.7001   20.4060 H   0  0  0  0  0  0
   10.0847    0.7610   20.6091 H   0  0  0  0  0  0
   10.6505    2.9298   21.7959 H   0  0  0  0  0  0
   10.9111    1.5539   22.6130 H   0  0  0  0  0  0
   10.6301    4.1018   17.4080 H   0  0  0  0  0  0
   10.0402    2.5111   16.6966 H   0  0  0  0  0  0
    8.7305    4.3939   16.0218 H   0  0  0  0  0  0
    8.6132    4.9648   17.6846 H   0  0  0  0  0  0
    6.4002    2.4381   18.9537 H   0  0  0  0  0  0
    7.3790    3.8323   19.2904 H   0  0  0  0  0  0
    8.4135    1.0760   18.6833 H   0  0  0  0  0  0
    8.4117    1.9866   20.2532 H   0  0  0  0  0  0
    4.9226    6.4611   15.4045 H   0  0  0  0  0  0
    6.0297    0.9873   17.3385 H   0  0  0  0  0  0
    2.2373    0.5271   15.3791 H   0  0  0  0  0  0
    2.2314    2.8712   14.7994 H   0  0  0  0  0  0
    1.8241   -0.9729   17.4790 H   0  0  0  0  0  0
    4.5437   -3.9088   17.5925 H   0  0  0  0  0  0
    5.9048   -1.7231   17.3848 H   0  0  0  0  0  0
  1  6  1  0  0  0
  1  2  2  0  0  0
  1 34  1  0  0  0
  2  3  1  0  0  0
  2  7  1  0  0  0
  3  4  2  0  0  0
  3 35  1  0  0  0
  4  5  1  0  0  0
  4 36  1  0  0  0
  5  6  2  0  0  0
  5 28  1  0  0  0
  6 37  1  0  0  0
  7  8  1  0  0  0
  7 38  1  0  0  0
  7 39  1  0  0  0
  8  9  1  0  0  0
  8 10  1  0  0  0
  8 40  1  0  0  0
  9 41  1  0  0  0
  9 42  1  0  0  0
 10 11  1  0  0  0
 10 12  2  0  0  0
 11 13  1  0  0  0
 11 17  1  0  0  0
 13 14  1  0  0  0
 13 43  1  0  0  0
 13 44  1  0  0  0
 14 15  1  0  0  0
 14 45  1  0  0  0
 14 46  1  0  0  0
 15 16  1  0  0  0
 15 18  1  0  0  0
 16 17  1  0  0  0
 16 47  1  0  0  0
 16 48  1  0  0  0
 17 49  1  0  0  0
 17 50  1  0  0  0
 18 23  2  0  0  0
 18 21  1  0  0  0
 19 22  2  0  0  0
 19 20  1  0  0  0
 20 21  2  0  0  0
 20 51  1  0  0  0
 22 23  1  0  0  0
 22 27  1  0  0  0
 23 24  1  0  0  0
 24 25  2  0  0  0
 24 52  1  0  0  0
 25 26  1  0  0  0
 25 29  1  0  0  0
 26 27  2  0  0  0
 26 53  1  0  0  0
 27 54  1  0  0  0
 29 33  2  0  0  0
 29 30  1  0  0  0
 30 55  1  0  0  0
 30 31  2  0  0  0
 31 32  1  0  0  0
 32 56  1  0  0  0
 32 33  1  0  0  0
 33 57  1  0  0  0
M  END
> <s_m_entry_id>
2275

> <s_m_entry_name>
dock_pv.14

> <s_m_Source_Path>
/home/csk/Desktop/cluster/DUD-E-result/akt1

> <s_m_Source_File>
dock_pv.maegz

> <i_m_Source_File_Index>
14

> <chembl_id>
CHEMBL1257628

> <chembl_pref_name>
None

> <i_lp_mmshare_version>
53161

> <i_f3d_flags>
0

> <r_lp_tautomer_probability>
0.5

> <s_lp_Force_Field>
OPLS_2005

> <r_lp_Energy>
43.380393

> <b_lp_Chiralities_Consistent>
1

> <s_lp_Variant>
CHEMBL4282_lig949-1

> <s_i_glide_gridfile>
glide-grid_3cqw

> <i_i_glide_lignum>
1345

> <i_i_glide_rotatable_bonds>
6

> <r_i_docking_score>
-8.48230229238524

> <r_i_glide_ligand_efficiency>
-0.257039463405613

> <r_i_glide_ligand_efficiency_sa>
-0.824462902076297

> <r_i_glide_ligand_efficiency_ln>
-1.8864201108157

> <r_i_glide_gscore>
-8.48230229238524

> <r_i_glide_lipo>
-3.90523067682295

> <r_i_glide_hbond>
-0.488427141014135

> <r_i_glide_metal>
0

> <r_i_glide_rewards>
-1.72995604998317

> <r_i_glide_evdw>
-34.1598587036133

> <r_i_glide_ecoul>
-6.91157913208008

> <r_i_glide_erotb>
0.471899673574129

> <r_i_glide_esite>
-0.0858582931464375

> <r_i_glide_emodel>
-44.1860470596457

> <r_i_glide_energy>
-41.0714378356934

> <r_i_glide_einternal>
5.66767835617065

> <i_i_glide_confnum>
19

> <i_i_glide_posenum>
141

> <r_i_glide_eff_state_penalty>
0

> <s_user_duplicate_titles>
CHEMBL4282_lig949

> <s_m_subgroup_title>
dock_pv

> <s_m_subgroupid>
dock_pv

> <b_m_subgroup_collapsed>
1

$$$$
CHEMBL4282_lig911
                    3D
 Schrodinger Suite 2021-1.
 38 40  0  0  1  0            999 V2000
    8.7389    3.3861   18.6988 C   0  0  2  0  0  0
    5.8085    5.0367   15.9170 N   0  0  0  0  0  0
    4.5254    5.3925   15.6910 C   0  0  0  0  0  0
    3.4310    4.5974   15.6999 N   0  0  0  0  0  0
    6.0496    3.7508   16.2785 C   0  0  0  0  0  0
    4.8495    1.3522   16.4220 C   0  0  0  0  0  0
    5.0124    2.7839   16.2450 C   0  0  0  0  0  0
    3.7231    3.3157   15.9351 C   0  0  0  0  0  0
    2.8374    2.2695   15.8972 N   0  0  0  0  0  0
    3.5196    1.1130   16.1782 C   0  0  0  0  0  0
    7.3562    3.4371   16.6801 N   0  0  0  0  0  0
    7.6079    2.6922   17.9190 C   0  0  0  0  0  0
    8.5316    4.3037   16.5059 C   0  0  0  0  0  0
    9.5847    3.8282   17.5123 C   0  0  0  0  0  0
    5.8484    0.2727   16.7482 C   0  0  0  0  0  0
    9.4825    2.4938   19.7510 C   0  0  0  0  0  0
    9.4312    1.0367   19.5503 N   0  0  0  0  0  0
    8.2311    4.5669   19.3866 N   0  0  0  0  0  0
   10.2310    0.3259   18.7409 C   0  0  0  0  0  0
   11.1217    0.8034   18.0390 O   0  0  0  0  0  0
    4.3551    6.4371   15.4875 H   0  0  0  0  0  0
    1.8487    2.3104   15.6886 H   0  0  0  0  0  0
    3.0309    0.1550   16.1850 H   0  0  0  0  0  0
    7.9857    1.7166   17.6220 H   0  0  0  0  0  0
    6.7273    2.6127   18.5589 H   0  0  0  0  0  0
    8.2922    5.3424   16.7341 H   0  0  0  0  0  0
    8.9063    4.2371   15.4866 H   0  0  0  0  0  0
   10.3063    4.6065   17.7679 H   0  0  0  0  0  0
   10.1547    3.0049   17.0814 H   0  0  0  0  0  0
    5.3857   -0.7145   16.7436 H   0  0  0  0  0  0
    6.6312    0.2390   15.9996 H   0  0  0  0  0  0
    6.2894    0.3822   17.7372 H   0  0  0  0  0  0
    9.0386    2.6432   20.7381 H   0  0  0  0  0  0
   10.5150    2.8309   19.8661 H   0  0  0  0  0  0
    8.7208    0.5337   20.0712 H   0  0  0  0  0  0
    7.4987    4.2888   20.0239 H   0  0  0  0  0  0
    8.9659    4.9462   19.9828 H   0  0  0  0  0  0
    9.9788   -0.7464   18.7883 H   0  0  0  0  0  0
  1 12  1  0  0  0
  1 14  1  0  0  0
  1 16  1  0  0  0
  1 18  1  0  0  0
  2  5  1  0  0  0
  2  3  2  0  0  0
  3  4  1  0  0  0
  3 21  1  0  0  0
  4  8  2  0  0  0
  5 11  1  0  0  0
  5  7  2  0  0  0
  6 10  2  0  0  0
  6 15  1  0  0  0
  6  7  1  0  0  0
  7  8  1  0  0  0
  8  9  1  0  0  0
  9 10  1  0  0  0
  9 22  1  0  0  0
 10 23  1  0  0  0
 11 12  1  0  0  0
 11 13  1  0  0  0
 12 24  1  0  0  0
 12 25  1  0  0  0
 13 14  1  0  0  0
 13 26  1  0  0  0
 13 27  1  0  0  0
 14 28  1  0  0  0
 14 29  1  0  0  0
 15 30  1  0  0  0
 15 31  1  0  0  0
 15 32  1  0  0  0
 16 17  1  0  0  0
 16 33  1  0  0  0
 16 34  1  0  0  0
 17 19  1  0  0  0
 17 35  1  0  0  0
 18 36  1  0  0  0
 18 37  1  0  0  0
 19 20  2  0  0  0
 19 38  1  0  0  0
M  END
> <s_m_entry_id>
2276

> <s_m_entry_name>
dock_pv.15

> <s_m_Source_Path>
/home/csk/Desktop/cluster/DUD-E-result/akt1

> <s_m_Source_File>
dock_pv.maegz

> <i_m_Source_File_Index>
15

> <chembl_id>
CHEMBL1173384

> <chembl_pref_name>
N-((3-AMINO-1-(5-METHYL-7H-PYRROLO[2,3-D]PYRIMIDIN-4-YL)PYRROLIDIN-3-YL)METHYL)FORMAMIDE (RACEMIC)

> <i_lp_mmshare_version>
53161

> <i_f3d_flags>
0

> <r_lp_tautomer_probability>
0.999998369746258

> <s_lp_Force_Field>
OPLS_2005

> <r_lp_Energy>
31.770568

> <b_lp_Chiralities_Consistent>
1

> <s_lp_Variant>
CHEMBL4282_lig911-2

> <s_i_glide_gridfile>
glide-grid_3cqw

> <i_i_glide_lignum>
1303

> <i_i_glide_rotatable_bonds>
4

> <r_i_docking_score>
-8.42882130005179

> <r_i_glide_ligand_efficiency>
-0.42144106500259

> <r_i_glide_ligand_efficiency_sa>
-1.14396705005721

> <r_i_glide_ligand_efficiency_ln>
-2.1094559702707

> <r_i_glide_gscore>
-8.42882130005179

> <r_i_glide_lipo>
-1.68708442747162

> <r_i_glide_hbond>
-0.480736986233584

> <r_i_glide_metal>
0

> <r_i_glide_rewards>
-3.58889528347297

> <r_i_glide_evdw>
-34.8989753723145

> <r_i_glide_ecoul>
-8.99441909790039

> <r_i_glide_erotb>
0.501049266310281

> <r_i_glide_esite>
-0.0790422358831132

> <r_i_glide_emodel>
-62.1412703131258

> <r_i_glide_energy>
-43.8933944702148

> <r_i_glide_einternal>
4.00288391113281

> <i_i_glide_confnum>
30

> <i_i_glide_posenum>
315

> <r_i_glide_eff_state_penalty>
0

> <s_user_duplicate_titles>
CHEMBL4282_lig911,650242

> <s_m_subgroup_title>
dock_pv

> <s_m_subgroupid>
dock_pv

> <b_m_subgroup_collapsed>
1

$$$$
CHEMBL4282_lig1379
                    3D
 Schrodinger Suite 2021-1.
 54 58  0  0  1  0            999 V2000
    9.4774    1.7627   18.2725 C   0  0  0  0  0  0
    9.5045    2.9701   17.5679 C   0  0  0  0  0  0
    8.3466    3.4726   16.9850 C   0  0  0  0  0  0
    7.1236    2.7984   17.1056 C   0  0  0  0  0  0
    7.0973    1.6137   17.8567 C   0  0  0  0  0  0
    8.2611    1.0985   18.4225 C   0  0  0  0  0  0
    5.8726    3.3497   16.4927 C   0  0  0  0  0  0
    5.8725    4.6815   16.1851 N   0  0  0  0  0  0
    4.7043    5.2468   15.7849 C   0  0  0  0  0  0
    3.5064    4.6372   15.5967 N   0  0  0  0  0  0
   10.7318    1.1423   18.9041 C   0  0  1  0  0  0
   11.2068   -0.0832   18.1100 C   0  0  0  0  0  0
   10.8275   -1.3544   18.5441 C   0  0  0  0  0  0
   11.2005   -2.4841   17.8261 C   0  0  0  0  0  0
   11.9780   -2.3491   16.6794 C   0  0  0  0  0  0
   12.4021   -1.0873   16.2589 C   0  0  0  0  0  0
   12.0177    0.0471   16.9744 C   0  0  0  0  0  0
   12.4026   -3.7624   15.7852 Cl  0  0  0  0  0  0
   11.7926    2.1306   19.1378 N   0  0  2  0  0  0
   12.9740    1.6325   19.8457 C   0  0  0  0  0  0
    4.7248    2.5874   16.1857 C   0  0  0  0  0  0
    3.5884    3.3172   15.7718 C   0  0  0  0  0  0
    2.6307    2.3750   15.5417 N   0  0  0  0  0  0
    3.2156    1.1604   15.7858 C   0  0  0  0  0  0
    4.4577    1.2397   16.1921 N   0  0  0  0  0  0
   14.0522    2.7371   19.9397 C   0  0  0  0  0  0
   13.6144    3.9006   20.8628 C   0  0  0  0  0  0
   13.2326    3.4029   22.2723 C   0  0  0  0  0  0
   12.2256    2.2345   22.2305 C   0  0  0  0  0  0
   12.7091    1.1134   21.2820 C   0  0  0  0  0  0
   10.4130    3.5354   17.4712 H   0  0  0  0  0  0
    8.4135    4.4020   16.4384 H   0  0  0  0  0  0
    6.1764    1.0785   18.0293 H   0  0  0  0  0  0
    8.2129    0.1769   18.9853 H   0  0  0  0  0  0
    4.7301    6.3126   15.6132 H   0  0  0  0  0  0
   10.4146    0.8024   19.8913 H   0  0  0  0  0  0
   10.2312   -1.4705   19.4359 H   0  0  0  0  0  0
   10.8833   -3.4593   18.1636 H   0  0  0  0  0  0
   13.0207   -0.9834   15.3811 H   0  0  0  0  0  0
   12.3318    1.0287   16.6494 H   0  0  0  0  0  0
   11.3971    2.8660   19.7112 H   0  0  0  0  0  0
   13.4289    0.8099   19.2911 H   0  0  0  0  0  0
    1.6783    2.5148   15.2157 H   0  0  0  0  0  0
    2.6349    0.2575   15.6588 H   0  0  0  0  0  0
   14.2781    3.1221   18.9441 H   0  0  0  0  0  0
   14.9854    2.3085   20.3053 H   0  0  0  0  0  0
   12.7622    4.4220   20.4217 H   0  0  0  0  0  0
   14.4143    4.6381   20.9355 H   0  0  0  0  0  0
   12.8177    4.2264   22.8579 H   0  0  0  0  0  0
   14.1339    3.0796   22.7950 H   0  0  0  0  0  0
   11.2524    2.6068   21.9065 H   0  0  0  0  0  0
   12.0730    1.8364   23.2365 H   0  0  0  0  0  0
   13.6245    0.6770   21.6804 H   0  0  0  0  0  0
   11.9896    0.2943   21.2780 H   0  0  0  0  0  0
  1  2  2  0  0  0
  1  6  1  0  0  0
  1 11  1  0  0  0
  2  3  1  0  0  0
  2 31  1  0  0  0
  3  4  2  0  0  0
  3 32  1  0  0  0
  4  5  1  0  0  0
  4  7  1  0  0  0
  5  6  2  0  0  0
  5 33  1  0  0  0
  6 34  1  0  0  0
  7  8  2  0  0  0
  7 21  1  0  0  0
  8  9  1  0  0  0
  9 10  2  0  0  0
  9 35  1  0  0  0
 10 22  1  0  0  0
 11 12  1  0  0  0
 11 19  1  0  0  0
 11 36  1  0  0  0
 12 13  2  0  0  0
 12 17  1  0  0  0
 13 14  1  0  0  0
 13 37  1  0  0  0
 14 15  2  0  0  0
 14 38  1  0  0  0
 15 16  1  0  0  0
 15 18  1  0  0  0
 16 17  2  0  0  0
 16 39  1  0  0  0
 17 40  1  0  0  0
 19 20  1  0  0  0
 19 41  1  0  0  0
 20 26  1  0  0  0
 20 30  1  0  0  0
 20 42  1  0  0  0
 21 22  2  0  0  0
 21 25  1  0  0  0
 22 23  1  0  0  0
 23 24  1  0  0  0
 23 43  1  0  0  0
 24 25  2  0  0  0
 24 44  1  0  0  0
 26 27  1  0  0  0
 26 45  1  0  0  0
 26 46  1  0  0  0
 27 28  1  0  0  0
 27 47  1  0  0  0
 27 48  1  0  0  0
 28 29  1  0  0  0
 28 49  1  0  0  0
 28 50  1  0  0  0
 29 30  1  0  0  0
 29 51  1  0  0  0
 29 52  1  0  0  0
 30 53  1  0  0  0
 30 54  1  0  0  0
M  END
> <s_m_entry_id>
2277

> <s_m_entry_name>
dock_pv.16

> <s_m_Source_Path>
/home/csk/Desktop/cluster/DUD-E-result/akt1

> <s_m_Source_File>
dock_pv.maegz

> <i_m_Source_File_Index>
16

> <chembl_id>
CHEMBL3113141

> <chembl_pref_name>
None

> <i_lp_mmshare_version>
53161

> <i_f3d_flags>
0

> <r_lp_tautomer_probability>
0.605877564353792

> <s_lp_Force_Field>
OPLS_2005

> <r_lp_Energy>
24.068828

> <b_lp_Chiralities_Consistent>
1

> <s_lp_Variant>
CHEMBL4282_lig1379-2

> <s_i_glide_gridfile>
glide-grid_3cqw

> <i_i_glide_lignum>
1916

> <i_i_glide_rotatable_bonds>
5

> <r_i_docking_score>
-8.37988541190306

> <r_i_glide_ligand_efficiency>
-0.279329513730102

> <r_i_glide_ligand_efficiency_sa>
-0.867941743950444

> <r_i_glide_ligand_efficiency_ln>
-1.90400127174899

> <r_i_glide_gscore>
-8.37988541190306

> <r_i_glide_lipo>
-1.9167255216665

> <r_i_glide_hbond>
-0.572074364145148

> <r_i_glide_metal>
0

> <r_i_glide_rewards>
-2.73437542533561

> <r_i_glide_evdw>
-50.2384147644043

> <r_i_glide_ecoul>
-6.93955421447754

> <r_i_glide_erotb>
0.39614376963605

> <r_i_glide_esite>
0

> <r_i_glide_emodel>
-83.3448431994657

> <r_i_glide_energy>
-57.1779689788818

> <r_i_glide_einternal>
3.22880840301514

> <i_i_glide_confnum>
78

> <i_i_glide_posenum>
101

> <r_i_glide_eff_state_penalty>
0

> <s_user_duplicate_titles>
CHEMBL4282_lig1379

> <s_m_subgroup_title>
dock_pv

> <s_m_subgroupid>
dock_pv

> <b_m_subgroup_collapsed>
1

$$$$
CHEMBL4282_lig1386
                    3D
 Schrodinger Suite 2021-1.
 45 49  0  0  1  0            999 V2000
    5.8390    4.6382   16.1852 N   0  0  0  0  0  0
    4.6642    5.1928   15.7851 C   0  0  0  0  0  0
    3.4719    4.5717   15.6115 N   0  0  0  0  0  0
    5.8596    3.3113   16.4979 C   0  0  0  0  0  0
    4.7245    2.5336   16.1924 C   0  0  0  0  0  0
    3.5714    3.2519   15.7843 C   0  0  0  0  0  0
    2.6309    2.2908   15.5454 N   0  0  0  0  0  0
    3.2417    1.0866   15.7880 C   0  0  0  0  0  0
    4.4836    1.1821   16.1899 N   0  0  0  0  0  0
    7.1245    2.7869   17.1118 C   0  0  0  0  0  0
    7.1283    1.6040   17.8666 C   0  0  0  0  0  0
    8.3069    1.1085   18.4195 C   0  0  0  0  0  0
    9.5102    1.7952   18.2446 C   0  0  0  0  0  0
    9.5058    3.0098   17.5571 C   0  0  0  0  0  0
    8.3325    3.4896   16.9856 C   0  0  0  0  0  0
   10.8338    1.2242   18.7710 C   0  0  1  0  0  0
   10.8157    1.0000   20.2175 N   0  0  2  0  0  0
   11.2260   -0.0542   18.0279 C   0  0  0  0  0  0
   10.8387   -1.3187   18.4902 C   0  0  0  0  0  0
   11.2103   -2.4633   17.7954 C   0  0  0  0  0  0
   11.9812   -2.3448   16.6445 C   0  0  0  0  0  0
   12.3919   -1.0960   16.1848 C   0  0  0  0  0  0
   12.0116    0.0503   16.8749 C   0  0  0  0  0  0
   12.4279   -3.7626   15.7844 Cl  0  0  0  0  0  0
   10.9035    2.2369   20.9653 C   0  0  0  0  0  0
   11.7602    2.2331   22.2059 C   0  0  0  0  0  0
   12.2364    2.9560   20.9734 C   0  0  0  0  0  0
    4.6774    6.2593   15.6157 H   0  0  0  0  0  0
    1.6759    2.4145   15.2279 H   0  0  0  0  0  0
    2.6860    0.1707   15.6627 H   0  0  0  0  0  0
    6.2180    1.0502   18.0428 H   0  0  0  0  0  0
    8.2821    0.1876   18.9845 H   0  0  0  0  0  0
   10.4081    3.5863   17.4542 H   0  0  0  0  0  0
    8.3768    4.4229   16.4433 H   0  0  0  0  0  0
   11.6304    1.9440   18.5726 H   0  0  0  0  0  0
   11.5573    0.3751   20.4958 H   0  0  0  0  0  0
   10.2311   -1.4191   19.3795 H   0  0  0  0  0  0
   10.8969   -3.4332   18.1530 H   0  0  0  0  0  0
   13.0018   -1.0153   15.2985 H   0  0  0  0  0  0
   12.3255    1.0182   16.5126 H   0  0  0  0  0  0
    9.9787    2.8190   21.0008 H   0  0  0  0  0  0
   11.4317    2.8360   23.0497 H   0  0  0  0  0  0
   12.2604    1.3155   22.5157 H   0  0  0  0  0  0
   13.0752    2.5439   20.4114 H   0  0  0  0  0  0
   12.2299    4.0472   20.9743 H   0  0  0  0  0  0
  1  2  2  0  0  0
  1  4  1  0  0  0
  2  3  1  0  0  0
  2 28  1  0  0  0
  3  6  2  0  0  0
  4  5  2  0  0  0
  4 10  1  0  0  0
  5  6  1  0  0  0
  5  9  1  0  0  0
  6  7  1  0  0  0
  7  8  1  0  0  0
  7 29  1  0  0  0
  8  9  2  0  0  0
  8 30  1  0  0  0
 10 11  2  0  0  0
 10 15  1  0  0  0
 11 12  1  0  0  0
 11 31  1  0  0  0
 12 13  2  0  0  0
 12 32  1  0  0  0
 13 14  1  0  0  0
 13 16  1  0  0  0
 14 15  2  0  0  0
 14 33  1  0  0  0
 15 34  1  0  0  0
 16 17  1  0  0  0
 16 18  1  0  0  0
 16 35  1  0  0  0
 17 25  1  0  0  0
 17 36  1  0  0  0
 18 19  2  0  0  0
 18 23  1  0  0  0
 19 20  1  0  0  0
 19 37  1  0  0  0
 20 21  2  0  0  0
 20 38  1  0  0  0
 21 22  1  0  0  0
 21 24  1  0  0  0
 22 23  2  0  0  0
 22 39  1  0  0  0
 23 40  1  0  0  0
 25 26  1  0  0  0
 25 27  1  0  0  0
 25 41  1  0  0  0
 26 27  1  0  0  0
 26 42  1  0  0  0
 26 43  1  0  0  0
 27 44  1  0  0  0
 27 45  1  0  0  0
M  END
> <s_m_entry_id>
2278

> <s_m_entry_name>
dock_pv.17

> <s_m_Source_Path>
/home/csk/Desktop/cluster/DUD-E-result/akt1

> <s_m_Source_File>
dock_pv.maegz

> <i_m_Source_File_Index>
17

> <chembl_id>
CHEMBL3113130

> <chembl_pref_name>
None

> <i_lp_mmshare_version>
53161

> <i_f3d_flags>
0

> <r_lp_tautomer_probability>
0.605877564353792

> <s_lp_Force_Field>
OPLS_2005

> <r_lp_Energy>
28.425159

> <b_lp_Chiralities_Consistent>
1

> <s_lp_Variant>
CHEMBL4282_lig1386-2

> <s_i_glide_gridfile>
glide-grid_3cqw

> <i_i_glide_lignum>
1934

> <i_i_glide_rotatable_bonds>
5

> <r_i_docking_score>
-8.19226485376467

> <r_i_glide_ligand_efficiency>
-0.303417216806099

> <r_i_glide_ligand_efficiency_sa>
-0.910251649418283

> <r_i_glide_ligand_efficiency_ln>
-1.90702419791479

> <r_i_glide_gscore>
-8.19226485376467

> <r_i_glide_lipo>
-1.94884610776465

> <r_i_glide_hbond>
-0.557317146083084

> <r_i_glide_metal>
0

> <r_i_glide_rewards>
-2.98887502199329

> <r_i_glide_evdw>
-46.075927734375

> <r_i_glide_ecoul>
-5.81918859481812

> <r_i_glide_erotb>
0.479448098017823

> <r_i_glide_esite>
0

> <r_i_glide_emodel>
-74.4145901269198

> <r_i_glide_energy>
-51.8951163291931

> <r_i_glide_einternal>
4.39860820770264

> <i_i_glide_confnum>
19

> <i_i_glide_posenum>
28

> <r_i_glide_eff_state_penalty>
0

> <s_user_duplicate_titles>
CHEMBL4282_lig1386

> <s_m_subgroup_title>
dock_pv

> <s_m_subgroupid>
dock_pv

> <b_m_subgroup_collapsed>
1

$$$$
CHEMBL4282_lig963
                    3D
 Schrodinger Suite 2021-1.
 48 51  0  0  1  0            999 V2000
   11.0428   -1.2168   18.8394 C   0  0  0  0  0  0
   11.9219   -0.1314   18.8472 C   0  0  0  0  0  0
   12.6328    0.2023   17.6908 C   0  0  0  0  0  0
   12.4753   -0.5585   16.5343 C   0  0  0  0  0  0
   11.6125   -1.6535   16.5388 C   0  0  0  0  0  0
   10.8949   -1.9822   17.6875 C   0  0  0  0  0  0
   12.1091    0.6746   20.1305 C   0  0  0  0  0  0
   10.9198    1.6248   20.4226 C   0  0  1  0  0  0
   11.0486    2.2369   21.7576 N   0  0  0  0  0  0
   10.7965    2.7925   19.3968 C   0  0  0  0  0  0
    9.5715    3.2373   19.0011 N   0  0  0  0  0  0
   11.8518    3.2865   18.9838 O   0  0  0  0  0  0
    9.4523    4.2670   17.9608 C   0  0  0  0  0  0
    8.7373    3.6223   16.7532 C   0  0  0  0  0  0
    7.4676    2.9434   17.0744 N   0  0  0  0  0  0
    7.5833    2.0454   18.2398 C   0  0  0  0  0  0
    8.2839    2.6941   19.4563 C   0  0  0  0  0  0
    6.2295    3.3498   16.5850 C   0  0  0  0  0  0
    3.7361    4.3167   15.6759 N   0  0  0  0  0  0
    4.8671    5.0553   15.7846 C   0  0  0  0  0  0
    6.0943    4.6428   16.1850 N   0  0  0  0  0  0
   11.4310   -2.6135   15.1159 Cl  0  0  0  0  0  0
    4.9108    1.0399   16.5828 C   0  0  0  0  0  0
    3.6054    0.8184   16.1850 C   0  0  0  0  0  0
    3.0226    2.0088   15.8163 N   0  0  0  0  0  0
    3.9365    3.0261   15.9570 C   0  0  0  0  0  0
    5.1522    2.4485   16.4277 C   0  0  0  0  0  0
   10.4780   -1.4762   19.7257 H   0  0  0  0  0  0
   13.3065    1.0478   17.6915 H   0  0  0  0  0  0
   13.0268   -0.3046   15.6411 H   0  0  0  0  0  0
   10.2265   -2.8300   17.6946 H   0  0  0  0  0  0
   12.2233   -0.0404   20.9467 H   0  0  0  0  0  0
   13.0585    1.2126   20.1066 H   0  0  0  0  0  0
   10.0354    0.9914   20.4096 H   0  0  0  0  0  0
   11.9533    2.6743   21.8663 H   0  0  0  0  0  0
   10.3787    2.9964   21.8797 H   0  0  0  0  0  0
    8.8601    5.0990   18.3446 H   0  0  0  0  0  0
   10.4127    4.6889   17.6622 H   0  0  0  0  0  0
    9.3847    2.8577   16.3209 H   0  0  0  0  0  0
    8.5970    4.3764   15.9781 H   0  0  0  0  0  0
    8.1311    1.1591   17.9165 H   0  0  0  0  0  0
    6.5985    1.7122   18.5686 H   0  0  0  0  0  0
    8.3408    2.0192   20.3079 H   0  0  0  0  0  0
    7.6727    3.5247   19.8158 H   0  0  0  0  0  0
    4.7785    6.1018   15.5323 H   0  0  0  0  0  0
    5.6007    0.2812   16.9228 H   0  0  0  0  0  0
    3.0312   -0.0982   16.1469 H   0  0  0  0  0  0
    2.0650    2.0910   15.5029 H   0  0  0  0  0  0
  1  2  2  0  0  0
  1  6  1  0  0  0
  1 28  1  0  0  0
  2  7  1  0  0  0
  2  3  1  0  0  0
  3  4  2  0  0  0
  3 29  1  0  0  0
  4  5  1  0  0  0
  4 30  1  0  0  0
  5 22  1  0  0  0
  5  6  2  0  0  0
  6 31  1  0  0  0
  7  8  1  0  0  0
  7 32  1  0  0  0
  7 33  1  0  0  0
  8  9  1  0  0  0
  8 10  1  0  0  0
  8 34  1  0  0  0
  9 35  1  0  0  0
  9 36  1  0  0  0
 10 11  1  0  0  0
 10 12  2  0  0  0
 11 17  1  0  0  0
 11 13  1  0  0  0
 13 14  1  0  0  0
 13 37  1  0  0  0
 13 38  1  0  0  0
 14 15  1  0  0  0
 14 39  1  0  0  0
 14 40  1  0  0  0
 15 16  1  0  0  0
 15 18  1  0  0  0
 16 17  1  0  0  0
 16 41  1  0  0  0
 16 42  1  0  0  0
 17 43  1  0  0  0
 17 44  1  0  0  0
 18 27  1  0  0  0
 18 21  2  0  0  0
 19 26  1  0  0  0
 19 20  2  0  0  0
 20 21  1  0  0  0
 20 45  1  0  0  0
 23 24  2  0  0  0
 23 27  1  0  0  0
 23 46  1  0  0  0
 24 25  1  0  0  0
 24 47  1  0  0  0
 25 26  1  0  0  0
 25 48  1  0  0  0
 26 27  2  0  0  0
M  END
> <s_m_entry_id>
2279

> <s_m_entry_name>
dock_pv.18

> <s_m_Source_Path>
/home/csk/Desktop/cluster/DUD-E-result/akt1

> <s_m_Source_File>
dock_pv.maegz

> <i_m_Source_File_Index>
18

> <chembl_id>
CHEMBL1258552

> <chembl_pref_name>
None

> <i_lp_mmshare_version>
53161

> <i_f3d_flags>
0

> <r_lp_tautomer_probability>
0.999998369746258

> <s_lp_Force_Field>
OPLS_2005

> <r_lp_Energy>
39.59149

> <b_lp_Chiralities_Consistent>
1

> <s_lp_Variant>
CHEMBL4282_lig963-1

> <s_i_glide_gridfile>
glide-grid_3cqw

> <i_i_glide_lignum>
1359

> <i_i_glide_rotatable_bonds>
5

> <r_i_docking_score>
-8.17206502506284

> <r_i_glide_ligand_efficiency>
-0.302669075002327

> <r_i_glide_ligand_efficiency_sa>
-0.908007224009434

> <r_i_glide_ligand_efficiency_ln>
-1.9023220108132

> <r_i_glide_gscore>
-8.17206502506284

> <r_i_glide_lipo>
-2.3563013693282

> <r_i_glide_hbond>
-0.129701333126011

> <r_i_glide_metal>
0

> <r_i_glide_rewards>
-2.72758233626434

> <r_i_glide_evdw>
-48.106803894043

> <r_i_glide_ecoul>
-6.34505176544189

> <r_i_glide_erotb>
0.525172777857453

> <r_i_glide_esite>
-0.126554804683301

> <r_i_glide_emodel>
-79.3855775166017

> <r_i_glide_energy>
-54.4518556594849

> <r_i_glide_einternal>
5.09844923019409

> <i_i_glide_confnum>
13

> <i_i_glide_posenum>
240

> <r_i_glide_eff_state_penalty>
0

> <s_user_duplicate_titles>
CHEMBL4282_lig963

> <s_m_subgroup_title>
dock_pv

> <s_m_subgroupid>
dock_pv

> <b_m_subgroup_collapsed>
1

$$$$
CHEMBL4282_lig2157
                    3D
 Schrodinger Suite 2021-1.
 42 44  0  0  1  0            999 V2000
    2.6310    4.1759   15.3850 O   0  0  0  0  0  0
    3.4782    3.1868   15.7850 C   0  0  0  0  0  0
    3.0753    1.8539   15.7643 C   0  0  0  0  0  0
    3.9574    0.8582   16.1850 C   0  0  0  0  0  0
    5.2464    1.1941   16.6009 C   0  0  0  0  0  0
    5.6571    2.5300   16.5975 C   0  0  0  0  0  0
    6.9546    2.8128   17.0442 N   0  0  0  0  0  0
    7.7497    3.8393   16.6572 C   0  0  0  0  0  0
    7.4243    4.6370   15.7850 O   0  0  0  0  0  0
    9.1625    4.0004   17.2462 C   0  0  0  0  0  0
    9.6130    2.8421   18.1108 C   0  0  0  0  0  0
   10.2168    1.8241   17.6027 N   0  0  0  0  0  0
   10.4635    0.7284   18.3923 C   0  0  0  0  0  0
   10.0897    0.6969   19.6921 C   0  0  0  0  0  0
    9.3878    1.8136   20.2677 C   0  0  0  0  0  0
    8.9156    1.8370   21.3850 O   0  0  0  0  0  0
    9.2443    2.8468   19.4199 N   0  0  0  0  0  0
   11.1126   -0.3225   17.7646 N   0  0  0  0  0  0
   12.2853   -0.0658   16.9140 C   0  0  0  0  0  0
   12.5165   -1.2151   15.9217 C   0  0  0  0  0  0
   12.6630   -2.4526   16.6028 O   0  0  0  0  0  0
   11.4817   -2.7623   17.3298 C   0  0  0  0  0  0
   11.1965   -1.6638   18.3774 C   0  0  0  0  0  0
    4.7592    3.5270   16.1939 C   0  0  0  0  0  0
    1.7578    3.8370   15.1161 H   0  0  0  0  0  0
    2.0860    1.5923   15.4195 H   0  0  0  0  0  0
    3.6410   -0.1746   16.1850 H   0  0  0  0  0  0
    5.9189    0.4138   16.9274 H   0  0  0  0  0  0
    7.3517    2.1282   17.6704 H   0  0  0  0  0  0
    9.8427    4.1308   16.4078 H   0  0  0  0  0  0
    9.2006    4.9339   17.8082 H   0  0  0  0  0  0
   10.2662   -0.1551   20.3234 H   0  0  0  0  0  0
    8.8048    3.6484   19.8450 H   0  0  0  0  0  0
   12.1191    0.8289   16.3126 H   0  0  0  0  0  0
   13.1681    0.1862   17.5038 H   0  0  0  0  0  0
   13.4310   -1.0019   15.3850 H   0  0  0  0  0  0
   11.7251   -1.2620   15.1708 H   0  0  0  0  0  0
   11.6094   -3.7233   17.8283 H   0  0  0  0  0  0
   10.6311   -2.8881   16.6571 H   0  0  0  0  0  0
   11.8862   -1.6856   19.2225 H   0  0  0  0  0  0
   10.2311   -1.9041   18.8248 H   0  0  0  0  0  0
    5.0318    4.5711   16.2155 H   0  0  0  0  0  0
  1  2  1  0  0  0
  1 25  1  0  0  0
  2  3  2  0  0  0
  2 24  1  0  0  0
  3  4  1  0  0  0
  3 26  1  0  0  0
  4  5  2  0  0  0
  4 27  1  0  0  0
  5  6  1  0  0  0
  5 28  1  0  0  0
  6  7  1  0  0  0
  6 24  2  0  0  0
  7  8  1  0  0  0
  7 29  1  0  0  0
  8  9  2  0  0  0
  8 10  1  0  0  0
 10 11  1  0  0  0
 10 30  1  0  0  0
 10 31  1  0  0  0
 11 12  2  0  0  0
 11 17  1  0  0  0
 12 13  1  0  0  0
 13 14  2  0  0  0
 13 18  1  0  0  0
 14 15  1  0  0  0
 14 32  1  0  0  0
 15 16  2  0  0  0
 15 17  1  0  0  0
 17 33  1  0  0  0
 18 19  1  0  0  0
 18 23  1  0  0  0
 19 20  1  0  0  0
 19 34  1  0  0  0
 19 35  1  0  0  0
 20 21  1  0  0  0
 20 36  1  0  0  0
 20 37  1  0  0  0
 21 22  1  0  0  0
 22 23  1  0  0  0
 22 38  1  0  0  0
 22 39  1  0  0  0
 23 40  1  0  0  0
 23 41  1  0  0  0
 24 42  1  0  0  0
M  END
> <s_m_entry_id>
2280

> <s_m_entry_name>
dock_pv.19

> <s_m_Source_Path>
/home/csk/Desktop/cluster/DUD-E-result/akt1

> <s_m_Source_File>
dock_pv.maegz

> <i_m_Source_File_Index>
19

> <chembl_id>
CHEMBL3696250

> <chembl_pref_name>
None

> <i_lp_mmshare_version>
53161

> <i_f3d_flags>
0

> <r_lp_tautomer_probability>
0.994036381584116

> <s_lp_Force_Field>
OPLS_2005

> <r_lp_Energy>
32.550937

> <b_lp_Chiralities_Consistent>
1

> <s_lp_Variant>
CHEMBL4282_lig2157-1

> <s_i_glide_gridfile>
glide-grid_3cqw

> <i_i_glide_lignum>
2887

> <i_i_glide_rotatable_bonds>
6

> <r_i_docking_score>
-8.17152494820681

> <r_i_glide_ligand_efficiency>
-0.340480206175284

> <r_i_glide_ligand_efficiency_sa>
-0.982114861068556

> <r_i_glide_ligand_efficiency_ln>
-1.9558208869526

> <r_i_glide_gscore>
-8.17152494820681

> <r_i_glide_lipo>
-2.45351222421116

> <r_i_glide_hbond>
-0.688368402004825

> <r_i_glide_metal>
0

> <r_i_glide_rewards>
-2.0247522888491

> <r_i_glide_evdw>
-42.1764106750488

> <r_i_glide_ecoul>
-11.2283363342285

> <r_i_glide_erotb>
0.86172094307564

> <r_i_glide_esite>
-0.073541992330637

> <r_i_glide_emodel>
-76.427739472535

> <r_i_glide_energy>
-53.4047470092773

> <r_i_glide_einternal>
2.70945811271667

> <i_i_glide_confnum>
182

> <i_i_glide_posenum>
235

> <r_i_glide_eff_state_penalty>
0

> <s_user_duplicate_titles>
CHEMBL4282_lig2157

> <s_m_subgroup_title>
dock_pv

> <s_m_subgroupid>
dock_pv

> <b_m_subgroup_collapsed>
1

$$$$
CHEMBL4282_lig925
                    3D
 Schrodinger Suite 2021-1.
 28 30  0  0  1  0            999 V2000
    6.0699    3.7397   16.4245 C   0  0  0  0  0  0
    5.8328    5.0298   16.0577 N   0  0  0  0  0  0
    4.5545    5.3766   15.7808 C   0  0  0  0  0  0
    3.4627    4.5758   15.7492 N   0  0  0  0  0  0
    3.7559    3.2936   15.9811 C   0  0  0  0  0  0
    5.0417    2.7696   16.3161 C   0  0  0  0  0  0
    2.8706    2.2427   15.9235 N   0  0  0  0  0  0
    3.5425    1.0726   16.1849 C   0  0  0  0  0  0
    4.8735    1.3374   16.4063 C   0  0  0  0  0  0
    6.1188    0.1874   16.6752 Cl  0  0  0  0  0  0
    7.3583    3.4374   16.8975 N   0  0  0  0  0  0
    7.6243    2.5719   18.0555 C   0  0  0  0  0  0
    8.7390    3.2202   18.8867 C   0  0  1  0  0  0
    9.5661    3.8183   17.7735 C   0  0  0  0  0  0
    8.5251    4.3161   16.7791 C   0  0  0  0  0  0
    8.2307    4.2404   19.7850 N   0  0  0  0  0  0
    4.3809    6.4205   15.5751 H   0  0  0  0  0  0
    1.8821    2.2911   15.7151 H   0  0  0  0  0  0
    3.0311    0.1233   16.1846 H   0  0  0  0  0  0
    6.7369    2.4799   18.6851 H   0  0  0  0  0  0
    8.0156    1.6088   17.7309 H   0  0  0  0  0  0
    9.2772    2.4318   19.4154 H   0  0  0  0  0  0
   10.2313    3.0746   17.3403 H   0  0  0  0  0  0
   10.2007    4.6363   18.1195 H   0  0  0  0  0  0
    8.9297    4.2381   15.7712 H   0  0  0  0  0  0
    8.2864    5.3513   17.0236 H   0  0  0  0  0  0
    7.5512    3.8389   20.4145 H   0  0  0  0  0  0
    8.9733    4.6087   20.3890 H   0  0  0  0  0  0
  1  2  1  0  0  0
  1  6  2  0  0  0
  1 11  1  0  0  0
  2  3  2  0  0  0
  3  4  1  0  0  0
  3 17  1  0  0  0
  4  5  2  0  0  0
  5  7  1  0  0  0
  5  6  1  0  0  0
  6  9  1  0  0  0
  7  8  1  0  0  0
  7 18  1  0  0  0
  8  9  2  0  0  0
  8 19  1  0  0  0
  9 10  1  0  0  0
 11 12  1  0  0  0
 11 15  1  0  0  0
 12 13  1  0  0  0
 12 20  1  0  0  0
 12 21  1  0  0  0
 13 14  1  0  0  0
 13 16  1  0  0  0
 13 22  1  0  0  0
 14 15  1  0  0  0
 14 23  1  0  0  0
 14 24  1  0  0  0
 15 25  1  0  0  0
 15 26  1  0  0  0
 16 27  1  0  0  0
 16 28  1  0  0  0
M  END
> <s_m_entry_id>
2281

> <s_m_entry_name>
dock_pv.20

> <s_m_Source_Path>
/home/csk/Desktop/cluster/DUD-E-result/akt1

> <s_m_Source_File>
dock_pv.maegz

> <i_m_Source_File_Index>
20

> <chembl_id>
CHEMBL1173272

> <chembl_pref_name>
None

> <i_lp_mmshare_version>
53161

> <i_f3d_flags>
0

> <r_lp_tautomer_probability>
0.999998369746258

> <s_lp_Force_Field>
OPLS_2005

> <r_lp_Energy>
28.326937

> <b_lp_Chiralities_Consistent>
1

> <s_lp_Variant>
CHEMBL4282_lig925-1

> <s_i_glide_gridfile>
glide-grid_3cqw

> <i_i_glide_lignum>
1321

> <i_i_glide_rotatable_bonds>
1

> <r_i_docking_score>
-8.16442332209088

> <r_i_glide_ligand_efficiency>
-0.51027645763068

> <r_i_glide_ligand_efficiency_sa>
-1.28581609928102

> <r_i_glide_ligand_efficiency_ln>
-2.16414348957807

> <r_i_glide_gscore>
-8.16442332209088

> <r_i_glide_lipo>
-1.58580539633362

> <r_i_glide_hbond>
-0.435054793393904

> <r_i_glide_metal>
0

> <r_i_glide_rewards>
-3.77953117029717

> <r_i_glide_evdw>
-30.3667678833008

> <r_i_glide_ecoul>
-7.06241130828857

> <r_i_glide_erotb>
0.213668128342137

> <r_i_glide_esite>
0

> <r_i_glide_emodel>
-52.6003202194437

> <r_i_glide_energy>
-37.4291791915894

> <r_i_glide_einternal>
1.78284132480621

> <i_i_glide_confnum>
6

> <i_i_glide_posenum>
369

> <r_i_glide_eff_state_penalty>
0

> <s_user_duplicate_titles>
CHEMBL4282_lig925

> <s_m_subgroup_title>
dock_pv

> <s_m_subgroupid>
dock_pv

> <b_m_subgroup_collapsed>
1

$$$$
CHEMBL4282_lig1001
                    3D
 Schrodinger Suite 2021-1.
 52 55  0  0  1  0            999 V2000
    3.8922    4.4938   15.7496 N   0  0  0  0  0  0
    5.0438    5.2074   15.7849 C   0  0  0  0  0  0
    6.2653    4.7525   16.1806 N   0  0  0  0  0  0
    6.3485    3.4541   16.5877 C   0  0  0  0  0  0
    4.0246    3.1928   16.0995 C   0  0  0  0  0  0
    5.2170    2.6256   16.5152 C   0  0  0  0  0  0
    4.9509    1.1753   16.8091 C   0  0  1  0  0  0
    3.6209    0.9177   16.3544 O   0  0  0  0  0  0
    2.9452    2.1498   16.1131 C   0  0  0  0  0  0
    7.5752    3.0257   17.0937 N   0  0  0  0  0  0
    8.8735    3.5826   16.6720 C   0  0  0  0  0  0
    9.6605    4.3267   17.7749 C   0  0  0  0  0  0
    9.7669    3.4318   18.9353 N   0  0  0  0  0  0
    8.4650    3.0171   19.4792 C   0  0  0  0  0  0
    7.6790    2.2832   18.3657 C   0  0  0  0  0  0
   10.9882    3.0143   19.3828 C   0  0  0  0  0  0
   12.0491    3.4600   18.9317 O   0  0  0  0  0  0
   11.1054    1.9307   20.4969 C   0  0  1  0  0  0
   12.1780    0.8484   20.2120 C   0  0  0  0  0  0
   11.9463    0.0636   18.9231 C   0  0  0  0  0  0
   11.0305   -0.9895   18.9068 C   0  0  0  0  0  0
   10.8632   -1.7478   17.7534 C   0  0  0  0  0  0
   11.6043   -1.4452   16.6118 C   0  0  0  0  0  0
   12.4960   -0.3757   16.6101 C   0  0  0  0  0  0
   12.6719    0.3757   17.7695 C   0  0  0  0  0  0
   11.4309    2.6370   21.7481 N   0  0  0  0  0  0
   11.4310   -2.4153   15.1969 Cl  0  0  0  0  0  0
    5.8488    0.1537   16.1123 C   0  0  0  0  0  0
    4.9846    6.2445   15.4956 H   0  0  0  0  0  0
    5.0305    1.0368   17.8807 H   0  0  0  0  0  0
    2.2104    2.3391   16.8967 H   0  0  0  0  0  0
    2.4075    2.0944   15.1658 H   0  0  0  0  0  0
    9.4633    2.7309   16.3286 H   0  0  0  0  0  0
    8.7538    4.2402   15.8102 H   0  0  0  0  0  0
    9.1362    5.2379   18.0626 H   0  0  0  0  0  0
   10.6301    4.6373   17.3908 H   0  0  0  0  0  0
    8.5101    2.4393   20.3995 H   0  0  0  0  0  0
    7.9205    3.9200   19.7571 H   0  0  0  0  0  0
    8.1530    1.3251   18.1454 H   0  0  0  0  0  0
    6.6881    2.0726   18.7658 H   0  0  0  0  0  0
   10.1695    1.3902   20.6128 H   0  0  0  0  0  0
   12.2072    0.1303   21.0328 H   0  0  0  0  0  0
   13.1793    1.2855   20.2004 H   0  0  0  0  0  0
   10.4560   -1.2351   19.7890 H   0  0  0  0  0  0
   10.1670   -2.5719   17.7573 H   0  0  0  0  0  0
   13.0568   -0.1383   15.7186 H   0  0  0  0  0  0
   13.3733    1.1970   17.7775 H   0  0  0  0  0  0
   10.9358    3.5416   21.7855 H   0  0  0  0  0  0
   11.1205    2.1308   22.5623 H   0  0  0  0  0  0
    6.8476    0.1533   16.5484 H   0  0  0  0  0  0
    5.4310   -0.8449   16.2440 H   0  0  0  0  0  0
    5.9298    0.3516   15.0430 H   0  0  0  0  0  0
  1  2  2  0  0  0
  1  5  1  0  0  0
  2  3  1  0  0  0
  2 29  1  0  0  0
  3  4  2  0  0  0
  4 10  1  0  0  0
  4  6  1  0  0  0
  5  9  1  0  0  0
  5  6  2  0  0  0
  6  7  1  0  0  0
  7  8  1  0  0  0
  7 28  1  0  0  0
  7 30  1  0  0  0
  8  9  1  0  0  0
  9 31  1  0  0  0
  9 32  1  0  0  0
 10 11  1  0  0  0
 10 15  1  0  0  0
 11 12  1  0  0  0
 11 33  1  0  0  0
 11 34  1  0  0  0
 12 13  1  0  0  0
 12 35  1  0  0  0
 12 36  1  0  0  0
 13 14  1  0  0  0
 13 16  1  0  0  0
 14 15  1  0  0  0
 14 37  1  0  0  0
 14 38  1  0  0  0
 15 39  1  0  0  0
 15 40  1  0  0  0
 16 17  2  0  0  0
 16 18  1  0  0  0
 18 19  1  0  0  0
 18 26  1  0  0  0
 18 41  1  0  0  0
 19 20  1  0  0  0
 19 42  1  0  0  0
 19 43  1  0  0  0
 20 21  2  0  0  0
 20 25  1  0  0  0
 21 22  1  0  0  0
 21 44  1  0  0  0
 22 23  2  0  0  0
 22 45  1  0  0  0
 23 24  1  0  0  0
 23 27  1  0  0  0
 24 25  2  0  0  0
 24 46  1  0  0  0
 25 47  1  0  0  0
 26 48  1  0  0  0
 26 49  1  0  0  0
 28 50  1  0  0  0
 28 51  1  0  0  0
 28 52  1  0  0  0
M  END
> <s_m_entry_id>
2282

> <s_m_entry_name>
dock_pv.21

> <s_m_Source_Path>
/home/csk/Desktop/cluster/DUD-E-result/akt1

> <s_m_Source_File>
dock_pv.maegz

> <i_m_Source_File_Index>
21

> <chembl_id>
CHEMBL1632378

> <chembl_pref_name>
None

> <i_lp_mmshare_version>
53161

> <i_f3d_flags>
0

> <r_lp_tautomer_probability>
1

> <s_lp_Force_Field>
OPLS_2005

> <r_lp_Energy>
56.620704

> <b_lp_Chiralities_Consistent>
1

> <s_lp_Variant>
CHEMBL4282_lig1001-1

> <s_i_glide_gridfile>
glide-grid_3cqw

> <i_i_glide_lignum>
1403

> <i_i_glide_rotatable_bonds>
5

> <r_i_docking_score>
-8.15716039495874

> <r_i_glide_ligand_efficiency>
-0.291327156962812

> <r_i_glide_ligand_efficiency_sa>
-0.884640831058565

> <r_i_glide_ligand_efficiency_ln>
-1.8829121237928

> <r_i_glide_gscore>
-8.15716039495874

> <r_i_glide_lipo>
-2.96441763779267

> <r_i_glide_hbond>
-0.16

> <r_i_glide_metal>
0

> <r_i_glide_rewards>
-2.13905294472608

> <r_i_glide_evdw>
-45.9987487792969

> <r_i_glide_ecoul>
-6.26311111450195

> <r_i_glide_erotb>
0.485860048625876

> <r_i_glide_esite>
-0.140145754925732

> <r_i_glide_emodel>
-75.4699996268413

> <r_i_glide_energy>
-52.2618598937988

> <r_i_glide_einternal>
4.22051620483398

> <i_i_glide_confnum>
80

> <i_i_glide_posenum>
30

> <r_i_glide_eff_state_penalty>
0

> <s_user_duplicate_titles>
CHEMBL4282_lig1001

> <s_m_subgroup_title>
dock_pv

> <s_m_subgroupid>
dock_pv

> <b_m_subgroup_collapsed>
1

$$$$
CHEMBL4282_lig1371
                    3D
 Schrodinger Suite 2021-1.
 42 44  0  0  1  0            999 V2000
    8.9408    2.2859   17.9430 C   0  0  0  0  0  0
    7.7782    1.5433   18.1859 C   0  0  0  0  0  0
    6.5594    1.9426   17.6488 C   0  0  0  0  0  0
    6.4771    3.0910   16.8574 C   0  0  0  0  0  0
    7.6339    3.8374   16.6106 C   0  0  0  0  0  0
    8.8546    3.4391   17.1524 C   0  0  0  0  0  0
    5.1567    3.5221   16.3031 C   0  0  0  0  0  0
   10.3105    1.8656   18.5050 C   0  0  2  0  0  0
   10.8860    0.5714   17.9012 C   0  0  0  0  0  0
   12.0289    0.6313   17.0955 C   0  0  0  0  0  0
   12.5577   -0.5276   16.5298 C   0  0  0  0  0  0
   11.9607   -1.7586   16.7888 C   0  0  0  0  0  0
   10.8276   -1.8334   17.5904 C   0  0  0  0  0  0
   10.2852   -0.6716   18.1286 C   0  0  0  0  0  0
   12.6314   -3.2048   16.1300 Cl  0  0  0  0  0  0
   10.4443    2.0047   19.9644 N   0  0  2  0  0  0
    9.7451    1.0951   20.8720 C   0  0  0  0  0  0
    4.7872    4.7857   15.8077 C   0  0  0  0  0  0
    3.5169    4.8756   15.4942 N   0  0  0  0  0  0
    3.0307    3.6573   15.7336 N   0  0  0  0  0  0
    3.9832    2.7867   16.1849 C   0  0  0  0  0  0
   10.5501   -0.1846   21.2090 C   0  0  0  0  0  0
   11.0926   -0.1613   22.5575 N   0  0  0  0  0  0
    7.7938    0.6487   18.7868 H   0  0  0  0  0  0
    5.6778    1.3597   17.8674 H   0  0  0  0  0  0
    7.5951    4.7282   16.0028 H   0  0  0  0  0  0
    9.7339    4.0349   16.9529 H   0  0  0  0  0  0
   10.9942    2.6479   18.1721 H   0  0  0  0  0  0
   12.5149    1.5760   16.9104 H   0  0  0  0  0  0
   13.4316   -0.4715   15.8999 H   0  0  0  0  0  0
   10.3675   -2.7865   17.8050 H   0  0  0  0  0  0
    9.4128   -0.7555   18.7541 H   0  0  0  0  0  0
   10.3202    2.9682   20.2606 H   0  0  0  0  0  0
    9.6684    1.6833   21.7882 H   0  0  0  0  0  0
    8.7040    0.8929   20.6331 H   0  0  0  0  0  0
    5.4332    5.6479   15.7416 H   0  0  0  0  0  0
    2.0575    3.4257   15.5643 H   0  0  0  0  0  0
    3.7333    1.7640   16.4267 H   0  0  0  0  0  0
    9.9063   -1.0595   21.1008 H   0  0  0  0  0  0
   11.3728   -0.3318   20.5081 H   0  0  0  0  0  0
   11.7134   -0.9509   22.6774 H   0  0  0  0  0  0
   11.6691    0.6665   22.6535 H   0  0  0  0  0  0
  1  2  2  0  0  0
  1  6  1  0  0  0
  1  8  1  0  0  0
  2  3  1  0  0  0
  2 24  1  0  0  0
  3  4  2  0  0  0
  3 25  1  0  0  0
  4  5  1  0  0  0
  4  7  1  0  0  0
  5  6  2  0  0  0
  5 26  1  0  0  0
  6 27  1  0  0  0
  7 21  2  0  0  0
  7 18  1  0  0  0
  8  9  1  0  0  0
  8 16  1  0  0  0
  8 28  1  0  0  0
  9 10  2  0  0  0
  9 14  1  0  0  0
 10 11  1  0  0  0
 10 29  1  0  0  0
 11 12  2  0  0  0
 11 30  1  0  0  0
 12 13  1  0  0  0
 12 15  1  0  0  0
 13 14  2  0  0  0
 13 31  1  0  0  0
 14 32  1  0  0  0
 16 17  1  0  0  0
 16 33  1  0  0  0
 17 22  1  0  0  0
 17 34  1  0  0  0
 17 35  1  0  0  0
 18 36  1  0  0  0
 18 19  2  0  0  0
 19 20  1  0  0  0
 20 37  1  0  0  0
 20 21  1  0  0  0
 21 38  1  0  0  0
 22 23  1  0  0  0
 22 39  1  0  0  0
 22 40  1  0  0  0
 23 41  1  0  0  0
 23 42  1  0  0  0
M  END
> <s_m_entry_id>
2283

> <s_m_entry_name>
dock_pv.22

> <s_m_Source_Path>
/home/csk/Desktop/cluster/DUD-E-result/akt1

> <s_m_Source_File>
dock_pv.maegz

> <i_m_Source_File_Index>
22

> <chembl_id>
CHEMBL3113150

> <chembl_pref_name>
None

> <i_lp_mmshare_version>
53161

> <i_f3d_flags>
0

> <r_lp_tautomer_probability>
0.5

> <s_lp_Force_Field>
OPLS_2005

> <r_lp_Energy>
17.848189

> <b_lp_Chiralities_Consistent>
1

> <s_lp_Variant>
CHEMBL4282_lig1371-1

> <s_i_glide_gridfile>
glide-grid_3cqw

> <i_i_glide_lignum>
1897

> <i_i_glide_rotatable_bonds>
6

> <r_i_docking_score>
-8.08726449161337

> <r_i_glide_ligand_efficiency>
-0.351620195287538

> <r_i_glide_ligand_efficiency_sa>
-0.999961061782064

> <r_i_glide_ligand_efficiency_ln>
-1.95557388533219

> <r_i_glide_gscore>
-8.08726449161337

> <r_i_glide_lipo>
-2.48981802459215

> <r_i_glide_hbond>
-0.831050491413199

> <r_i_glide_metal>
0

> <r_i_glide_rewards>
-2.15075254545454

> <r_i_glide_evdw>
-39.5400695800781

> <r_i_glide_ecoul>
-8.35569953918457

> <r_i_glide_erotb>
0.614714979728118

> <r_i_glide_esite>
0

> <r_i_glide_emodel>
-67.4175339337794

> <r_i_glide_energy>
-47.8957691192627

> <r_i_glide_einternal>
8.14394092559814

> <i_i_glide_confnum>
69

> <i_i_glide_posenum>
239

> <r_i_glide_eff_state_penalty>
0

> <s_user_duplicate_titles>
CHEMBL4282_lig1371

> <s_m_subgroup_title>
dock_pv

> <s_m_subgroupid>
dock_pv

> <b_m_subgroup_collapsed>
1

$$$$
CHEMBL4282_lig908
                    3D
 Schrodinger Suite 2021-1.
 41 43  0  0  1  0            999 V2000
    8.9503    3.4117   18.8357 C   0  0  1  0  0  0
    5.8517    4.8355   16.1850 N   0  0  0  0  0  0
    4.6656    5.3178   15.7577 C   0  0  0  0  0  0
    3.5159    4.6366   15.5794 N   0  0  0  0  0  0
    5.9237    3.5244   16.5502 C   0  0  0  0  0  0
    4.5159    1.2264   16.2419 C   0  0  0  0  0  0
    4.8423    2.6477   16.2427 C   0  0  0  0  0  0
    3.6633    3.3295   15.7852 C   0  0  0  0  0  0
    2.6862    2.4044   15.5574 N   0  0  0  0  0  0
    3.2199    1.1712   15.7855 C   0  0  0  0  0  0
    7.1232    3.1640   17.1941 N   0  0  0  0  0  0
    8.0702    4.1279   17.7880 C   0  0  0  0  0  0
    7.4942    1.8756   17.7636 C   0  0  0  0  0  0
    8.9179    1.9972   18.2834 C   0  0  0  0  0  0
    5.3161   -0.0113   16.5840 C   0  0  0  0  0  0
   10.3766    4.0261   18.9215 C   0  0  0  0  0  0
   11.3253    3.3145   19.7849 N   0  0  0  0  0  0
    8.3171    3.4362   20.1526 N   0  0  0  0  0  0
   12.1783    2.3501   19.4044 C   0  0  0  0  0  0
   12.2736    1.9282   18.2524 O   0  0  0  0  0  0
   13.0694    1.7669   20.4935 C   0  0  0  0  0  0
    4.6324    6.3708   15.5307 H   0  0  0  0  0  0
    1.7433    2.5726   15.2228 H   0  0  0  0  0  0
    2.6312    0.2967   15.5940 H   0  0  0  0  0  0
    7.5380    4.9372   18.2922 H   0  0  0  0  0  0
    8.6984    4.5267   16.9901 H   0  0  0  0  0  0
    7.4610    1.1272   16.9852 H   0  0  0  0  0  0
    6.7958    1.5918   18.5535 H   0  0  0  0  0  0
    9.6152    1.8585   17.4554 H   0  0  0  0  0  0
    9.1614    1.2330   19.0239 H   0  0  0  0  0  0
    4.7116   -0.9153   16.4934 H   0  0  0  0  0  0
    6.1632   -0.1481   15.9124 H   0  0  0  0  0  0
    5.6706   -0.0185   17.6125 H   0  0  0  0  0  0
   10.3030    5.0471   19.3008 H   0  0  0  0  0  0
   10.7897    4.1353   17.9195 H   0  0  0  0  0  0
   11.3163    3.6173   20.7522 H   0  0  0  0  0  0
    8.5915    2.6066   20.6576 H   0  0  0  0  0  0
    8.7271    4.1968   20.6977 H   0  0  0  0  0  0
   12.8890    2.2391   21.4602 H   0  0  0  0  0  0
   14.1183    1.9097   20.2338 H   0  0  0  0  0  0
   12.8817    0.6981   20.5942 H   0  0  0  0  0  0
  1 12  1  0  0  0
  1 14  1  0  0  0
  1 16  1  0  0  0
  1 18  1  0  0  0
  2  5  1  0  0  0
  2  3  2  0  0  0
  3  4  1  0  0  0
  3 22  1  0  0  0
  4  8  2  0  0  0
  5 11  1  0  0  0
  5  7  2  0  0  0
  6 15  1  0  0  0
  6  7  1  0  0  0
  6 10  2  0  0  0
  7  8  1  0  0  0
  8  9  1  0  0  0
  9 10  1  0  0  0
  9 23  1  0  0  0
 10 24  1  0  0  0
 11 12  1  0  0  0
 11 13  1  0  0  0
 12 25  1  0  0  0
 12 26  1  0  0  0
 13 14  1  0  0  0
 13 27  1  0  0  0
 13 28  1  0  0  0
 14 29  1  0  0  0
 14 30  1  0  0  0
 15 31  1  0  0  0
 15 32  1  0  0  0
 15 33  1  0  0  0
 16 17  1  0  0  0
 16 34  1  0  0  0
 16 35  1  0  0  0
 17 19  1  0  0  0
 17 36  1  0  0  0
 18 37  1  0  0  0
 18 38  1  0  0  0
 19 20  2  0  0  0
 19 21  1  0  0  0
 21 39  1  0  0  0
 21 40  1  0  0  0
 21 41  1  0  0  0
M  END
> <s_m_entry_id>
2284

> <s_m_entry_name>
dock_pv.23

> <s_m_Source_Path>
/home/csk/Desktop/cluster/DUD-E-result/akt1

> <s_m_Source_File>
dock_pv.maegz

> <i_m_Source_File_Index>
23

> <chembl_id>
CHEMBL1171841

> <chembl_pref_name>
None

> <i_lp_mmshare_version>
53161

> <i_f3d_flags>
0

> <r_lp_tautomer_probability>
0.999998369746258

> <s_lp_Force_Field>
OPLS_2005

> <r_lp_Energy>
30.928884

> <b_lp_Chiralities_Consistent>
1

> <s_lp_Variant>
CHEMBL4282_lig908-1

> <s_i_glide_gridfile>
glide-grid_3cqw

> <i_i_glide_lignum>
1296

> <i_i_glide_rotatable_bonds>
4

> <r_i_docking_score>
-8.08390818781638

> <r_i_glide_ligand_efficiency>
-0.384948008943637

> <r_i_glide_ligand_efficiency_sa>
-1.06204236744657

> <r_i_glide_ligand_efficiency_ln>
-1.99872996436302

> <r_i_glide_gscore>
-8.08390818781638

> <r_i_glide_lipo>
-1.46772205312763

> <r_i_glide_hbond>
-0.713989135429392

> <r_i_glide_metal>
0

> <r_i_glide_rewards>
-3.29616508070281

> <r_i_glide_evdw>
-28.6187896728516

> <r_i_glide_ecoul>
-10.1032409667969

> <r_i_glide_erotb>
0.459459079193183

> <r_i_glide_esite>
-0.119065369087632

> <r_i_glide_emodel>
-58.0119374886678

> <r_i_glide_energy>
-38.7220306396484

> <r_i_glide_einternal>
0.869478166103363

> <i_i_glide_confnum>
27

> <i_i_glide_posenum>
318

> <r_i_glide_eff_state_penalty>
0

> <s_user_duplicate_titles>
CHEMBL4282_lig908,649894

> <s_m_subgroup_title>
dock_pv

> <s_m_subgroupid>
dock_pv

> <b_m_subgroup_collapsed>
1

$$$$
CHEMBL4282_lig817
                    3D
 Schrodinger Suite 2021-1.
 46 49  0  0  1  0            999 V2000
    5.9058    4.6367   16.1850 C   0  0  0  0  0  0
    6.9916    3.9545   16.7405 C   0  0  0  0  0  0
    6.8874    2.6243   17.1685 C   0  0  0  0  0  0
    5.6789    1.9347   16.9857 C   0  0  0  0  0  0
    3.4686    4.5048   15.7027 N   0  0  0  0  0  0
    4.6695    3.9816   16.0983 C   0  0  0  0  0  0
    4.5672    2.6088   16.4675 C   0  0  0  0  0  0
    3.2164    2.2789   16.1843 C   0  0  0  0  0  0
    2.6355    3.4522   15.7847 N   0  0  0  0  0  0
    8.0525    1.8935   17.7816 C   0  0  0  0  0  0
    9.5416    2.6737   18.2696 S   0  0  0  0  0  0
   10.1884    1.0814   18.5525 C   0  0  0  0  0  0
    9.3415    0.1164   18.2962 N   0  0  0  0  0  0
    8.1071    0.5829   17.8753 N   0  0  0  0  0  0
   11.4621    0.9089   19.0345 N   0  0  0  0  0  0
   11.9852   -0.3579   19.5523 C   0  0  0  0  0  0
   11.7591   -0.5451   21.0718 C   0  0  2  0  0  0
   12.3703   -1.8499   21.6521 C   0  0  0  0  0  0
   11.5030   -3.1080   21.5596 C   0  0  0  0  0  0
   10.6438   -3.4333   22.6142 C   0  0  0  0  0  0
    9.8305   -4.5585   22.5331 C   0  0  0  0  0  0
    9.8558   -5.3627   21.3881 C   0  0  0  0  0  0
   10.7296   -5.0430   20.3417 C   0  0  0  0  0  0
   11.5514   -3.9202   20.4262 C   0  0  0  0  0  0
   10.3417   -0.4664   21.3848 N   0  0  0  0  0  0
    8.9220   -6.5662   21.2563 C   0  0  0  0  0  0
    8.3404   -6.5626   20.0569 F   0  0  0  0  0  0
    9.6240   -7.6908   21.3872 F   0  0  0  0  0  0
    7.9567   -6.5634   22.1789 F   0  0  0  0  0  0
    6.0040    5.6667   15.8811 H   0  0  0  0  0  0
    7.9277    4.4850   16.8403 H   0  0  0  0  0  0
    5.5861    0.9018   17.2888 H   0  0  0  0  0  0
    1.6581    3.5249   15.5039 H   0  0  0  0  0  0
    2.6313    1.3763   16.2704 H   0  0  0  0  0  0
   11.9774    1.7134   19.3650 H   0  0  0  0  0  0
   13.0501   -0.3986   19.3196 H   0  0  0  0  0  0
   11.5342   -1.1874   19.0064 H   0  0  0  0  0  0
   12.2464    0.2940   21.5717 H   0  0  0  0  0  0
   12.5906   -1.6844   22.7082 H   0  0  0  0  0  0
   13.3471   -2.0462   21.2087 H   0  0  0  0  0  0
   10.5809   -2.7996   23.4879 H   0  0  0  0  0  0
    9.1634   -4.7818   23.3542 H   0  0  0  0  0  0
   10.7594   -5.6578   19.4529 H   0  0  0  0  0  0
   12.2121   -3.6755   19.6071 H   0  0  0  0  0  0
    9.9452    0.3294   20.8990 H   0  0  0  0  0  0
    9.8655   -1.2699   20.9865 H   0  0  0  0  0  0
  1  6  1  0  0  0
  1 30  1  0  0  0
  1  2  2  0  0  0
  2 31  1  0  0  0
  2  3  1  0  0  0
  3 10  1  0  0  0
  3  4  2  0  0  0
  4 32  1  0  0  0
  4  7  1  0  0  0
  5  9  1  0  0  0
  5  6  2  0  0  0
  6  7  1  0  0  0
  7  8  2  0  0  0
  8  9  1  0  0  0
  8 34  1  0  0  0
  9 33  1  0  0  0
 10 14  2  0  0  0
 10 11  1  0  0  0
 11 12  1  0  0  0
 12 15  1  0  0  0
 12 13  2  0  0  0
 13 14  1  0  0  0
 15 16  1  0  0  0
 15 35  1  0  0  0
 16 17  1  0  0  0
 16 36  1  0  0  0
 16 37  1  0  0  0
 17 18  1  0  0  0
 17 25  1  0  0  0
 17 38  1  0  0  0
 18 19  1  0  0  0
 18 39  1  0  0  0
 18 40  1  0  0  0
 19 20  2  0  0  0
 19 24  1  0  0  0
 20 21  1  0  0  0
 20 41  1  0  0  0
 21 22  2  0  0  0
 21 42  1  0  0  0
 22 23  1  0  0  0
 22 26  1  0  0  0
 23 24  2  0  0  0
 23 43  1  0  0  0
 24 44  1  0  0  0
 25 45  1  0  0  0
 25 46  1  0  0  0
 26 27  1  0  0  0
 26 28  1  0  0  0
 26 29  1  0  0  0
M  END
> <s_m_entry_id>
2285

> <s_m_entry_name>
dock_pv.24

> <s_m_Source_Path>
/home/csk/Desktop/cluster/DUD-E-result/akt1

> <s_m_Source_File>
dock_pv.maegz

> <i_m_Source_File_Index>
24

> <chembl_id>
CHEMBL1081628

> <chembl_pref_name>
None

> <i_lp_mmshare_version>
53161

> <i_f3d_flags>
0

> <r_lp_tautomer_probability>
0.0196078431372549

> <s_lp_Force_Field>
OPLS_2005

> <r_lp_Energy>
31.210482

> <b_lp_Chiralities_Consistent>
1

> <s_lp_Variant>
CHEMBL4282_lig817-2

> <s_i_glide_gridfile>
glide-grid_3cqw

> <i_i_glide_lignum>
1199

> <i_i_glide_rotatable_bonds>
7

> <r_i_docking_score>
-8.07194734036969

> <r_i_glide_ligand_efficiency>
-0.278343011736886

> <r_i_glide_ligand_efficiency_sa>
-0.855157917311451

> <r_i_glide_ligand_efficiency_ln>
-1.84827125402098

> <r_i_glide_gscore>
-8.07194734036969

> <r_i_glide_lipo>
-1.82824989165761

> <r_i_glide_hbond>
-0.772560316280392

> <r_i_glide_metal>
0

> <r_i_glide_rewards>
-2.59484829333004

> <r_i_glide_evdw>
-39.2883834838867

> <r_i_glide_ecoul>
-8.28353214263916

> <r_i_glide_erotb>
0.474334007582326

> <r_i_glide_esite>
-0.143673851093755

> <r_i_glide_emodel>
-69.3244294587936

> <r_i_glide_energy>
-47.5719156265259

> <r_i_glide_einternal>
3.71764898300171

> <i_i_glide_confnum>
5

> <i_i_glide_posenum>
212

> <r_i_glide_eff_state_penalty>
0

> <s_user_duplicate_titles>
CHEMBL4282_lig817,CHEMBL4282_lig817,613023

> <s_m_subgroup_title>
dock_pv

> <s_m_subgroupid>
dock_pv

> <b_m_subgroup_collapsed>
1

$$$$
CHEMBL4282_lig1290
                    3D
 Schrodinger Suite 2021-1.
 52 55  0  0  1  0            999 V2000
   12.3905   -1.4316   16.0449 C   0  0  0  0  0  0
   12.0337   -2.4830   16.8828 C   0  0  0  0  0  0
   11.9035   -2.2775   18.2545 C   0  0  0  0  0  0
   12.1421   -1.0121   18.7873 C   0  0  0  0  0  0
   12.5124    0.0513   17.9513 C   0  0  0  0  0  0
   12.6307   -0.1696   16.5761 C   0  0  0  0  0  0
   12.7609    1.4434   18.5135 C   0  0  1  0  0  0
   11.5551    1.9252   19.2038 N   0  0  0  0  0  0
   10.3737    2.2145   18.6252 C   0  0  0  0  0  0
   10.2540    2.2233   17.3965 O   0  0  0  0  0  0
    9.1454    2.4949   19.5621 C   0  0  0  0  0  0
    9.5045    2.6370   20.9718 N   0  0  0  0  0  0
    8.3280    3.7061   19.0745 C   0  0  0  0  0  0
    7.5486    3.5116   17.7468 C   0  0  0  0  0  0
    6.7778    2.2537   17.6079 N   0  0  0  0  0  0
    7.5026    1.0733   18.1247 C   0  0  0  0  0  0
    8.1563    1.3287   19.4896 C   0  0  0  0  0  0
    5.6198    2.1243   16.8284 C   0  0  0  0  0  0
    5.0758    0.8747   16.7274 N   0  0  0  0  0  0
    3.8429    0.7515   16.1850 C   0  0  0  0  0  0
    3.0403    1.7395   15.7249 N   0  0  0  0  0  0
    4.9268    3.2289   16.2652 C   0  0  0  0  0  0
    3.6173    2.9393   15.7857 C   0  0  0  0  0  0
    3.0309    4.1267   15.4320 N   0  0  0  0  0  0
    3.9277    5.1528   15.6014 C   0  0  0  0  0  0
    5.1296    4.6367   16.0250 C   0  0  0  0  0  0
   14.0234    1.5475   19.4075 C   0  0  0  0  0  0
   11.7580   -4.0480   16.2092 Cl  0  0  0  0  0  0
   14.1497    2.6208   20.1903 N   0  0  0  0  0  0
   14.8795    0.6691   19.3894 O   0  0  0  0  0  0
   12.4855   -1.5949   14.9841 H   0  0  0  0  0  0
   11.6145   -3.0911   18.9038 H   0  0  0  0  0  0
   12.0354   -0.8561   19.8509 H   0  0  0  0  0  0
   12.9025    0.6375   15.9130 H   0  0  0  0  0  0
   12.9594    2.1347   17.6932 H   0  0  0  0  0  0
   11.6215    2.0140   20.2056 H   0  0  0  0  0  0
   10.1869    1.9828   21.3129 H   0  0  0  0  0  0
    9.7936    3.5949   21.2455 H   0  0  0  0  0  0
    7.7003    4.1103   19.8716 H   0  0  0  0  0  0
    9.0154    4.5431   18.9373 H   0  0  0  0  0  0
    6.8325    4.3221   17.7902 H   0  0  0  0  0  0
    8.1726    3.6771   16.8689 H   0  0  0  0  0  0
    6.8142    0.2438   18.2899 H   0  0  0  0  0  0
    8.2226    0.7228   17.3862 H   0  0  0  0  0  0
    8.6771    0.4137   19.7759 H   0  0  0  0  0  0
    7.4260    1.3942   20.2992 H   0  0  0  0  0  0
    3.4277   -0.2459   16.1736 H   0  0  0  0  0  0
    2.0825    4.2335   15.0907 H   0  0  0  0  0  0
    3.6547    6.1749   15.3849 H   0  0  0  0  0  0
    6.0118    5.2363   16.1854 H   0  0  0  0  0  0
   14.9656    2.7034   20.7781 H   0  0  0  0  0  0
   13.4617    3.3578   20.1839 H   0  0  0  0  0  0
  1  2  2  0  0  0
  1  6  1  0  0  0
  1 31  1  0  0  0
  2  3  1  0  0  0
  2 28  1  0  0  0
  3  4  2  0  0  0
  3 32  1  0  0  0
  4  5  1  0  0  0
  4 33  1  0  0  0
  5  6  2  0  0  0
  5  7  1  0  0  0
  6 34  1  0  0  0
  7  8  1  0  0  0
  7 27  1  0  0  0
  7 35  1  0  0  0
  8  9  1  0  0  0
  8 36  1  0  0  0
  9 10  2  0  0  0
  9 11  1  0  0  0
 11 12  1  0  0  0
 11 13  1  0  0  0
 11 17  1  0  0  0
 12 37  1  0  0  0
 12 38  1  0  0  0
 13 14  1  0  0  0
 13 39  1  0  0  0
 13 40  1  0  0  0
 14 15  1  0  0  0
 14 41  1  0  0  0
 14 42  1  0  0  0
 15 16  1  0  0  0
 15 18  1  0  0  0
 16 17  1  0  0  0
 16 43  1  0  0  0
 16 44  1  0  0  0
 17 45  1  0  0  0
 17 46  1  0  0  0
 18 19  2  0  0  0
 18 22  1  0  0  0
 19 20  1  0  0  0
 20 21  2  0  0  0
 20 47  1  0  0  0
 21 23  1  0  0  0
 22 23  2  0  0  0
 22 26  1  0  0  0
 23 24  1  0  0  0
 24 25  1  0  0  0
 24 48  1  0  0  0
 25 26  2  0  0  0
 25 49  1  0  0  0
 26 50  1  0  0  0
 27 29  1  0  0  0
 27 30  2  0  0  0
 29 51  1  0  0  0
 29 52  1  0  0  0
M  END
> <s_m_entry_id>
2286

> <s_m_entry_name>
dock_pv.25

> <s_m_Source_Path>
/home/csk/Desktop/cluster/DUD-E-result/akt1

> <s_m_Source_File>
dock_pv.maegz

> <i_m_Source_File_Index>
25

> <chembl_id>
CHEMBL2325730

> <chembl_pref_name>
None

> <i_lp_mmshare_version>
53161

> <i_f3d_flags>
0

> <r_lp_tautomer_probability>
0.999998369746258

> <s_lp_Force_Field>
OPLS_2005

> <r_lp_Energy>
17.460927

> <b_lp_Chiralities_Consistent>
1

> <s_lp_Variant>
CHEMBL4282_lig1290-2

> <s_i_glide_gridfile>
glide-grid_3cqw

> <i_i_glide_lignum>
1783

> <i_i_glide_rotatable_bonds>
6

> <r_i_docking_score>
-8.03743007049893

> <r_i_glide_ligand_efficiency>
-0.267914335683298

> <r_i_glide_ligand_efficiency_sa>
-0.832472131702376

> <r_i_glide_ligand_efficiency_ln>
-1.82619168683217

> <r_i_glide_gscore>
-8.03743007049893

> <r_i_glide_lipo>
-2.41828845227587

> <r_i_glide_hbond>
-0.456

> <r_i_glide_metal>
0

> <r_i_glide_rewards>
-2.20515143776768

> <r_i_glide_evdw>
-46.619083404541

> <r_i_glide_ecoul>
-6.68653106689453

> <r_i_glide_erotb>
0.433866251544951

> <r_i_glide_esite>
-0.0579226017390992

> <r_i_glide_emodel>
-75.7678200535808

> <r_i_glide_energy>
-53.3056144714355

> <r_i_glide_einternal>
6.12271499633789

> <i_i_glide_confnum>
6

> <i_i_glide_posenum>
266

> <r_i_glide_eff_state_penalty>
0

> <s_user_duplicate_titles>
CHEMBL4282_lig1290

> <s_m_subgroup_title>
dock_pv

> <s_m_subgroupid>
dock_pv

> <b_m_subgroup_collapsed>
1

$$$$
CHEMBL4282_lig953
                    3D
 Schrodinger Suite 2021-1.
 57 60  0  0  1  0            999 V2000
   11.1654   -1.5398   19.1332 C   0  0  0  0  0  0
   12.0497   -0.4604   19.1582 C   0  0  0  0  0  0
   12.7804   -0.1271   18.0137 C   0  0  0  0  0  0
   12.6082   -0.8595   16.8387 C   0  0  0  0  0  0
   11.7182   -1.9317   16.8209 C   0  0  0  0  0  0
   11.0104   -2.2819   17.9664 C   0  0  0  0  0  0
   12.1889    0.3652   20.4375 C   0  0  0  0  0  0
   11.0813    1.4429   20.6044 C   0  0  1  0  0  0
   11.3063    2.2412   21.8264 N   0  0  0  0  0  0
   11.0127    2.4313   19.3940 C   0  0  0  0  0  0
    9.8295    2.6804   18.7631 N   0  0  0  0  0  0
   12.0838    2.9282   19.0241 O   0  0  0  0  0  0
    8.5680    2.0267   19.1471 C   0  0  0  0  0  0
    7.3677    2.8589   18.6422 C   0  0  0  0  0  0
    7.4436    3.3304   17.2479 N   0  0  0  0  0  0
    8.6911    4.0479   17.0321 C   0  0  0  0  0  0
    9.9355    3.2756   17.4239 C   0  0  0  0  0  0
    6.2934    3.7379   16.5884 C   0  0  0  0  0  0
    3.9525    4.7824   15.5202 N   0  0  0  0  0  0
    5.0565    5.5007   15.7529 C   0  0  0  0  0  0
    6.2457    5.0365   16.1872 N   0  0  0  0  0  0
    4.0609    3.4562   15.7870 C   0  0  0  0  0  0
    5.2077    2.8547   16.3886 C   0  0  0  0  0  0
    5.2036    1.4599   16.6768 C   0  0  0  0  0  0
    4.0807    0.7096   16.3304 C   0  0  0  0  0  0
    3.0312    1.3052   15.6532 C   0  0  0  0  0  0
    3.0120    2.6521   15.3882 C   0  0  0  0  0  0
   11.4720   -2.8281   15.3701 Cl  0  0  0  0  0  0
    3.8799   -0.6386   16.5886 N   0  0  0  0  0  0
    4.6285   -1.5459   17.2209 C   0  0  0  0  0  0
    5.7119   -1.3586   17.7839 O   0  0  0  0  0  0
    3.9948   -2.9187   17.2237 C   0  0  0  0  0  0
   10.5885   -1.8016   20.0097 H   0  0  0  0  0  0
   13.4616    0.7116   18.0271 H   0  0  0  0  0  0
   13.1502   -0.5872   15.9475 H   0  0  0  0  0  0
   10.3192   -3.1094   17.9538 H   0  0  0  0  0  0
   13.1816    0.8154   20.4749 H   0  0  0  0  0  0
   12.1713   -0.3237   21.2840 H   0  0  0  0  0  0
   10.1453    0.8978   20.7143 H   0  0  0  0  0  0
   10.7531    3.1070   21.8494 H   0  0  0  0  0  0
   11.0910    1.7362   22.6756 H   0  0  0  0  0  0
    8.4301    1.9780   20.2288 H   0  0  0  0  0  0
    8.4895    1.0466   18.6746 H   0  0  0  0  0  0
    7.3575    3.7716   19.2402 H   0  0  0  0  0  0
    6.4337    2.3403   18.8616 H   0  0  0  0  0  0
    8.7796    4.3788   15.9975 H   0  0  0  0  0  0
    8.6307    4.9350   17.6634 H   0  0  0  0  0  0
   10.0991    2.4873   16.6794 H   0  0  0  0  0  0
   10.6303    4.1002   17.3962 H   0  0  0  0  0  0
    4.9831    6.5594   15.5437 H   0  0  0  0  0  0
    6.0641    0.9999   17.1424 H   0  0  0  0  0  0
    2.2307    0.7003   15.2702 H   0  0  0  0  0  0
    2.2287    3.1029   14.8232 H   0  0  0  0  0  0
    3.0159   -0.9942   16.2030 H   0  0  0  0  0  0
    2.9007   -2.8797   17.1327 H   0  0  0  0  0  0
    4.2285   -3.3624   18.1858 H   0  0  0  0  0  0
    4.3951   -3.5397   16.4153 H   0  0  0  0  0  0
  1  6  1  0  0  0
  1  2  2  0  0  0
  1 33  1  0  0  0
  2  3  1  0  0  0
  2  7  1  0  0  0
  3  4  2  0  0  0
  3 34  1  0  0  0
  4  5  1  0  0  0
  4 35  1  0  0  0
  5  6  2  0  0  0
  5 28  1  0  0  0
  6 36  1  0  0  0
  7  8  1  0  0  0
  7 37  1  0  0  0
  7 38  1  0  0  0
  8  9  1  0  0  0
  8 10  1  0  0  0
  8 39  1  0  0  0
  9 40  1  0  0  0
  9 41  1  0  0  0
 10 11  1  0  0  0
 10 12  2  0  0  0
 11 13  1  0  0  0
 11 17  1  0  0  0
 13 14  1  0  0  0
 13 42  1  0  0  0
 13 43  1  0  0  0
 14 15  1  0  0  0
 14 44  1  0  0  0
 14 45  1  0  0  0
 15 16  1  0  0  0
 15 18  1  0  0  0
 16 17  1  0  0  0
 16 46  1  0  0  0
 16 47  1  0  0  0
 17 48  1  0  0  0
 17 49  1  0  0  0
 18 23  2  0  0  0
 18 21  1  0  0  0
 19 22  2  0  0  0
 19 20  1  0  0  0
 20 21  2  0  0  0
 20 50  1  0  0  0
 22 23  1  0  0  0
 22 27  1  0  0  0
 23 24  1  0  0  0
 24 25  2  0  0  0
 24 51  1  0  0  0
 25 26  1  0  0  0
 25 29  1  0  0  0
 26 27  2  0  0  0
 26 52  1  0  0  0
 27 53  1  0  0  0
 29 30  1  0  0  0
 29 54  1  0  0  0
 30 31  2  0  0  0
 30 32  1  0  0  0
 32 55  1  0  0  0
 32 56  1  0  0  0
 32 57  1  0  0  0
M  END
> <s_m_entry_id>
2287

> <s_m_entry_name>
dock_pv.26

> <s_m_Source_Path>
/home/csk/Desktop/cluster/DUD-E-result/akt1

> <s_m_Source_File>
dock_pv.maegz

> <i_m_Source_File_Index>
26

> <chembl_id>
CHEMBL1257873

> <chembl_pref_name>
None

> <i_lp_mmshare_version>
53161

> <i_f3d_flags>
0

> <r_lp_tautomer_probability>
1

> <s_lp_Force_Field>
OPLS_2005

> <r_lp_Energy>
46.792877

> <b_lp_Chiralities_Consistent>
1

> <s_lp_Variant>
CHEMBL4282_lig953-1

> <s_i_glide_gridfile>
glide-grid_3cqw

> <i_i_glide_lignum>
1349

> <i_i_glide_rotatable_bonds>
7

> <r_i_docking_score>
-8.02824881350888

> <r_i_glide_ligand_efficiency>
-0.250882775422152

> <r_i_glide_ligand_efficiency_sa>
-0.796503162331496

> <r_i_glide_ligand_efficiency_ln>
-1.79774375114204

> <r_i_glide_gscore>
-8.02824881350888

> <r_i_glide_lipo>
-3.28190156412381

> <r_i_glide_hbond>
-0.209630967831671

> <r_i_glide_metal>
0

> <r_i_glide_rewards>
-2.11240022624668

> <r_i_glide_evdw>
-38.2722206115723

> <r_i_glide_ecoul>
-6.09802627563477

> <r_i_glide_erotb>
0.489129502372613

> <r_i_glide_esite>
-0.0851305857555094

> <r_i_glide_emodel>
-56.8633730117616

> <r_i_glide_energy>
-44.370246887207

> <r_i_glide_einternal>
3.6045126914978

> <i_i_glide_confnum>
65

> <i_i_glide_posenum>
187

> <r_i_glide_eff_state_penalty>
0

> <s_user_duplicate_titles>
CHEMBL4282_lig953

> <s_m_subgroup_title>
dock_pv

> <s_m_subgroupid>
dock_pv

> <b_m_subgroup_collapsed>
1

$$$$
CHEMBL4282_lig1224
                    3D
 Schrodinger Suite 2021-1.
 48 50  0  0  1  0            999 V2000
   11.0272   -4.2125   18.8926 P   0  0  1  0  0  0
   10.8626   -2.6899   18.3612 O   0  0  0  0  0  0
   10.5641   -7.4908   18.7860 O   0  0  0  0  0  0
    9.8310   -4.5630   19.9263 O   0  0  0  0  0  0
   11.0063   -5.2558   17.6499 O   0  0  0  0  0  0
   10.1565   -6.6293   17.4771 P   0  0  0  0  0  0
   10.3457   -7.3360   16.1850 O   0  0  0  0  0  0
    8.6325   -6.1643   17.7852 O   0  0  0  0  0  0
   12.3810   -4.3231   19.6565 N   0  0  0  0  0  0
   11.0759   -0.3798   17.2858 O   0  0  0  0  0  0
   10.7706    0.2973   18.5002 C   0  0  0  0  0  0
   10.4172    1.7639   18.1899 C   0  0  2  0  0  0
   10.0026    2.6178   19.3877 C   0  0  1  0  0  0
   11.0880    3.4371   19.7850 O   0  0  0  0  0  0
    8.7276    3.3828   18.9677 C   0  0  1  0  0  0
    8.8058    4.8011   18.9852 O   0  0  0  0  0  0
    8.4915    2.9158   17.5251 C   0  0  1  0  0  0
    9.2639    1.7680   17.3850 O   0  0  0  0  0  0
    7.0597    2.5479   17.1900 N   0  0  0  0  0  0
    6.4487    1.3663   17.4185 C   0  0  0  0  0  0
    5.2166    1.3170   16.9826 N   0  0  0  0  0  0
    4.9841    2.5591   16.5249 C   0  0  0  0  0  0
    3.8196    3.1632   15.9965 C   0  0  0  0  0  0
    2.6310    2.4757   15.7893 N   0  0  0  0  0  0
    3.8614    4.4775   15.6564 N   0  0  0  0  0  0
    5.0348    5.1086   15.7779 C   0  0  0  0  0  0
    6.2191    4.6367   16.1960 N   0  0  0  0  0  0
    6.1173    3.3489   16.6077 C   0  0  0  0  0  0
   11.7550   -1.8631   17.2894 P   0  0  2  0  0  0
   11.8975   -2.4986   15.9515 O   0  0  0  0  0  0
   13.1492   -1.6231   18.0810 O   0  0  0  0  0  0
   12.9090   -3.4652   19.6738 H   0  0  0  0  0  0
    9.9392   -0.2052   18.9989 H   0  0  0  0  0  0
   11.6286    0.2707   19.1725 H   0  0  0  0  0  0
   11.2256    2.2363   17.6311 H   0  0  0  0  0  0
    9.7340    1.9700   20.2250 H   0  0  0  0  0  0
   10.7942    4.0112   20.5133 H   0  0  0  0  0  0
    7.8898    3.0540   19.5862 H   0  0  0  0  0  0
    8.9970    5.0771   19.8923 H   0  0  0  0  0  0
    8.8289    3.6527   16.7919 H   0  0  0  0  0  0
    6.9824    0.5564   17.8984 H   0  0  0  0  0  0
    2.5452    1.5338   16.1413 H   0  0  0  0  0  0
    1.8362    2.9737   15.4056 H   0  0  0  0  0  0
    5.0298    6.1464   15.4789 H   0  0  0  0  0  0
   13.0642   -1.1416   18.9246 H   0  0  0  0  0  0
    7.9251   -6.5635   17.2240 H   0  0  0  0  0  0
    9.1493   -3.8516   20.0032 H   0  0  0  0  0  0
   11.0518   -8.3172   18.6016 H   0  0  0  0  0  0
  1  2  1  0  0  0
  1  4  1  0  0  0
  1  5  1  0  0  0
  1  9  2  0  0  0
  2 29  1  0  0  0
  3  6  1  0  0  0
  3 48  1  0  0  0
  4 47  1  0  0  0
  5  6  1  0  0  0
  6  7  2  0  0  0
  6  8  1  0  0  0
  8 46  1  0  0  0
  9 32  1  0  0  0
 10 11  1  0  0  0
 10 29  1  0  0  0
 11 12  1  0  0  0
 11 33  1  0  0  0
 11 34  1  0  0  0
 12 13  1  0  0  0
 12 18  1  0  0  0
 12 35  1  0  0  0
 13 14  1  0  0  0
 13 15  1  0  0  0
 13 36  1  0  0  0
 14 37  1  0  0  0
 15 16  1  0  0  0
 15 17  1  0  0  0
 15 38  1  0  0  0
 16 39  1  0  0  0
 17 18  1  0  0  0
 17 19  1  0  0  0
 17 40  1  0  0  0
 19 20  1  0  0  0
 19 28  1  0  0  0
 20 21  2  0  0  0
 20 41  1  0  0  0
 21 22  1  0  0  0
 22 23  1  0  0  0
 22 28  2  0  0  0
 23 24  1  0  0  0
 23 25  2  0  0  0
 24 42  1  0  0  0
 24 43  1  0  0  0
 25 26  1  0  0  0
 26 27  2  0  0  0
 26 44  1  0  0  0
 27 28  1  0  0  0
 29 30  2  0  0  0
 29 31  1  0  0  0
 31 45  1  0  0  0
M  END
> <s_m_entry_id>
2288

> <s_m_entry_name>
dock_pv.27

> <s_m_Source_Path>
/home/csk/Desktop/cluster/DUD-E-result/akt1

> <s_m_Source_File>
dock_pv.maegz

> <i_m_Source_File_Index>
27

> <chembl_id>
CHEMBL2177838

> <chembl_pref_name>
ADENYLYL IMIDODIPHOSPHATE TETRALITHIUM SALT

> <i_lp_mmshare_version>
53161

> <i_f3d_flags>
0

> <r_lp_tautomer_probability>
0.999997216410988

> <s_lp_Force_Field>
OPLS_2005

> <r_lp_Energy>
31.442358

> <b_lp_Chiralities_Consistent>
1

> <s_lp_Variant>
CHEMBL4282_lig1224-4

> <s_i_glide_gridfile>
glide-grid_3cqw

> <i_i_glide_lignum>
1705

> <i_i_glide_rotatable_bonds>
14

> <r_i_docking_score>
-8.00425302323394

> <r_i_glide_ligand_efficiency>
-0.258201710426901

> <r_i_glide_ligand_efficiency_sa>
-0.811109856620986

> <r_i_glide_ligand_efficiency_ln>
-1.80520435763489

> <r_i_glide_gscore>
-8.00425302323394

> <r_i_glide_lipo>
-0.577020836874519

> <r_i_glide_hbond>
-0.32

> <r_i_glide_metal>
0

> <r_i_glide_rewards>
-1.72005899478651

> <r_i_glide_evdw>
-46.5183753967285

> <r_i_glide_ecoul>
-23.5408363342285

> <r_i_glide_erotb>
0.503007486752653

> <r_i_glide_esite>
-0.0331364583548631

> <r_i_glide_emodel>
-105.330908187751

> <r_i_glide_energy>
-70.059211730957

> <r_i_glide_einternal>
6.66145277023315

> <i_i_glide_confnum>
9

> <i_i_glide_posenum>
74

> <r_i_glide_eff_state_penalty>
0

> <s_user_duplicate_titles>
CHEMBL4282_lig1224

> <s_m_subgroup_title>
dock_pv

> <s_m_subgroupid>
dock_pv

> <b_m_subgroup_collapsed>
1

$$$$
CHEMBL4282_lig926
                    3D
 Schrodinger Suite 2021-1.
 31 33  0  0  1  0            999 V2000
    6.2917    3.4534   16.5848 C   0  0  0  0  0  0
    6.1631    4.7486   16.1849 N   0  0  0  0  0  0
    4.9416    5.1754   15.7849 C   0  0  0  0  0  0
    3.8010    4.4561   15.6964 N   0  0  0  0  0  0
    3.9865    3.1655   15.9797 C   0  0  0  0  0  0
    5.2004    2.5565   16.4316 C   0  0  0  0  0  0
    3.0402    2.1827   15.8532 N   0  0  0  0  0  0
    3.6146    0.9832   16.1851 C   0  0  0  0  0  0
    4.9348    1.1370   16.5610 C   0  0  0  0  0  0
    5.8531    0.0174   16.9851 C   0  0  0  0  0  0
    7.5629    3.0364   17.0243 N   0  0  0  0  0  0
    8.7824    3.8564   16.9866 C   0  0  0  0  0  0
    9.2563    4.1440   18.4092 C   0  0  2  0  0  0
    8.8422    2.8625   19.1120 C   0  0  0  0  0  0
    7.7013    2.2704   18.2693 C   0  0  0  0  0  0
    8.6342    5.3225   18.9844 N   0  0  0  0  0  0
    4.8528    6.2259   15.5518 H   0  0  0  0  0  0
    2.0776    2.2895   15.5625 H   0  0  0  0  0  0
    3.0312    0.0775   16.1605 H   0  0  0  0  0  0
    6.7752    0.0040   16.4089 H   0  0  0  0  0  0
    5.3864   -0.9589   16.8543 H   0  0  0  0  0  0
    6.1199    0.0813   18.0394 H   0  0  0  0  0  0
    9.5430    3.2680   16.4725 H   0  0  0  0  0  0
    8.6613    4.7538   16.3796 H   0  0  0  0  0  0
   10.3434    4.2389   18.3950 H   0  0  0  0  0  0
    8.5370    3.0394   20.1460 H   0  0  0  0  0  0
    9.6926    2.1796   19.1512 H   0  0  0  0  0  0
    6.8016    2.3030   18.8878 H   0  0  0  0  0  0
    8.0189    1.2515   18.0469 H   0  0  0  0  0  0
    8.9083    5.3638   19.9649 H   0  0  0  0  0  0
    9.0194    6.1476   18.5503 H   0  0  0  0  0  0
  1  2  1  0  0  0
  1  6  2  0  0  0
  1 11  1  0  0  0
  2  3  2  0  0  0
  3  4  1  0  0  0
  3 17  1  0  0  0
  4  5  2  0  0  0
  5  7  1  0  0  0
  5  6  1  0  0  0
  6  9  1  0  0  0
  7  8  1  0  0  0
  7 18  1  0  0  0
  8  9  2  0  0  0
  8 19  1  0  0  0
  9 10  1  0  0  0
 10 20  1  0  0  0
 10 21  1  0  0  0
 10 22  1  0  0  0
 11 12  1  0  0  0
 11 15  1  0  0  0
 12 13  1  0  0  0
 12 23  1  0  0  0
 12 24  1  0  0  0
 13 14  1  0  0  0
 13 16  1  0  0  0
 13 25  1  0  0  0
 14 15  1  0  0  0
 14 26  1  0  0  0
 14 27  1  0  0  0
 15 28  1  0  0  0
 15 29  1  0  0  0
 16 30  1  0  0  0
 16 31  1  0  0  0
M  END
> <s_m_entry_id>
2289

> <s_m_entry_name>
dock_pv.28

> <s_m_Source_Path>
/home/csk/Desktop/cluster/DUD-E-result/akt1

> <s_m_Source_File>
dock_pv.maegz

> <i_m_Source_File_Index>
28

> <chembl_id>
CHEMBL2021603

> <chembl_pref_name>
None

> <i_lp_mmshare_version>
53161

> <i_f3d_flags>
0

> <r_lp_tautomer_probability>
0.999998369746258

> <s_lp_Force_Field>
OPLS_2005

> <r_lp_Energy>
27.731414

> <b_lp_Chiralities_Consistent>
1

> <s_lp_Variant>
CHEMBL4282_lig926-1

> <s_i_glide_gridfile>
glide-grid_3cqw

> <i_i_glide_lignum>
1322

> <i_i_glide_rotatable_bonds>
1

> <r_i_docking_score>
-7.98879447291984

> <r_i_glide_ligand_efficiency>
-0.49929965455749

> <r_i_glide_ligand_efficiency_sa>
-1.25815628880166

> <r_i_glide_ligand_efficiency_ln>
-2.11758955483939

> <r_i_glide_gscore>
-7.98879447291984

> <r_i_glide_lipo>
-1.32465509321761

> <r_i_glide_hbond>
-0.128494616893487

> <r_i_glide_metal>
0

> <r_i_glide_rewards>
-4.53656869150869

> <r_i_glide_evdw>
-33.7386093139648

> <r_i_glide_ecoul>
-4.45040702819824

> <r_i_glide_erotb>
0.355415448627927

> <r_i_glide_esite>
0

> <r_i_glide_emodel>
-54.8302025385405

> <r_i_glide_energy>
-38.1890163421631

> <r_i_glide_einternal>
0.789742171764374

> <i_i_glide_confnum>
4

> <i_i_glide_posenum>
261

> <r_i_glide_eff_state_penalty>
0

> <s_user_duplicate_titles>
CHEMBL4282_lig926,651114

> <s_m_subgroup_title>
dock_pv

> <s_m_subgroupid>
dock_pv

> <b_m_subgroup_collapsed>
1

$$$$
CHEMBL4282_lig3720
                    3D
 Schrodinger Suite 2021-1.
 36 39  0  0  1  0            999 V2000
    6.9886    2.9263   17.0539 C   0  0  0  0  0  0
    6.8737    4.2373   16.5852 C   0  0  0  0  0  0
    5.6796    4.7354   16.0783 C   0  0  0  0  0  0
    5.8941    2.0525   16.9449 C   0  0  0  0  0  0
    4.6798    2.5325   16.4344 C   0  0  0  0  0  0
    4.5615    3.8989   16.0419 C   0  0  0  0  0  0
    2.6332    3.0687   15.7843 N   0  0  0  0  0  0
    3.3899    1.9976   16.1849 C   0  0  0  0  0  0
    8.2772    2.4897   17.6877 C   0  0  0  0  0  0
    8.3606    1.2904   18.2422 N   0  0  0  0  0  0
    9.4635    3.2297   17.7749 C   0  0  0  0  0  0
   10.6926    2.3116   18.5849 S   0  0  0  0  0  0
    9.5390    1.0278   18.7380 C   0  0  0  0  0  0
   11.1450   -0.8095   19.4103 C   0  0  0  0  0  0
   11.4174   -1.5935   18.1332 C   0  0  0  0  0  0
   11.0664   -2.9469   18.0626 C   0  0  0  0  0  0
   11.2925   -3.6663   16.8910 C   0  0  0  0  0  0
   11.8563   -3.0248   15.7886 C   0  0  0  0  0  0
   12.1996   -1.6726   15.8508 C   0  0  0  0  0  0
   11.9778   -0.9549   17.0229 C   0  0  0  0  0  0
    3.2900    4.2339   15.6814 N   0  0  0  0  0  0
    9.8418   -0.1630   19.3414 N   0  0  0  0  0  0
    7.7084    4.9163   16.6550 H   0  0  0  0  0  0
    5.6032    5.7716   15.7843 H   0  0  0  0  0  0
    5.9699    1.0291   17.2815 H   0  0  0  0  0  0
    2.9490    1.0208   16.2920 H   0  0  0  0  0  0
    9.6781    4.2294   17.4293 H   0  0  0  0  0  0
   11.1641   -1.4792   20.2700 H   0  0  0  0  0  0
   11.9385   -0.0761   19.5668 H   0  0  0  0  0  0
   10.6164   -3.4358   18.9175 H   0  0  0  0  0  0
   11.0323   -4.7136   16.8386 H   0  0  0  0  0  0
   12.0299   -3.5788   14.8764 H   0  0  0  0  0  0
   12.6292   -1.1795   14.9936 H   0  0  0  0  0  0
   12.2353    0.0951   17.0674 H   0  0  0  0  0  0
    1.6475    3.0124   15.5426 H   0  0  0  0  0  0
    9.0923   -0.8433   19.4456 H   0  0  0  0  0  0
  1  2  1  0  0  0
  1  9  1  0  0  0
  1  4  2  0  0  0
  2  3  2  0  0  0
  2 23  1  0  0  0
  3  6  1  0  0  0
  3 24  1  0  0  0
  4 25  1  0  0  0
  4  5  1  0  0  0
  5  6  1  0  0  0
  5  8  2  0  0  0
  6 21  2  0  0  0
  7 35  1  0  0  0
  7 21  1  0  0  0
  7  8  1  0  0  0
  8 26  1  0  0  0
  9 10  1  0  0  0
  9 11  2  0  0  0
 10 13  2  0  0  0
 11 12  1  0  0  0
 11 27  1  0  0  0
 12 13  1  0  0  0
 13 22  1  0  0  0
 14 15  1  0  0  0
 14 22  1  0  0  0
 14 28  1  0  0  0
 14 29  1  0  0  0
 15 16  2  0  0  0
 15 20  1  0  0  0
 16 17  1  0  0  0
 16 30  1  0  0  0
 17 18  2  0  0  0
 17 31  1  0  0  0
 18 19  1  0  0  0
 18 32  1  0  0  0
 19 20  2  0  0  0
 19 33  1  0  0  0
 20 34  1  0  0  0
 22 36  1  0  0  0
M  END
> <s_m_entry_id>
2290

> <s_m_entry_name>
dock_pv.29

> <s_m_Source_Path>
/home/csk/Desktop/cluster/DUD-E-result/akt1

> <s_m_Source_File>
dock_pv.maegz

> <i_m_Source_File_Index>
29

> <chembl_id>
CHEMBL1682546

> <chembl_pref_name>
None

> <i_lp_mmshare_version>
53161

> <i_f3d_flags>
0

> <r_lp_tautomer_probability>
0.0196078431372549

> <s_lp_Force_Field>
OPLS_2005

> <r_lp_Energy>
21.464582

> <b_lp_Chiralities_Consistent>
1

> <s_lp_Variant>
CHEMBL4282_lig3720-2

> <s_i_glide_gridfile>
glide-grid_3cqw

> <i_i_glide_lignum>
4989

> <i_i_glide_rotatable_bonds>
4

> <r_i_docking_score>
-7.95534004683549

> <r_i_glide_ligand_efficiency>
-0.36160636576525

> <r_i_glide_ligand_efficiency_sa>
-1.0132352580456

> <r_i_glide_ligand_efficiency_ln>
-1.94457528552533

> <r_i_glide_gscore>
-7.95534004683549

> <r_i_glide_lipo>
-2.71963089621445

> <r_i_glide_hbond>
-0.582257688537269

> <r_i_glide_metal>
0

> <r_i_glide_rewards>
-2.35676307575758

> <r_i_glide_evdw>
-38.5844497680664

> <r_i_glide_ecoul>
-5.60309410095215

> <r_i_glide_erotb>
0.550955862929236

> <r_i_glide_esite>
-0.077957645709296

> <r_i_glide_emodel>
-62.3369118063764

> <r_i_glide_energy>
-44.1875438690186

> <r_i_glide_einternal>
4.6896824836731

> <i_i_glide_confnum>
20

> <i_i_glide_posenum>
364

> <r_i_glide_eff_state_penalty>
0

> <s_user_duplicate_titles>
CHEMBL4282_lig3720

> <s_m_subgroup_title>
dock_pv

> <s_m_subgroupid>
dock_pv

> <b_m_subgroup_collapsed>
1

$$$$
CHEMBL4282_lig814
                    3D
 Schrodinger Suite 2021-1.
 46 49  0  0  1  0            999 V2000
    5.6202    4.8463   15.7919 C   0  0  0  0  0  0
    6.8282    4.4359   16.3551 C   0  0  0  0  0  0
    6.9720    3.1943   16.9846 C   0  0  0  0  0  0
    5.9076    2.2791   16.9560 C   0  0  0  0  0  0
    3.2503    4.2348   15.4618 N   0  0  0  0  0  0
    4.5311    3.9760   15.8505 C   0  0  0  0  0  0
    4.6878    2.6641   16.3854 C   0  0  0  0  0  0
    3.4218    2.0629   16.1850 C   0  0  0  0  0  0
    2.6310    3.0680   15.6928 N   0  0  0  0  0  0
    8.2497    2.8789   17.7076 C   0  0  0  0  0  0
    8.4268    1.4371   18.6660 S   0  0  0  0  0  0
    9.9976    2.0196   19.1325 C   0  0  0  0  0  0
   10.3155    3.1648   18.5851 N   0  0  0  0  0  0
    9.3086    3.6593   17.7611 N   0  0  0  0  0  0
   10.7961    1.3172   19.9974 N   0  0  0  0  0  0
   10.5882   -0.0806   20.3581 C   0  0  0  0  0  0
   11.6533   -0.6728   21.3040 C   0  0  2  0  0  0
   11.6278   -2.2221   21.3236 C   0  0  0  0  0  0
   12.3236   -2.8332   20.1093 C   0  0  0  0  0  0
   13.6474   -3.2726   20.2074 C   0  0  0  0  0  0
   14.3114   -3.7611   19.0832 C   0  0  0  0  0  0
   13.6716   -3.7631   17.8441 C   0  0  0  0  0  0
   12.3313   -3.3745   17.7354 C   0  0  0  0  0  0
   11.6597   -2.9319   18.8812 C   0  0  0  0  0  0
   11.4311   -0.1632   22.6484 N   0  0  0  0  0  0
   11.5912   -3.4375   16.4009 C   0  0  0  0  0  0
   12.3955   -3.7630   15.3866 F   0  0  0  0  0  0
   10.6309   -4.3578   16.4811 F   0  0  0  0  0  0
   11.0350   -2.2567   16.1250 F   0  0  0  0  0  0
    5.5020    5.8369   15.3853 H   0  0  0  0  0  0
    7.6616    5.1202   16.3421 H   0  0  0  0  0  0
    5.9949    1.3017   17.4049 H   0  0  0  0  0  0
    1.6455    2.9640   15.4712 H   0  0  0  0  0  0
    3.0102    1.0885   16.3993 H   0  0  0  0  0  0
   11.6842    1.7004   20.2860 H   0  0  0  0  0  0
   10.5893   -0.6245   19.4179 H   0  0  0  0  0  0
    9.5920   -0.2133   20.7869 H   0  0  0  0  0  0
   12.6449   -0.3445   20.9850 H   0  0  0  0  0  0
   10.6017   -2.5917   21.3867 H   0  0  0  0  0  0
   12.1186   -2.6048   22.2203 H   0  0  0  0  0  0
   14.1661   -3.2270   21.1539 H   0  0  0  0  0  0
   15.3313   -4.1044   19.1683 H   0  0  0  0  0  0
   14.2109   -4.1188   16.9801 H   0  0  0  0  0  0
   10.6197   -2.6455   18.8102 H   0  0  0  0  0  0
   12.2104   -0.4078   23.2418 H   0  0  0  0  0  0
   11.3918    0.8487   22.6273 H   0  0  0  0  0  0
  1  6  1  0  0  0
  1 30  1  0  0  0
  1  2  2  0  0  0
  2 31  1  0  0  0
  2  3  1  0  0  0
  3 10  1  0  0  0
  3  4  2  0  0  0
  4 32  1  0  0  0
  4  7  1  0  0  0
  5  9  1  0  0  0
  5  6  2  0  0  0
  6  7  1  0  0  0
  7  8  2  0  0  0
  8  9  1  0  0  0
  8 34  1  0  0  0
  9 33  1  0  0  0
 10 14  2  0  0  0
 10 11  1  0  0  0
 11 12  1  0  0  0
 12 15  1  0  0  0
 12 13  2  0  0  0
 13 14  1  0  0  0
 15 16  1  0  0  0
 15 35  1  0  0  0
 16 17  1  0  0  0
 16 36  1  0  0  0
 16 37  1  0  0  0
 17 18  1  0  0  0
 17 25  1  0  0  0
 17 38  1  0  0  0
 18 19  1  0  0  0
 18 39  1  0  0  0
 18 40  1  0  0  0
 19 20  2  0  0  0
 19 24  1  0  0  0
 20 21  1  0  0  0
 20 41  1  0  0  0
 21 22  2  0  0  0
 21 42  1  0  0  0
 22 23  1  0  0  0
 22 43  1  0  0  0
 23 24  2  0  0  0
 23 26  1  0  0  0
 24 44  1  0  0  0
 25 45  1  0  0  0
 25 46  1  0  0  0
 26 27  1  0  0  0
 26 28  1  0  0  0
 26 29  1  0  0  0
M  END
> <s_m_entry_id>
2291

> <s_m_entry_name>
dock_pv.30

> <s_m_Source_Path>
/home/csk/Desktop/cluster/DUD-E-result/akt1

> <s_m_Source_File>
dock_pv.maegz

> <i_m_Source_File_Index>
30

> <chembl_id>
CHEMBL1076565

> <chembl_pref_name>
None

> <i_lp_mmshare_version>
53161

> <i_f3d_flags>
0

> <r_lp_tautomer_probability>
0.0196078431372549

> <s_lp_Force_Field>
OPLS_2005

> <r_lp_Energy>
29.617066

> <b_lp_Chiralities_Consistent>
1

> <s_lp_Variant>
CHEMBL4282_lig814-2

> <s_i_glide_gridfile>
glide-grid_3cqw

> <i_i_glide_lignum>
1193

> <i_i_glide_rotatable_bonds>
7

> <r_i_docking_score>
-7.89414759363331

> <r_i_glide_ligand_efficiency>
-0.272211985987355

> <r_i_glide_ligand_efficiency_sa>
-0.836321463763598

> <r_i_glide_ligand_efficiency_ln>
-1.80755962063091

> <r_i_glide_gscore>
-7.89414759363331

> <r_i_glide_lipo>
-2.16999176262368

> <r_i_glide_hbond>
-0.615337580595435

> <r_i_glide_metal>
0

> <r_i_glide_rewards>
-2.63457322613042

> <r_i_glide_evdw>
-41.8242950439453

> <r_i_glide_ecoul>
-5.25372362136841

> <r_i_glide_erotb>
0.474334007582326

> <r_i_glide_esite>
-0.0693057364635671

> <r_i_glide_emodel>
-66.2010571506662

> <r_i_glide_energy>
-47.0780186653137

> <r_i_glide_einternal>
4.51925945281982

> <i_i_glide_confnum>
1

> <i_i_glide_posenum>
292

> <r_i_glide_eff_state_penalty>
0

> <s_user_duplicate_titles>
CHEMBL4282_lig814,612946

> <s_m_subgroup_title>
dock_pv

> <s_m_subgroupid>
dock_pv

> <b_m_subgroup_collapsed>
1

$$$$
CHEMBL4282_lig1372
                    3D
 Schrodinger Suite 2021-1.
 41 43  0  0  1  0            999 V2000
    8.9283    1.9005   17.7853 C   0  0  0  0  0  0
    7.7864    1.1152   17.9975 C   0  0  0  0  0  0
    6.5505    1.5375   17.5216 C   0  0  0  0  0  0
    6.4400    2.7496   16.8367 C   0  0  0  0  0  0
    7.5836    3.5229   16.6050 C   0  0  0  0  0  0
    8.8259    3.0957   17.0673 C   0  0  0  0  0  0
    5.1034    3.2185   16.3708 C   0  0  0  0  0  0
   10.2512    1.5375   18.4605 C   0  0  2  0  0  0
   10.8899    0.2908   17.8371 C   0  0  0  0  0  0
   11.8311    0.4341   16.8113 C   0  0  0  0  0  0
   12.3743   -0.6922   16.1962 C   0  0  0  0  0  0
   11.9935   -1.9636   16.6220 C   0  0  0  0  0  0
   11.0932   -2.1175   17.6722 C   0  0  0  0  0  0
   10.5480   -0.9920   18.2791 C   0  0  0  0  0  0
   12.6293   -3.3634   15.8418 Cl  0  0  0  0  0  0
   10.0755    1.3909   19.9109 N   0  0  2  0  0  0
    9.7487    2.6369   20.6144 C   0  0  0  0  0  0
    3.9552    2.4757   16.1280 C   0  0  0  0  0  0
    2.9876    3.3792   15.7851 N   0  0  0  0  0  0
    3.4309    4.6370   15.7756 N   0  0  0  0  0  0
    4.6964    4.5354   16.0997 C   0  0  0  0  0  0
    8.2682    3.1066   20.5899 C   0  0  0  0  0  0
    7.4339    2.2983   21.3849 O   0  0  0  0  0  0
    7.8458    0.2094   18.5847 H   0  0  0  0  0  0
    5.6765    0.9393   17.7304 H   0  0  0  0  0  0
    7.5143    4.4605   16.0738 H   0  0  0  0  0  0
    9.6931    3.7217   16.9142 H   0  0  0  0  0  0
   10.9621    2.3560   18.3273 H   0  0  0  0  0  0
   12.1147    1.4175   16.4675 H   0  0  0  0  0  0
   13.0782   -0.5800   15.3859 H   0  0  0  0  0  0
   10.8053   -3.1018   18.0126 H   0  0  0  0  0  0
    9.8309   -1.1165   19.0784 H   0  0  0  0  0  0
   10.8895    0.9584   20.3215 H   0  0  0  0  0  0
   10.0719    2.5747   21.6546 H   0  0  0  0  0  0
   10.3650    3.4305   20.1863 H   0  0  0  0  0  0
    3.7389    1.4192   16.1926 H   0  0  0  0  0  0
    2.0271    3.1495   15.5559 H   0  0  0  0  0  0
    5.3179    5.4142   16.1826 H   0  0  0  0  0  0
    8.2128    4.1151   20.9851 H   0  0  0  0  0  0
    7.8353    3.2037   19.6028 H   0  0  0  0  0  0
    7.5279    2.6371   22.2919 H   0  0  0  0  0  0
  1  2  2  0  0  0
  1  6  1  0  0  0
  1  8  1  0  0  0
  2  3  1  0  0  0
  2 24  1  0  0  0
  3  4  2  0  0  0
  3 25  1  0  0  0
  4  5  1  0  0  0
  4  7  1  0  0  0
  5  6  2  0  0  0
  5 26  1  0  0  0
  6 27  1  0  0  0
  7 18  2  0  0  0
  7 21  1  0  0  0
  8  9  1  0  0  0
  8 16  1  0  0  0
  8 28  1  0  0  0
  9 10  2  0  0  0
  9 14  1  0  0  0
 10 11  1  0  0  0
 10 29  1  0  0  0
 11 12  2  0  0  0
 11 30  1  0  0  0
 12 13  1  0  0  0
 12 15  1  0  0  0
 13 14  2  0  0  0
 13 31  1  0  0  0
 14 32  1  0  0  0
 16 17  1  0  0  0
 16 33  1  0  0  0
 17 22  1  0  0  0
 17 34  1  0  0  0
 17 35  1  0  0  0
 18 19  1  0  0  0
 18 36  1  0  0  0
 19 20  1  0  0  0
 19 37  1  0  0  0
 20 21  2  0  0  0
 21 38  1  0  0  0
 22 23  1  0  0  0
 22 39  1  0  0  0
 22 40  1  0  0  0
 23 41  1  0  0  0
M  END
> <s_m_entry_id>
2292

> <s_m_entry_name>
dock_pv.31

> <s_m_Source_Path>
/home/csk/Desktop/cluster/DUD-E-result/akt1

> <s_m_Source_File>
dock_pv.maegz

> <i_m_Source_File_Index>
31

> <chembl_id>
CHEMBL3113149

> <chembl_pref_name>
None

> <i_lp_mmshare_version>
53161

> <i_f3d_flags>
0

> <r_lp_tautomer_probability>
0.5

> <s_lp_Force_Field>
OPLS_2005

> <r_lp_Energy>
23.10538

> <b_lp_Chiralities_Consistent>
1

> <s_lp_Variant>
CHEMBL4282_lig1372-1

> <s_i_glide_gridfile>
glide-grid_3cqw

> <i_i_glide_lignum>
1899

> <i_i_glide_rotatable_bonds>
7

> <r_i_docking_score>
-7.88112933431014

> <r_i_glide_ligand_efficiency>
-0.342657797143919

> <r_i_glide_ligand_efficiency_sa>
-0.974473193667783

> <r_i_glide_ligand_efficiency_ln>
-1.905728535166

> <r_i_glide_gscore>
-7.88112933431014

> <r_i_glide_lipo>
-2.30954660434757

> <r_i_glide_hbond>
-0.974319538178712

> <r_i_glide_metal>
0

> <r_i_glide_rewards>
-2.13570493939394

> <r_i_glide_evdw>
-36.9403762817383

> <r_i_glide_ecoul>
-8.98859024047852

> <r_i_glide_erotb>
0.733749097768772

> <r_i_glide_esite>
0

> <r_i_glide_emodel>
-67.6344040048223

> <r_i_glide_energy>
-45.9289665222168

> <r_i_glide_einternal>
4.77425670623779

> <i_i_glide_confnum>
124

> <i_i_glide_posenum>
23

> <r_i_glide_eff_state_penalty>
0

> <s_user_duplicate_titles>
CHEMBL4282_lig1372

> <s_m_subgroup_title>
dock_pv

> <s_m_subgroupid>
dock_pv

> <b_m_subgroup_collapsed>
1

$$$$
CHEMBL4282_lig960
                    3D
 Schrodinger Suite 2021-1.
 49 52  0  0  1  0            999 V2000
   11.0324   -1.4757   18.7403 C   0  0  0  0  0  0
   11.8896   -0.3747   18.7865 C   0  0  0  0  0  0
   12.6179   -0.0065   17.6513 C   0  0  0  0  0  0
   12.4817   -0.7378   16.4720 C   0  0  0  0  0  0
   11.6281   -1.8403   16.4369 C   0  0  0  0  0  0
   10.9087   -2.2132   17.5690 C   0  0  0  0  0  0
   12.0165    0.4137   20.0878 C   0  0  0  0  0  0
   10.7972    1.3380   20.3497 C   0  0  1  0  0  0
   10.7971    1.8444   21.7356 N   0  0  0  0  0  0
   10.7245    2.5684   19.3939 C   0  0  0  0  0  0
    9.5165    3.0892   19.0397 N   0  0  0  0  0  0
   11.7946    3.0324   18.9837 O   0  0  0  0  0  0
    8.2158    2.5603   19.4735 C   0  0  0  0  0  0
    7.5131    1.9551   18.2361 C   0  0  0  0  0  0
    7.4310    2.8695   17.0803 N   0  0  0  0  0  0
    8.7210    3.5228   16.7896 C   0  0  0  0  0  0
    9.4245    4.1413   18.0189 C   0  0  0  0  0  0
    6.2063    3.3112   16.5851 C   0  0  0  0  0  0
    3.6434    4.2622   15.6924 N   0  0  0  0  0  0
    4.7320    5.0637   15.7849 C   0  0  0  0  0  0
    5.9979    4.6371   16.1847 C   0  0  0  0  0  0
   11.4483   -2.7548   14.9857 Cl  0  0  0  0  0  0
    4.8922    1.0094   16.5638 C   0  0  0  0  0  0
    3.5879    0.7644   16.1853 C   0  0  0  0  0  0
    2.9836    1.9455   15.8269 N   0  0  0  0  0  0
    3.8818    2.9773   15.9614 C   0  0  0  0  0  0
    5.1159    2.4233   16.4171 C   0  0  0  0  0  0
   10.4588   -1.7619   19.6117 H   0  0  0  0  0  0
   13.2763    0.8502   17.6808 H   0  0  0  0  0  0
   13.0340   -0.4511   15.5897 H   0  0  0  0  0  0
   10.2469   -3.0655   17.5448 H   0  0  0  0  0  0
   12.1140   -0.3129   20.8962 H   0  0  0  0  0  0
   12.9574    0.9665   20.1085 H   0  0  0  0  0  0
    9.9192    0.7069   20.2184 H   0  0  0  0  0  0
   11.7273    2.1180   22.0208 H   0  0  0  0  0  0
   10.2323    2.6902   21.8178 H   0  0  0  0  0  0
    8.2600    1.8634   20.3085 H   0  0  0  0  0  0
    7.6177    3.3931   19.8464 H   0  0  0  0  0  0
    6.5187    1.6424   18.5550 H   0  0  0  0  0  0
    8.0403    1.0604   17.9020 H   0  0  0  0  0  0
    8.6231    4.2748   16.0079 H   0  0  0  0  0  0
    9.3612    2.7444   16.3722 H   0  0  0  0  0  0
    8.8352    4.9733   18.4068 H   0  0  0  0  0  0
   10.3950    4.5613   17.7487 H   0  0  0  0  0  0
    4.5714    6.1023   15.5334 H   0  0  0  0  0  0
    6.7928    5.3619   16.2353 H   0  0  0  0  0  0
    5.5995    0.2613   16.8914 H   0  0  0  0  0  0
    3.0309   -0.1617   16.1518 H   0  0  0  0  0  0
    2.0210    2.0123   15.5249 H   0  0  0  0  0  0
  1  2  2  0  0  0
  1  6  1  0  0  0
  1 28  1  0  0  0
  2  7  1  0  0  0
  2  3  1  0  0  0
  3  4  2  0  0  0
  3 29  1  0  0  0
  4  5  1  0  0  0
  4 30  1  0  0  0
  5 22  1  0  0  0
  5  6  2  0  0  0
  6 31  1  0  0  0
  7  8  1  0  0  0
  7 32  1  0  0  0
  7 33  1  0  0  0
  8  9  1  0  0  0
  8 10  1  0  0  0
  8 34  1  0  0  0
  9 35  1  0  0  0
  9 36  1  0  0  0
 10 11  1  0  0  0
 10 12  2  0  0  0
 11 17  1  0  0  0
 11 13  1  0  0  0
 13 14  1  0  0  0
 13 37  1  0  0  0
 13 38  1  0  0  0
 14 15  1  0  0  0
 14 39  1  0  0  0
 14 40  1  0  0  0
 15 16  1  0  0  0
 15 18  1  0  0  0
 16 17  1  0  0  0
 16 41  1  0  0  0
 16 42  1  0  0  0
 17 43  1  0  0  0
 17 44  1  0  0  0
 18 27  1  0  0  0
 18 21  2  0  0  0
 19 26  1  0  0  0
 19 20  2  0  0  0
 20 21  1  0  0  0
 20 45  1  0  0  0
 21 46  1  0  0  0
 23 24  2  0  0  0
 23 27  1  0  0  0
 23 47  1  0  0  0
 24 25  1  0  0  0
 24 48  1  0  0  0
 25 26  1  0  0  0
 25 49  1  0  0  0
 26 27  2  0  0  0
M  END
> <s_m_entry_id>
2293

> <s_m_entry_name>
dock_pv.32

> <s_m_Source_Path>
/home/csk/Desktop/cluster/DUD-E-result/akt1

> <s_m_Source_File>
dock_pv.maegz

> <i_m_Source_File_Index>
32

> <chembl_id>
CHEMBL1258331

> <chembl_pref_name>
None

> <i_lp_mmshare_version>
53161

> <i_f3d_flags>
0

> <r_lp_tautomer_probability>
0.999998432528457

> <s_lp_Force_Field>
OPLS_2005

> <r_lp_Energy>
42.562061

> <b_lp_Chiralities_Consistent>
1

> <s_lp_Variant>
CHEMBL4282_lig960-1

> <s_i_glide_gridfile>
glide-grid_3cqw

> <i_i_glide_lignum>
1356

> <i_i_glide_rotatable_bonds>
5

> <r_i_docking_score>
-7.83432712416812

> <r_i_glide_ligand_efficiency>
-0.290160263858079

> <r_i_glide_ligand_efficiency_sa>
-0.870480790617915

> <r_i_glide_ligand_efficiency_ln>
-1.82370219552937

> <r_i_glide_gscore>
-7.83432712416812

> <r_i_glide_lipo>
-2.91189155324065

> <r_i_glide_hbond>
-0.0206361486380553

> <r_i_glide_metal>
0

> <r_i_glide_rewards>
-2.11557075791852

> <r_i_glide_evdw>
-47.4043235778809

> <r_i_glide_ecoul>
-5.54632663726807

> <r_i_glide_erotb>
0.527599679078905

> <r_i_glide_esite>
-0.111663168965544

> <r_i_glide_emodel>
-73.3701642418754

> <r_i_glide_energy>
-52.9506502151489

> <r_i_glide_einternal>
4.47415828704834

> <i_i_glide_confnum>
7

> <i_i_glide_posenum>
4

> <r_i_glide_eff_state_penalty>
0

> <s_user_duplicate_titles>
CHEMBL4282_lig960

> <s_m_subgroup_title>
dock_pv

> <s_m_subgroupid>
dock_pv

> <b_m_subgroup_collapsed>
1

$$$$
CHEMBL4282_lig682
                    3D
 Schrodinger Suite 2021-1.
 52 56  0  0  1  0            999 V2000
   10.7806   -3.0459   18.1133 C   0  0  0  0  0  0
   12.2313   -3.7797   15.7861 C   0  0  0  0  0  0
   11.4571   -4.7050   16.4871 C   0  0  0  0  0  0
   10.7595   -4.3546   17.6366 C   0  0  0  0  0  0
   12.2636   -2.4750   16.2808 C   0  0  0  0  0  0
   11.5269   -2.0698   17.4337 C   0  0  0  0  0  0
   11.7291   -0.6506   17.5982 C   0  0  0  0  0  0
   12.6300   -0.2877   16.6155 C   0  0  0  0  0  0
   12.9351   -1.3659   15.8321 N   0  0  0  0  0  0
   11.0435    0.2866   18.5701 C   0  0  0  0  0  0
    7.6876    2.5453   17.7748 C   0  0  0  0  0  0
    8.5583    3.4562   17.1621 C   0  0  0  0  0  0
    9.6676    3.9539   17.7594 N   0  0  0  0  0  0
    9.9907    3.4763   18.9850 C   0  0  0  0  0  0
    9.2510    2.4816   19.6398 C   0  0  0  0  0  0
    8.0588    2.0708   19.0425 C   0  0  0  0  0  0
    9.6695    1.8373   20.7872 O   0  0  0  0  0  0
   11.0605    1.4919   20.8940 C   0  0  0  0  0  0
   11.5001    0.2518   20.0506 C   0  0  1  0  0  0
   11.0300   -0.9651   20.6924 N   0  0  0  0  0  0
    6.4348    2.0554   17.1242 C   0  0  0  0  0  0
    4.9862    0.1480   16.6552 C   0  0  0  0  0  0
    6.1731    0.6790   17.1442 C   0  0  0  0  0  0
    3.9835    0.9826   16.1849 C   0  0  0  0  0  0
    4.2014    2.3734   16.1181 C   0  0  0  0  0  0
    5.4570    2.9247   16.5274 C   0  0  0  0  0  0
    5.6424    4.3265   16.3217 C   0  0  0  0  0  0
    4.6116    5.0941   15.7853 C   0  0  0  0  0  0
    3.3952    4.5963   15.4897 N   0  0  0  0  0  0
    3.2098    3.2684   15.6616 C   0  0  0  0  0  0
   10.2311   -2.7875   19.0039 H   0  0  0  0  0  0
   12.7786   -4.0735   14.9044 H   0  0  0  0  0  0
   11.4132   -5.7286   16.1423 H   0  0  0  0  0  0
   10.1941   -5.1083   18.1672 H   0  0  0  0  0  0
   13.0480    0.6802   16.3817 H   0  0  0  0  0  0
   13.5640   -1.3179   15.0377 H   0  0  0  0  0  0
   11.2101    1.2939   18.1930 H   0  0  0  0  0  0
    9.9663    0.1284   18.5083 H   0  0  0  0  0  0
    8.3774    3.8132   16.1598 H   0  0  0  0  0  0
   10.8850    3.8903   19.4231 H   0  0  0  0  0  0
    7.4541    1.3331   19.5509 H   0  0  0  0  0  0
   11.2494    1.2988   21.9513 H   0  0  0  0  0  0
   11.7037    2.3403   20.6642 H   0  0  0  0  0  0
   12.5910    0.2192   20.0674 H   0  0  0  0  0  0
   11.2123   -0.9321   21.6838 H   0  0  0  0  0  0
   10.0233   -1.0370   20.5841 H   0  0  0  0  0  0
    4.8187   -0.9180   16.7000 H   0  0  0  0  0  0
    6.9002    0.0016   17.5711 H   0  0  0  0  0  0
    3.0383    0.5723   15.8571 H   0  0  0  0  0  0
    6.5468    4.8271   16.6189 H   0  0  0  0  0  0
    4.7365    6.1587   15.6497 H   0  0  0  0  0  0
    2.2367    2.8875   15.3874 H   0  0  0  0  0  0
  1  4  2  0  0  0
  1  6  1  0  0  0
  1 31  1  0  0  0
  2  5  1  0  0  0
  2  3  2  0  0  0
  2 32  1  0  0  0
  3  4  1  0  0  0
  3 33  1  0  0  0
  4 34  1  0  0  0
  5  9  1  0  0  0
  5  6  2  0  0  0
  6  7  1  0  0  0
  7  8  2  0  0  0
  7 10  1  0  0  0
  8  9  1  0  0  0
  8 35  1  0  0  0
  9 36  1  0  0  0
 10 19  1  0  0  0
 10 37  1  0  0  0
 10 38  1  0  0  0
 11 16  1  0  0  0
 11 21  1  0  0  0
 11 12  2  0  0  0
 12 13  1  0  0  0
 12 39  1  0  0  0
 13 14  2  0  0  0
 14 15  1  0  0  0
 14 40  1  0  0  0
 15 16  2  0  0  0
 15 17  1  0  0  0
 16 41  1  0  0  0
 17 18  1  0  0  0
 18 19  1  0  0  0
 18 42  1  0  0  0
 18 43  1  0  0  0
 19 20  1  0  0  0
 19 44  1  0  0  0
 20 45  1  0  0  0
 20 46  1  0  0  0
 21 26  2  0  0  0
 21 23  1  0  0  0
 22 24  1  0  0  0
 22 23  2  0  0  0
 22 47  1  0  0  0
 23 48  1  0  0  0
 24 25  2  0  0  0
 24 49  1  0  0  0
 25 26  1  0  0  0
 25 30  1  0  0  0
 26 27  1  0  0  0
 27 28  2  0  0  0
 27 50  1  0  0  0
 28 29  1  0  0  0
 28 51  1  0  0  0
 29 30  2  0  0  0
 30 52  1  0  0  0
M  END
> <s_m_entry_id>
2294

> <s_m_entry_name>
dock_pv.33

> <s_m_Source_Path>
/home/csk/Desktop/cluster/DUD-E-result/akt1

> <s_m_Source_File>
dock_pv.maegz

> <i_m_Source_File_Index>
33

> <chembl_id>
CHEMBL581848

> <chembl_pref_name>
None

> <i_lp_mmshare_version>
53161

> <i_f3d_flags>
0

> <r_lp_tautomer_probability>
1

> <s_lp_Force_Field>
OPLS_2005

> <r_lp_Energy>
26.539684

> <b_lp_Chiralities_Consistent>
1

> <s_lp_Variant>
CHEMBL4282_lig682-1

> <s_i_glide_gridfile>
glide-grid_3cqw

> <i_i_glide_lignum>
964

> <i_i_glide_rotatable_bonds>
6

> <r_i_docking_score>
-7.82142753947272

> <r_i_glide_ligand_efficiency>
-0.260714251315757

> <r_i_glide_ligand_efficiency_sa>
-0.810099795535308

> <r_i_glide_ligand_efficiency_ln>
-1.77711355824693

> <r_i_glide_gscore>
-7.82142753947272

> <r_i_glide_lipo>
-3.62113088114906

> <r_i_glide_hbond>
-0.602701993682201

> <r_i_glide_metal>
0

> <r_i_glide_rewards>
-1.39319788797863

> <r_i_glide_evdw>
-48.4132270812988

> <r_i_glide_ecoul>
-2.74515080451965

> <r_i_glide_erotb>
0.628037198080061

> <r_i_glide_esite>
0

> <r_i_glide_emodel>
-70.6538326621084

> <r_i_glide_energy>
-51.1583778858185

> <r_i_glide_einternal>
6.30600357055664

> <i_i_glide_confnum>
24

> <i_i_glide_posenum>
337

> <r_i_glide_eff_state_penalty>
0

> <s_user_duplicate_titles>
CHEMBL4282_lig682,568629

> <s_m_subgroup_title>
dock_pv

> <s_m_subgroupid>
dock_pv

> <b_m_subgroup_collapsed>
1

$$$$
CHEMBL4282_lig3215
                    3D
 Schrodinger Suite 2021-1.
 32 33  0  0  1  0            999 V2000
    4.3460   -0.6645   16.9808 I   0  0  0  0  0  0
    9.6848    4.5814   18.9849 O   0  0  0  0  0  0
   10.0073    2.5386   20.7473 O   0  0  0  0  0  0
    7.1312    2.6939   17.1445 N   0  0  0  0  0  0
    6.0009    4.6371   16.1859 N   0  0  0  0  0  0
    3.6474    4.2876   15.6803 N   0  0  0  0  0  0
    2.6308    2.2001   15.7863 N   0  0  0  0  0  0
    7.0308    2.8898   21.3850 N   0  0  0  0  0  0
    4.9622    2.4332   16.4943 C   0  0  0  0  0  0
    6.0459    3.3566   16.5855 C   0  0  0  0  0  0
    5.4633    1.1658   16.9556 C   0  0  0  0  0  0
    3.7609    2.9755   15.9934 C   0  0  0  0  0  0
    6.7561    1.3860   17.3849 C   0  0  0  0  0  0
    8.4507    3.2702   17.4242 C   0  0  0  0  0  0
    8.6420    3.6210   18.9242 C   0  0  1  0  0  0
    4.7678    5.0374   15.7845 C   0  0  0  0  0  0
    8.9346    2.3706   19.8319 C   0  0  2  0  0  0
    7.7170    1.8550   20.6318 C   0  0  0  0  0  0
    9.8313    4.8053   19.9193 H   0  0  0  0  0  0
    9.8316    3.3153   21.3031 H   0  0  0  0  0  0
    2.6545    1.2242   16.0399 H   0  0  0  0  0  0
    1.7872    2.6417   15.4351 H   0  0  0  0  0  0
    6.0707    2.5996   21.5311 H   0  0  0  0  0  0
    7.4307    3.0377   22.3212 H   0  0  0  0  0  0
    7.4608    0.6905   17.8187 H   0  0  0  0  0  0
    8.5609    4.1644   16.8074 H   0  0  0  0  0  0
    9.2178    2.5758   17.0789 H   0  0  0  0  0  0
    7.7506    4.1508   19.2634 H   0  0  0  0  0  0
    4.6609    6.0789   15.5190 H   0  0  0  0  0  0
    9.2574    1.5467   19.1943 H   0  0  0  0  0  0
    8.0070    1.0374   21.2914 H   0  0  0  0  0  0
    6.9830    1.4380   19.9463 H   0  0  0  0  0  0
  1 11  1  0  0  0
  2 15  1  0  0  0
  2 19  1  0  0  0
  3 17  1  0  0  0
  3 20  1  0  0  0
  4 10  1  0  0  0
  4 13  1  0  0  0
  4 14  1  0  0  0
  5 10  2  0  0  0
  5 16  1  0  0  0
  6 12  1  0  0  0
  6 16  2  0  0  0
  7 12  1  0  0  0
  7 21  1  0  0  0
  7 22  1  0  0  0
  8 18  1  0  0  0
  8 23  1  0  0  0
  8 24  1  0  0  0
  9 10  1  0  0  0
  9 11  1  0  0  0
  9 12  2  0  0  0
 11 13  2  0  0  0
 13 25  1  0  0  0
 14 15  1  0  0  0
 14 26  1  0  0  0
 14 27  1  0  0  0
 15 17  1  0  0  0
 15 28  1  0  0  0
 16 29  1  0  0  0
 17 18  1  0  0  0
 17 30  1  0  0  0
 18 31  1  0  0  0
 18 32  1  0  0  0
M  END
> <s_m_entry_id>
2295

> <s_m_entry_name>
dock_pv.34

> <s_m_Source_Path>
/home/csk/Desktop/cluster/DUD-E-result/akt1

> <s_m_Source_File>
dock_pv.maegz

> <i_m_Source_File_Index>
34

> <chembl_id>
CHEMBL1975534

> <chembl_pref_name>
None

> <i_lp_mmshare_version>
53161

> <i_f3d_flags>
0

> <r_lp_tautomer_probability>
1

> <s_lp_Force_Field>
OPLS_2005

> <r_lp_Energy>
19.67435

> <b_lp_Chiralities_Consistent>
1

> <s_lp_Variant>
CHEMBL4282_lig3215-2

> <s_i_glide_gridfile>
glide-grid_3cqw

> <i_i_glide_lignum>
4192

> <i_i_glide_rotatable_bonds>
6

> <r_i_docking_score>
-7.79831884971733

> <r_i_glide_ligand_efficiency>
-0.433239936095407

> <r_i_glide_ligand_efficiency_sa>
-1.13540983305573

> <r_i_glide_ligand_efficiency_ln>
-2.00451764895972

> <r_i_glide_gscore>
-7.79831884971733

> <r_i_glide_lipo>
-1.12974974754926

> <r_i_glide_hbond>
-0.765420613010558

> <r_i_glide_metal>
0

> <r_i_glide_rewards>
-2.55676744393601

> <r_i_glide_evdw>
-28.8993320465088

> <r_i_glide_ecoul>
-15.5893468856812

> <r_i_glide_erotb>
0.436987589956113

> <r_i_glide_esite>
0

> <r_i_glide_emodel>
-63.4057832242387

> <r_i_glide_energy>
-44.4886789321899

> <r_i_glide_einternal>
8.51980495452881

> <i_i_glide_confnum>
16

> <i_i_glide_posenum>
123

> <r_i_glide_eff_state_penalty>
0

> <s_user_duplicate_titles>
CHEMBL4282_lig3215

> <s_m_subgroup_title>
dock_pv

> <s_m_subgroupid>
dock_pv

> <b_m_subgroup_collapsed>
1

$$$$
CHEMBL4282_lig2197
                    3D
 Schrodinger Suite 2021-1.
 40 42  0  0  1  0            999 V2000
   13.4285   -3.3629   16.1902 F   0  0  0  0  0  0
   12.5732   -2.4672   16.7338 C   0  0  0  0  0  0
   12.6726   -1.1102   16.4312 C   0  0  0  0  0  0
   11.7939   -0.1995   17.0140 C   0  0  0  0  0  0
   10.8115   -0.6820   17.8954 C   0  0  0  0  0  0
    9.8358    0.1151   18.5123 N   0  0  0  0  0  0
    9.6892    1.4611   18.4991 C   0  0  0  0  0  0
   10.5482    2.2492   18.1083 O   0  0  0  0  0  0
    8.3731    2.0213   19.0617 C   0  0  0  0  0  0
    7.2036    1.6149   18.1776 C   0  0  0  0  0  0
    6.6100    2.4552   17.3979 N   0  0  0  0  0  0
    5.6100    1.9945   16.5819 C   0  0  0  0  0  0
    5.3326    0.6800   16.4545 C   0  0  0  0  0  0
    5.8838   -0.2441   17.3850 C   0  0  0  0  0  0
    5.4309   -1.3663   17.5380 O   0  0  0  0  0  0
    6.8163    0.3028   18.1850 N   0  0  0  0  0  0
    4.8665    2.9217   15.8931 N   0  0  0  0  0  0
    3.4322    2.6913   15.6412 C   0  0  0  0  0  0
    2.6309    3.8371   16.2429 C   0  0  0  0  0  0
    3.0311    5.0046   15.5292 O   0  0  0  0  0  0
    4.3667    5.3450   15.8361 C   0  0  0  0  0  0
    5.3310    4.2333   15.3959 C   0  0  0  0  0  0
   10.7017   -2.0053   18.1846 N   0  0  0  0  0  0
   11.5730   -2.8753   17.6137 C   0  0  0  0  0  0
   13.4309   -0.7560   15.7571 H   0  0  0  0  0  0
   11.8862    0.8437   16.7575 H   0  0  0  0  0  0
    9.1424   -0.4215   19.0167 H   0  0  0  0  0  0
    8.2256    1.6493   20.0761 H   0  0  0  0  0  0
    8.4382    3.1072   19.1468 H   0  0  0  0  0  0
    4.5675    0.3158   15.7950 H   0  0  0  0  0  0
    7.0794   -0.2984   18.9589 H   0  0  0  0  0  0
    3.1915    2.3503   14.6353 H   0  0  0  0  0  0
    3.1030    1.8255   16.2166 H   0  0  0  0  0  0
    2.8178    3.9143   17.3171 H   0  0  0  0  0  0
    1.5578    3.6692   16.1849 H   0  0  0  0  0  0
    4.4034    5.4370   16.9145 H   0  0  0  0  0  0
    4.6370    6.3120   15.4130 H   0  0  0  0  0  0
    6.3030    4.4535   15.8394 H   0  0  0  0  0  0
    5.5929    4.2370   14.3403 H   0  0  0  0  0  0
   11.4577   -3.9162   17.8775 H   0  0  0  0  0  0
  1  2  1  0  0  0
  2  3  2  0  0  0
  2 24  1  0  0  0
  3  4  1  0  0  0
  3 25  1  0  0  0
  4  5  2  0  0  0
  4 26  1  0  0  0
  5  6  1  0  0  0
  5 23  1  0  0  0
  6  7  1  0  0  0
  6 27  1  0  0  0
  7  8  2  0  0  0
  7  9  1  0  0  0
  9 10  1  0  0  0
  9 28  1  0  0  0
  9 29  1  0  0  0
 10 11  2  0  0  0
 10 16  1  0  0  0
 11 12  1  0  0  0
 12 13  2  0  0  0
 12 17  1  0  0  0
 13 14  1  0  0  0
 13 30  1  0  0  0
 14 15  2  0  0  0
 14 16  1  0  0  0
 16 31  1  0  0  0
 17 18  1  0  0  0
 17 22  1  0  0  0
 18 19  1  0  0  0
 18 32  1  0  0  0
 18 33  1  0  0  0
 19 20  1  0  0  0
 19 34  1  0  0  0
 19 35  1  0  0  0
 20 21  1  0  0  0
 21 22  1  0  0  0
 21 36  1  0  0  0
 21 37  1  0  0  0
 22 38  1  0  0  0
 22 39  1  0  0  0
 23 24  2  0  0  0
 24 40  1  0  0  0
M  END
> <s_m_entry_id>
2296

> <s_m_entry_name>
dock_pv.35

> <s_m_Source_Path>
/home/csk/Desktop/cluster/DUD-E-result/akt1

> <s_m_Source_File>
dock_pv.maegz

> <i_m_Source_File_Index>
35

> <chembl_id>
CHEMBL3696247

> <chembl_pref_name>
None

> <i_lp_mmshare_version>
53161

> <i_f3d_flags>
0

> <r_lp_tautomer_probability>
0.994036381586735

> <s_lp_Force_Field>
OPLS_2005

> <r_lp_Energy>
27.376027

> <b_lp_Chiralities_Consistent>
1

> <s_lp_Variant>
CHEMBL4282_lig2197-1

> <s_i_glide_gridfile>
glide-grid_3cqw

> <i_i_glide_lignum>
2928

> <i_i_glide_rotatable_bonds>
5

> <r_i_docking_score>
-7.7747468266054

> <r_i_glide_ligand_efficiency>
-0.323947784441891

> <r_i_glide_ligand_efficiency_sa>
-0.934427104836823

> <r_i_glide_ligand_efficiency_ln>
-1.86085367549176

> <r_i_glide_gscore>
-7.7747468266054

> <r_i_glide_lipo>
-2.35312415526068

> <r_i_glide_hbond>
-0.431408571084609

> <r_i_glide_metal>
0

> <r_i_glide_rewards>
-2.00588037959706

> <r_i_glide_evdw>
-33.3001327514648

> <r_i_glide_ecoul>
-11.9445838928223

> <r_i_glide_erotb>
0.678518043922435

> <r_i_glide_esite>
-0.206157543088891

> <r_i_glide_emodel>
-59.4147133491006

> <r_i_glide_energy>
-45.2447166442871

> <r_i_glide_einternal>
9.25093650817871

> <i_i_glide_confnum>
14

> <i_i_glide_posenum>
310

> <r_i_glide_eff_state_penalty>
0

> <s_user_duplicate_titles>
CHEMBL4282_lig2197

> <s_m_subgroup_title>
dock_pv

> <s_m_subgroupid>
dock_pv

> <b_m_subgroup_collapsed>
1

$$$$
CHEMBL4282_lig907
                    3D
 Schrodinger Suite 2021-1.
 48 51  0  0  1  0            999 V2000
    8.9076    2.2090   18.8603 C   0  0  2  0  0  0
    6.0700    4.6385   16.1851 N   0  0  0  0  0  0
    4.8624    5.0953   15.7850 C   0  0  0  0  0  0
    3.7021    4.4057   15.7172 N   0  0  0  0  0  0
    6.1696    3.3393   16.5849 C   0  0  0  0  0  0
    4.7706    1.0369   16.4883 C   0  0  0  0  0  0
    5.0666    2.4590   16.4143 C   0  0  0  0  0  0
    3.8622    3.1085   15.9916 C   0  0  0  0  0  0
    2.8852    2.1582   15.8833 N   0  0  0  0  0  0
    3.4310    0.9376   16.1848 C   0  0  0  0  0  0
    7.4354    2.9372   17.0445 N   0  0  0  0  0  0
    7.6948    1.8382   17.9880 C   0  0  0  0  0  0
    8.6028    3.8249   17.1321 C   0  0  0  0  0  0
    9.6931    3.0550   17.8656 C   0  0  0  0  0  0
    5.6611   -0.1474   16.7810 C   0  0  0  0  0  0
    9.7102    1.0220   19.4773 C   0  0  0  0  0  0
    9.9432   -0.1621   18.6414 N   0  0  0  0  0  0
    8.4687    3.0343   19.9760 N   0  0  0  0  0  0
   10.9678   -0.3511   17.7876 C   0  0  0  0  0  0
   11.7659    0.5316   17.4691 O   0  0  0  0  0  0
   11.1106   -1.7447   17.2228 C   0  0  0  0  0  0
   11.6562   -1.9355   15.9440 C   0  0  0  0  0  0
   11.8196   -3.2207   15.4257 C   0  0  0  0  0  0
   11.4516   -4.3303   16.1849 C   0  0  0  0  0  0
   10.9189   -4.1592   17.4583 C   0  0  0  0  0  0
   10.7463   -2.8763   17.9737 C   0  0  0  0  0  0
   10.5553   -5.2381   18.1849 F   0  0  0  0  0  0
    4.8114    6.1435   15.5267 H   0  0  0  0  0  0
    1.9216    2.2943   15.6068 H   0  0  0  0  0  0
    2.8217    0.0491   16.1157 H   0  0  0  0  0  0
    7.9823    0.9556   17.4182 H   0  0  0  0  0  0
    6.8502    1.6606   18.6554 H   0  0  0  0  0  0
    8.3557    4.7391   17.6763 H   0  0  0  0  0  0
    8.9169    4.1110   16.1278 H   0  0  0  0  0  0
   10.4295    3.7063   18.3413 H   0  0  0  0  0  0
   10.2316    2.4558   17.1329 H   0  0  0  0  0  0
    5.1333   -1.0840   16.5988 H   0  0  0  0  0  0
    6.5448   -0.1583   16.1414 H   0  0  0  0  0  0
    5.9821   -0.1921   17.8194 H   0  0  0  0  0  0
    9.1630    0.6375   20.3420 H   0  0  0  0  0  0
   10.6554    1.3916   19.8821 H   0  0  0  0  0  0
    9.3262   -0.9445   18.8309 H   0  0  0  0  0  0
    7.9694    3.8412   19.6327 H   0  0  0  0  0  0
    7.8294    2.5319   20.5747 H   0  0  0  0  0  0
   11.9572   -1.0855   15.3466 H   0  0  0  0  0  0
   12.2310   -3.3577   14.4379 H   0  0  0  0  0  0
   11.5775   -5.3265   15.7862 H   0  0  0  0  0  0
   10.3361   -2.7765   18.9697 H   0  0  0  0  0  0
  1 16  1  0  0  0
  1 18  1  0  0  0
  1 12  1  0  0  0
  1 14  1  0  0  0
  2  3  2  0  0  0
  2  5  1  0  0  0
  3  4  1  0  0  0
  3 28  1  0  0  0
  4  8  2  0  0  0
  5  7  2  0  0  0
  5 11  1  0  0  0
  6 15  1  0  0  0
  6  7  1  0  0  0
  6 10  2  0  0  0
  7  8  1  0  0  0
  8  9  1  0  0  0
  9 10  1  0  0  0
  9 29  1  0  0  0
 10 30  1  0  0  0
 11 13  1  0  0  0
 11 12  1  0  0  0
 12 31  1  0  0  0
 12 32  1  0  0  0
 13 14  1  0  0  0
 13 33  1  0  0  0
 13 34  1  0  0  0
 14 35  1  0  0  0
 14 36  1  0  0  0
 15 37  1  0  0  0
 15 38  1  0  0  0
 15 39  1  0  0  0
 16 17  1  0  0  0
 16 40  1  0  0  0
 16 41  1  0  0  0
 17 19  1  0  0  0
 17 42  1  0  0  0
 18 43  1  0  0  0
 18 44  1  0  0  0
 19 20  2  0  0  0
 19 21  1  0  0  0
 21 22  2  0  0  0
 21 26  1  0  0  0
 22 23  1  0  0  0
 22 45  1  0  0  0
 23 24  2  0  0  0
 23 46  1  0  0  0
 24 25  1  0  0  0
 24 47  1  0  0  0
 25 26  2  0  0  0
 25 27  1  0  0  0
 26 48  1  0  0  0
M  END
> <s_m_entry_id>
2297

> <s_m_entry_name>
dock_pv.36

> <s_m_Source_Path>
/home/csk/Desktop/cluster/DUD-E-result/akt1

> <s_m_Source_File>
dock_pv.maegz

> <i_m_Source_File_Index>
36

> <chembl_id>
CHEMBL1171672

> <chembl_pref_name>
None

> <i_lp_mmshare_version>
53161

> <i_f3d_flags>
0

> <r_lp_tautomer_probability>
0.999998369746258

> <s_lp_Force_Field>
OPLS_2005

> <r_lp_Energy>
39.165498

> <b_lp_Chiralities_Consistent>
1

> <s_lp_Variant>
CHEMBL4282_lig907-2

> <s_i_glide_gridfile>
glide-grid_3cqw

> <i_i_glide_lignum>
1295

> <i_i_glide_rotatable_bonds>
5

> <r_i_docking_score>
-7.76853239449518

> <r_i_glide_ligand_efficiency>
-0.28772342201834

> <r_i_glide_ligand_efficiency_sa>
-0.86317026510673

> <r_i_glide_ligand_efficiency_ln>
-1.80838626717241

> <r_i_glide_gscore>
-7.76853239449518

> <r_i_glide_lipo>
-2.30055978936365

> <r_i_glide_hbond>
-0.193314355057834

> <r_i_glide_metal>
0

> <r_i_glide_rewards>
-2.5116285998742

> <r_i_glide_evdw>
-47.6162071228027

> <r_i_glide_ecoul>
-4.65748357772827

> <r_i_glide_erotb>
0.397530695902218

> <r_i_glide_esite>
-0.0811274533023319

> <r_i_glide_emodel>
-70.5844654447791

> <r_i_glide_energy>
-52.273690700531

> <r_i_glide_einternal>
7.18965101242065

> <i_i_glide_confnum>
10

> <i_i_glide_posenum>
284

> <r_i_glide_eff_state_penalty>
0

> <s_user_duplicate_titles>
CHEMBL4282_lig907,649924

> <s_m_subgroup_title>
dock_pv

> <s_m_subgroupid>
dock_pv

> <b_m_subgroup_collapsed>
1

$$$$
CHEMBL4282_lig958
                    3D
 Schrodinger Suite 2021-1.
 48 51  0  0  1  0            999 V2000
   11.0864   -1.5474   19.0970 C   0  0  0  0  0  0
   12.0245   -0.5146   19.1316 C   0  0  0  0  0  0
   12.7994   -0.2383   18.0006 C   0  0  0  0  0  0
   12.6274   -0.9857   16.8370 C   0  0  0  0  0  0
   11.6938   -2.0197   16.8132 C   0  0  0  0  0  0
   10.9296   -2.3065   17.9414 C   0  0  0  0  0  0
   12.1816    0.3265   20.4001 C   0  0  0  0  0  0
   11.0709    1.3996   20.5758 C   0  0  1  0  0  0
   11.3268    2.2374   21.7622 N   0  0  0  0  0  0
   10.9674    2.3383   19.3328 C   0  0  0  0  0  0
    9.7922    2.4839   18.6549 N   0  0  0  0  0  0
   12.0172    2.8900   18.9750 O   0  0  0  0  0  0
    8.4981    1.9956   19.1772 C   0  0  0  0  0  0
    7.4834    1.8379   18.0222 C   0  0  0  0  0  0
    7.3093    3.0029   17.1338 N   0  0  0  0  0  0
    8.4744    3.9019   17.1195 C   0  0  0  0  0  0
    9.8297    3.2313   17.3826 C   0  0  0  0  0  0
    6.0764    3.3800   16.5853 C   0  0  0  0  0  0
    3.5339    4.2740   15.6755 N   0  0  0  0  0  0
    4.5918    5.1094   15.7843 C   0  0  0  0  0  0
    5.8579    4.7006   16.1836 C   0  0  0  0  0  0
   11.4765   -2.9522   15.3781 Cl  0  0  0  0  0  0
    5.0038    1.1581   16.5139 N   0  0  0  0  0  0
    3.7868    0.7854   16.1851 C   0  0  0  0  0  0
    2.9677    1.8370   15.7845 C   0  0  0  0  0  0
    3.7705    2.9809   15.9136 C   0  0  0  0  0  0
    5.0194    2.5129   16.3716 N   0  0  0  0  0  0
   10.4735   -1.7623   19.9614 H   0  0  0  0  0  0
   13.5181    0.5686   18.0174 H   0  0  0  0  0  0
   13.2120   -0.7625   15.9571 H   0  0  0  0  0  0
   10.2069   -3.1078   17.9273 H   0  0  0  0  0  0
   12.1819   -0.3530   21.2539 H   0  0  0  0  0  0
   13.1734    0.7826   20.4140 H   0  0  0  0  0  0
   10.1496    0.8566   20.7628 H   0  0  0  0  0  0
   12.2783    2.5763   21.7748 H   0  0  0  0  0  0
   10.7397    3.0754   21.7853 H   0  0  0  0  0  0
    8.5509    0.9988   19.6117 H   0  0  0  0  0  0
    8.0917    2.7080   19.8972 H   0  0  0  0  0  0
    6.5307    1.5315   18.4551 H   0  0  0  0  0  0
    7.8292    1.0242   17.3851 H   0  0  0  0  0  0
    8.3130    4.6147   17.9309 H   0  0  0  0  0  0
    8.5424    4.4449   16.1765 H   0  0  0  0  0  0
   10.5421    4.0565   17.4193 H   0  0  0  0  0  0
   10.0774    2.5662   16.5553 H   0  0  0  0  0  0
    4.4058    6.1472   15.5440 H   0  0  0  0  0  0
    6.6363    5.4364   16.2483 H   0  0  0  0  0  0
    3.4950   -0.2548   16.2215 H   0  0  0  0  0  0
    1.9412    1.7899   15.4531 H   0  0  0  0  0  0
  1  2  2  0  0  0
  1  6  1  0  0  0
  1 28  1  0  0  0
  2  7  1  0  0  0
  2  3  1  0  0  0
  3  4  2  0  0  0
  3 29  1  0  0  0
  4  5  1  0  0  0
  4 30  1  0  0  0
  5 22  1  0  0  0
  5  6  2  0  0  0
  6 31  1  0  0  0
  7  8  1  0  0  0
  7 32  1  0  0  0
  7 33  1  0  0  0
  8  9  1  0  0  0
  8 10  1  0  0  0
  8 34  1  0  0  0
  9 35  1  0  0  0
  9 36  1  0  0  0
 10 11  1  0  0  0
 10 12  2  0  0  0
 11 17  1  0  0  0
 11 13  1  0  0  0
 13 14  1  0  0  0
 13 37  1  0  0  0
 13 38  1  0  0  0
 14 15  1  0  0  0
 14 39  1  0  0  0
 14 40  1  0  0  0
 15 16  1  0  0  0
 15 18  1  0  0  0
 16 17  1  0  0  0
 16 41  1  0  0  0
 16 42  1  0  0  0
 17 43  1  0  0  0
 17 44  1  0  0  0
 18 27  1  0  0  0
 18 21  2  0  0  0
 19 26  1  0  0  0
 19 20  2  0  0  0
 20 21  1  0  0  0
 20 45  1  0  0  0
 21 46  1  0  0  0
 23 24  2  0  0  0
 23 27  1  0  0  0
 24 25  1  0  0  0
 24 47  1  0  0  0
 25 26  2  0  0  0
 25 48  1  0  0  0
 26 27  1  0  0  0
M  END
> <s_m_entry_id>
2298

> <s_m_entry_name>
dock_pv.37

> <s_m_Source_Path>
/home/csk/Desktop/cluster/DUD-E-result/akt1

> <s_m_Source_File>
dock_pv.maegz

> <i_m_Source_File_Index>
37

> <chembl_id>
CHEMBL1258215

> <chembl_pref_name>
None

> <i_lp_mmshare_version>
53161

> <i_f3d_flags>
0

> <r_lp_tautomer_probability>
1

> <s_lp_Force_Field>
OPLS_2005

> <r_lp_Energy>
48.137314

> <b_lp_Chiralities_Consistent>
1

> <s_lp_Variant>
CHEMBL4282_lig958-1

> <s_i_glide_gridfile>
glide-grid_3cqw

> <i_i_glide_lignum>
1354

> <i_i_glide_rotatable_bonds>
5

> <r_i_docking_score>
-7.72117540683774

> <r_i_glide_ligand_efficiency>
-0.285969459512509

> <r_i_glide_ligand_efficiency_sa>
-0.857908377595018

> <r_i_glide_ligand_efficiency_ln>
-1.79736234118671

> <r_i_glide_gscore>
-7.72117540683774

> <r_i_glide_lipo>
-2.53187862662933

> <r_i_glide_hbond>
-0.18717147376939

> <r_i_glide_metal>
0

> <r_i_glide_rewards>
-2.44178994754699

> <r_i_glide_evdw>
-46.1555137634277

> <r_i_glide_ecoul>
-4.69023561477661

> <r_i_glide_erotb>
0.525172777857453

> <r_i_glide_esite>
-0.0741971063616072

> <r_i_glide_emodel>
-70.8575241345744

> <r_i_glide_energy>
-50.8457493782043

> <r_i_glide_einternal>
7.46947622299194

> <i_i_glide_confnum>
34

> <i_i_glide_posenum>
164

> <r_i_glide_eff_state_penalty>
0

> <s_user_duplicate_titles>
CHEMBL4282_lig958

> <s_m_subgroup_title>
dock_pv

> <s_m_subgroupid>
dock_pv

> <b_m_subgroup_collapsed>
1

$$$$
CHEMBL4282_lig1283
                    3D
 Schrodinger Suite 2021-1.
 52 55  0  0  1  0            999 V2000
   12.7787   -0.7079   17.1626 C   0  0  0  0  0  0
   12.2979   -2.0074   17.3056 C   0  0  0  0  0  0
   11.4305   -2.3254   18.3464 C   0  0  0  0  0  0
   11.0312   -1.3340   19.2371 C   0  0  0  0  0  0
   11.5131   -0.0258   19.1079 C   0  0  0  0  0  0
   12.4098    0.2762   18.0762 C   0  0  0  0  0  0
   10.9684    1.0523   20.0612 C   0  0  2  0  0  0
   10.7495    2.4116   19.5347 N   0  0  0  0  0  0
   10.1895    2.7646   18.3598 C   0  0  0  0  0  0
   10.1466    2.0120   17.3850 O   0  0  0  0  0  0
    9.4506    4.1446   18.3356 C   0  0  0  0  0  0
   10.2217    5.1923   18.9850 N   0  0  0  0  0  0
    9.1784    4.6724   16.9118 C   0  0  0  0  0  0
    8.0972    3.9463   16.1147 C   0  0  0  0  0  0
    6.8795    3.7625   16.8961 N   0  0  0  0  0  0
    7.1353    3.0153   18.1299 C   0  0  0  0  0  0
    8.0694    3.8977   19.0005 C   0  0  0  0  0  0
    5.6525    3.8370   16.2788 C   0  0  0  0  0  0
    5.3335    5.0621   15.7949 N   0  0  0  0  0  0
    4.0345    5.2732   15.5113 C   0  0  0  0  0  0
    3.0310    4.3603   15.4933 N   0  0  0  0  0  0
    4.7362    2.7703   16.2404 C   0  0  0  0  0  0
    3.4339    3.1271   15.8062 C   0  0  0  0  0  0
    2.6791    1.9810   15.7845 N   0  0  0  0  0  0
    3.4558    0.9169   16.1850 C   0  0  0  0  0  0
    4.7230    1.3617   16.5153 C   0  0  0  0  0  0
   11.7613    1.0922   21.3888 C   0  0  0  0  0  0
   12.7723   -3.2310   16.1851 Cl  0  0  0  0  0  0
   11.0934    1.8369   22.3975 O   0  0  0  0  0  0
   13.4308   -0.4583   16.3410 H   0  0  0  0  0  0
   11.0491   -3.3299   18.4565 H   0  0  0  0  0  0
   10.3263   -1.5844   20.0184 H   0  0  0  0  0  0
   12.7793    1.2839   17.9538 H   0  0  0  0  0  0
    9.9583    0.7177   20.3158 H   0  0  0  0  0  0
   10.7065    3.1279   20.2461 H   0  0  0  0  0  0
   10.2281    5.0778   20.0028 H   0  0  0  0  0  0
   11.1845    5.1761   18.6839 H   0  0  0  0  0  0
    9.0310    5.7537   16.8992 H   0  0  0  0  0  0
   10.1001    4.5846   16.3493 H   0  0  0  0  0  0
    7.8666    4.5364   15.2270 H   0  0  0  0  0  0
    8.4439    2.9750   15.7851 H   0  0  0  0  0  0
    6.2142    2.8217   18.6731 H   0  0  0  0  0  0
    7.5651    2.0394   17.9003 H   0  0  0  0  0  0
    8.2117    3.3978   19.9613 H   0  0  0  0  0  0
    7.6128    4.8245   19.3505 H   0  0  0  0  0  0
    3.7627    6.3094   15.3850 H   0  0  0  0  0  0
    1.7061    1.9042   15.5215 H   0  0  0  0  0  0
    3.0311   -0.0770   16.2246 H   0  0  0  0  0  0
    5.5366    0.7494   16.8779 H   0  0  0  0  0  0
   11.9119    0.0808   21.7692 H   0  0  0  0  0  0
   12.7553    1.5121   21.2274 H   0  0  0  0  0  0
   11.0908    2.7777   22.1847 H   0  0  0  0  0  0
  1  2  2  0  0  0
  1  6  1  0  0  0
  1 30  1  0  0  0
  2  3  1  0  0  0
  2 28  1  0  0  0
  3  4  2  0  0  0
  3 31  1  0  0  0
  4  5  1  0  0  0
  4 32  1  0  0  0
  5  6  2  0  0  0
  5  7  1  0  0  0
  6 33  1  0  0  0
  7  8  1  0  0  0
  7 27  1  0  0  0
  7 34  1  0  0  0
  8  9  1  0  0  0
  8 35  1  0  0  0
  9 10  2  0  0  0
  9 11  1  0  0  0
 11 12  1  0  0  0
 11 13  1  0  0  0
 11 17  1  0  0  0
 12 36  1  0  0  0
 12 37  1  0  0  0
 13 14  1  0  0  0
 13 38  1  0  0  0
 13 39  1  0  0  0
 14 15  1  0  0  0
 14 40  1  0  0  0
 14 41  1  0  0  0
 15 16  1  0  0  0
 15 18  1  0  0  0
 16 17  1  0  0  0
 16 42  1  0  0  0
 16 43  1  0  0  0
 17 44  1  0  0  0
 17 45  1  0  0  0
 18 19  2  0  0  0
 18 22  1  0  0  0
 19 20  1  0  0  0
 20 21  2  0  0  0
 20 46  1  0  0  0
 21 23  1  0  0  0
 22 23  2  0  0  0
 22 26  1  0  0  0
 23 24  1  0  0  0
 24 25  1  0  0  0
 24 47  1  0  0  0
 25 26  2  0  0  0
 25 48  1  0  0  0
 26 49  1  0  0  0
 27 29  1  0  0  0
 27 50  1  0  0  0
 27 51  1  0  0  0
 29 52  1  0  0  0
M  END
> <s_m_entry_id>
2299

> <s_m_entry_name>
dock_pv.38

> <s_m_Source_Path>
/home/csk/Desktop/cluster/DUD-E-result/akt1

> <s_m_Source_File>
dock_pv.maegz

> <i_m_Source_File_Index>
38

> <chembl_id>
CHEMBL2325737

> <chembl_pref_name>
None

> <i_lp_mmshare_version>
53161

> <i_f3d_flags>
0

> <r_lp_tautomer_probability>
0.999998369746258

> <s_lp_Force_Field>
OPLS_2005

> <r_lp_Energy>
25.452532

> <b_lp_Chiralities_Consistent>
1

> <s_lp_Variant>
CHEMBL4282_lig1283-1

> <s_i_glide_gridfile>
glide-grid_3cqw

> <i_i_glide_lignum>
1768

> <i_i_glide_rotatable_bonds>
7

> <r_i_docking_score>
-7.68867367880654

> <r_i_glide_ligand_efficiency>
-0.265126678579536

> <r_i_glide_ligand_efficiency_sa>
-0.814553154623831

> <r_i_glide_ligand_efficiency_ln>
-1.7605113045045

> <r_i_glide_gscore>
-7.68867367880654

> <r_i_glide_lipo>
-2.14801579201477

> <r_i_glide_hbond>
-0.457072081653911

> <r_i_glide_metal>
0

> <r_i_glide_rewards>
-1.93780942884211

> <r_i_glide_evdw>
-42.8853340148926

> <r_i_glide_ecoul>
-10.0072078704834

> <r_i_glide_erotb>
0.573445091735859

> <r_i_glide_esite>
-0.0738735867144624

> <r_i_glide_emodel>
-63.0084734229485

> <r_i_glide_energy>
-52.892541885376

> <r_i_glide_einternal>
27.9538497924805

> <i_i_glide_confnum>
64

> <i_i_glide_posenum>
256

> <r_i_glide_eff_state_penalty>
0

> <s_user_duplicate_titles>
CHEMBL4282_lig1283

> <s_m_subgroup_title>
dock_pv

> <s_m_subgroupid>
dock_pv

> <b_m_subgroup_collapsed>
1

$$$$
CHEMBL4282_lig3639
                    3D
 Schrodinger Suite 2021-1.
 44 47  0  0  1  0            999 V2000
    8.0724    3.6127   20.1593 C   0  0  0  0  0  0
    8.6667    4.1462   18.9245 N   0  0  0  0  0  0
    8.9972    5.5738   18.9850 C   0  0  0  0  0  0
    8.9672    3.4093   17.8256 C   0  0  0  0  0  0
    9.4310    3.8725   16.7844 O   0  0  0  0  0  0
    8.6666    2.0095   17.8691 C   0  0  0  0  0  0
    7.4724    1.3072   17.5980 C   0  0  0  0  0  0
    7.6936    0.0192   17.7850 N   0  0  0  0  0  0
    8.9948   -0.1630   18.1850 N   0  0  0  0  0  0
    9.5635    1.0380   18.2522 N   0  0  0  0  0  0
   10.9799    1.1392   18.6297 C   0  0  0  0  0  0
   11.8220   -0.0129   18.0851 C   0  0  0  0  0  0
   12.1139   -0.0645   16.7209 C   0  0  0  0  0  0
   12.7061   -1.2022   16.1850 C   0  0  0  0  0  0
   13.0379   -2.2692   17.0163 C   0  0  0  0  0  0
   12.7885   -2.2054   18.3854 C   0  0  0  0  0  0
   12.1750   -1.0761   18.9213 C   0  0  0  0  0  0
    6.1644    1.7592   17.0234 C   0  0  0  0  0  0
    5.1422    0.8398   16.7283 C   0  0  0  0  0  0
    3.9150    1.2254   16.1850 C   0  0  0  0  0  0
    3.7462    2.5901   15.9564 C   0  0  0  0  0  0
    2.6867    3.3446   15.5159 N   0  0  0  0  0  0
    3.0310    4.6370   15.3850 N   0  0  0  0  0  0
    4.2534    4.7780   15.7850 C   0  0  0  0  0  0
    4.7751    3.5291   16.1888 C   0  0  0  0  0  0
    5.9803    3.1089   16.7210 C   0  0  0  0  0  0
    7.5380    2.6739   20.0124 H   0  0  0  0  0  0
    8.8418    3.4370   20.9095 H   0  0  0  0  0  0
    7.3573    4.3207   20.5780 H   0  0  0  0  0  0
    9.4310    5.9552   18.0590 H   0  0  0  0  0  0
    8.1038    6.1595   19.1940 H   0  0  0  0  0  0
    9.7137    5.7704   19.7820 H   0  0  0  0  0  0
   11.3824    2.0842   18.2634 H   0  0  0  0  0  0
   11.0318    1.1841   19.7185 H   0  0  0  0  0  0
   11.8310    0.7510   16.0710 H   0  0  0  0  0  0
   12.8978   -1.2605   15.1248 H   0  0  0  0  0  0
   13.4928   -3.1536   16.5959 H   0  0  0  0  0  0
   13.0421   -3.0380   19.0253 H   0  0  0  0  0  0
   11.9318   -1.0503   19.9740 H   0  0  0  0  0  0
    5.2884   -0.2087   16.9427 H   0  0  0  0  0  0
    3.1305    0.5079   15.9940 H   0  0  0  0  0  0
    1.7514    3.0448   15.2478 H   0  0  0  0  0  0
    4.7389    5.7424   15.7980 H   0  0  0  0  0  0
    6.7247    3.8604   16.8950 H   0  0  0  0  0  0
  1  2  1  0  0  0
  1 27  1  0  0  0
  1 28  1  0  0  0
  1 29  1  0  0  0
  2  3  1  0  0  0
  2  4  1  0  0  0
  3 30  1  0  0  0
  3 31  1  0  0  0
  3 32  1  0  0  0
  4  5  2  0  0  0
  4  6  1  0  0  0
  6  7  2  0  0  0
  6 10  1  0  0  0
  7  8  1  0  0  0
  7 18  1  0  0  0
  8  9  2  0  0  0
  9 10  1  0  0  0
 10 11  1  0  0  0
 11 12  1  0  0  0
 11 33  1  0  0  0
 11 34  1  0  0  0
 12 13  2  0  0  0
 12 17  1  0  0  0
 13 14  1  0  0  0
 13 35  1  0  0  0
 14 15  2  0  0  0
 14 36  1  0  0  0
 15 16  1  0  0  0
 15 37  1  0  0  0
 16 17  2  0  0  0
 16 38  1  0  0  0
 17 39  1  0  0  0
 18 19  2  0  0  0
 18 26  1  0  0  0
 19 20  1  0  0  0
 19 40  1  0  0  0
 20 21  2  0  0  0
 20 41  1  0  0  0
 21 22  1  0  0  0
 21 25  1  0  0  0
 22 23  1  0  0  0
 22 42  1  0  0  0
 23 24  2  0  0  0
 24 25  1  0  0  0
 24 43  1  0  0  0
 25 26  2  0  0  0
 26 44  1  0  0  0
M  END
> <s_m_entry_id>
2300

> <s_m_entry_name>
dock_pv.39

> <s_m_Source_Path>
/home/csk/Desktop/cluster/DUD-E-result/akt1

> <s_m_Source_File>
dock_pv.maegz

> <i_m_Source_File_Index>
39

> <chembl_id>
CHEMBL1996111

> <chembl_pref_name>
None

> <i_lp_mmshare_version>
53161

> <i_f3d_flags>
0

> <r_lp_tautomer_probability>
0.980392156862745

> <s_lp_Force_Field>
OPLS_2005

> <r_lp_Energy>
24.559516

> <b_lp_Chiralities_Consistent>
1

> <s_lp_Variant>
CHEMBL4282_lig3639-1

> <s_i_glide_gridfile>
glide-grid_3cqw

> <i_i_glide_lignum>
4857

> <i_i_glide_rotatable_bonds>
5

> <r_i_docking_score>
-7.68498134325911

> <r_i_glide_ligand_efficiency>
-0.295576205509966

> <r_i_glide_ligand_efficiency_sa>
-0.875643345787066

> <r_i_glide_ligand_efficiency_ln>
-1.80479265198387

> <r_i_glide_gscore>
-7.68498134325911

> <r_i_glide_lipo>
-2.4030513609293

> <r_i_glide_hbond>
-0.568449356638452

> <r_i_glide_metal>
0

> <r_i_glide_rewards>
-2.13167283159244

> <r_i_glide_evdw>
-36.9950637817383

> <r_i_glide_ecoul>
-6.1204628944397

> <r_i_glide_erotb>
0.443663417762567

> <r_i_glide_esite>
-0.257648588608614

> <r_i_glide_emodel>
-59.6012664811355

> <r_i_glide_energy>
-43.115526676178

> <r_i_glide_einternal>
6.30535650253296

> <i_i_glide_confnum>
62

> <i_i_glide_posenum>
244

> <r_i_glide_eff_state_penalty>
0

> <s_user_duplicate_titles>
CHEMBL4282_lig3639

> <s_m_subgroup_title>
dock_pv

> <s_m_subgroupid>
dock_pv

> <b_m_subgroup_collapsed>
1

$$$$
CHEMBL4282_lig790
                    3D
 Schrodinger Suite 2021-1.
 44 47  0  0  1  0            999 V2000
    7.2623    2.1925   17.3858 N   0  0  0  0  0  0
    8.0149    3.3354   16.8780 C   0  0  0  0  0  0
   11.3778    2.1413   18.6122 C   0  0  0  0  0  0
    9.9864    2.8417   18.4888 C   0  0  0  0  0  0
   10.0868    4.2007   18.9854 N   0  0  0  0  0  0
    7.4350    2.1789   18.8453 C   0  0  0  0  0  0
   11.5373    0.7346   18.0177 C   0  0  0  0  0  0
   12.0169    0.5745   16.7153 C   0  0  0  0  0  0
   12.2127   -0.6981   16.1844 C   0  0  0  0  0  0
   11.9165   -1.8195   16.9532 C   0  0  0  0  0  0
   12.1421   -3.3942   16.2821 Cl  0  0  0  0  0  0
   11.4410   -1.6749   18.2557 C   0  0  0  0  0  0
   11.2661   -0.4000   18.7907 C   0  0  0  0  0  0
    5.9923    1.8945   16.9189 C   0  0  0  0  0  0
    5.6153    0.5902   17.0035 N   0  0  0  0  0  0
    4.3664    0.2785   16.5850 C   0  0  0  0  0  0
    3.4185    1.1257   16.1116 N   0  0  0  0  0  0
    3.8122    2.4013   16.0732 C   0  0  0  0  0  0
    3.0483    3.4942   15.7241 N   0  0  0  0  0  0
    3.8289    4.6285   15.7848 C   0  0  0  0  0  0
    5.1028    4.2928   16.1848 C   0  0  0  0  0  0
    9.5149    3.0548   17.0285 C   0  0  0  0  0  0
    8.9035    2.0722   19.3084 C   0  0  0  0  0  0
    5.1037    2.8768   16.4260 C   0  0  0  0  0  0
    7.7250    4.2551   17.3894 H   0  0  0  0  0  0
    7.8096    3.4737   15.8160 H   0  0  0  0  0  0
   11.6504    2.0864   19.6679 H   0  0  0  0  0  0
   12.1518    2.7795   18.1856 H   0  0  0  0  0  0
    9.2013    4.6622   18.8531 H   0  0  0  0  0  0
   10.2360    4.2231   19.9937 H   0  0  0  0  0  0
    6.9432    3.0397   19.2993 H   0  0  0  0  0  0
    6.9143    1.3032   19.2396 H   0  0  0  0  0  0
   12.2299    1.4368   16.1080 H   0  0  0  0  0  0
   12.5800   -0.8181   15.1766 H   0  0  0  0  0  0
   11.2104   -2.5441   18.8551 H   0  0  0  0  0  0
   10.9154   -0.3011   19.8078 H   0  0  0  0  0  0
    4.0850   -0.7630   16.6463 H   0  0  0  0  0  0
    2.0763    3.4893   15.4344 H   0  0  0  0  0  0
    3.4308    5.5953   15.5211 H   0  0  0  0  0  0
    5.9094    4.9968   16.3219 H   0  0  0  0  0  0
   10.0001    3.9282   16.5895 H   0  0  0  0  0  0
    9.8302    2.2373   16.3875 H   0  0  0  0  0  0
    9.1436    1.0166   19.3978 H   0  0  0  0  0  0
    8.9323    2.4048   20.3481 H   0  0  0  0  0  0
  1  2  1  0  0  0
  1  6  1  0  0  0
  1 14  1  0  0  0
  2 22  1  0  0  0
  2 25  1  0  0  0
  2 26  1  0  0  0
  3  4  1  0  0  0
  3  7  1  0  0  0
  3 27  1  0  0  0
  3 28  1  0  0  0
  4  5  1  0  0  0
  4 22  1  0  0  0
  4 23  1  0  0  0
  5 29  1  0  0  0
  5 30  1  0  0  0
  6 23  1  0  0  0
  6 31  1  0  0  0
  6 32  1  0  0  0
  7  8  1  0  0  0
  7 13  2  0  0  0
  8  9  2  0  0  0
  8 33  1  0  0  0
  9 10  1  0  0  0
  9 34  1  0  0  0
 10 11  1  0  0  0
 10 12  2  0  0  0
 12 13  1  0  0  0
 12 35  1  0  0  0
 13 36  1  0  0  0
 14 15  1  0  0  0
 14 24  2  0  0  0
 15 16  2  0  0  0
 16 17  1  0  0  0
 16 37  1  0  0  0
 17 18  2  0  0  0
 18 19  1  0  0  0
 18 24  1  0  0  0
 19 20  1  0  0  0
 19 38  1  0  0  0
 20 21  2  0  0  0
 20 39  1  0  0  0
 21 24  1  0  0  0
 21 40  1  0  0  0
 22 41  1  0  0  0
 22 42  1  0  0  0
 23 43  1  0  0  0
 23 44  1  0  0  0
M  END
> <s_m_entry_id>
2301

> <s_m_entry_name>
dock_pv.40

> <s_m_Source_Path>
/home/csk/Desktop/cluster/DUD-E-result/akt1

> <s_m_Source_File>
dock_pv.maegz

> <i_m_Source_File_Index>
40

> <chembl_id>
CHEMBL263664

> <chembl_pref_name>
None

> <i_lp_mmshare_version>
53161

> <i_f3d_flags>
0

> <r_lp_tautomer_probability>
0.999998369746258

> <s_lp_Force_Field>
OPLS_2005

> <r_lp_Energy>
27.146724

> <b_lp_Chiralities_Consistent>
1

> <s_lp_Variant>
CHEMBL4282_lig790-1

> <s_i_glide_gridfile>
glide-grid_3cqw

> <i_i_glide_lignum>
1150

> <i_i_glide_rotatable_bonds>
3

> <r_i_docking_score>
-7.65656821129058

> <r_i_glide_ligand_efficiency>
-0.319023675470441

> <r_i_glide_ligand_efficiency_sa>
-0.920223516755427

> <r_i_glide_ligand_efficiency_ln>
-1.83256810998363

> <r_i_glide_gscore>
-7.65656821129058

> <r_i_glide_lipo>
-2.18674236095725

> <r_i_glide_hbond>
-0.455967183221124

> <r_i_glide_metal>
0

> <r_i_glide_rewards>
-2.76742047561794

> <r_i_glide_evdw>
-44.2869682312012

> <r_i_glide_ecoul>
-3.45817637443542

> <r_i_glide_erotb>
0.486636676231096

> <r_i_glide_esite>
0

> <r_i_glide_emodel>
-62.9681758718253

> <r_i_glide_energy>
-47.7451446056366

> <r_i_glide_einternal>
11.7559995651245

> <i_i_glide_confnum>
38

> <i_i_glide_posenum>
8

> <r_i_glide_eff_state_penalty>
0

> <s_user_duplicate_titles>
CHEMBL4282_lig790,429079

> <s_m_subgroup_title>
dock_pv

> <s_m_subgroupid>
dock_pv

> <b_m_subgroup_collapsed>
1

$$$$
CHEMBL4282_lig916
                    3D
 Schrodinger Suite 2021-1.
 37 39  0  0  1  0            999 V2000
    9.0346    2.7759   18.4006 C   0  0  1  0  0  0
    5.8035    5.0363   15.9993 N   0  0  0  0  0  0
    4.5177    5.3892   15.7849 C   0  0  0  0  0  0
    3.4307    4.5873   15.7837 N   0  0  0  0  0  0
    6.0575    3.7425   16.3299 C   0  0  0  0  0  0
    4.8576    1.3218   16.3924 C   0  0  0  0  0  0
    5.0257    2.7641   16.2670 C   0  0  0  0  0  0
    3.7306    3.3028   15.9857 C   0  0  0  0  0  0
    2.8397    2.2629   15.9398 N   0  0  0  0  0  0
    3.5206    1.0995   16.1847 C   0  0  0  0  0  0
    7.3816    3.4508   16.6963 N   0  0  0  0  0  0
    7.7496    2.4058   17.6458 C   0  0  0  0  0  0
    8.4983    4.3904   16.7040 C   0  0  0  0  0  0
    9.6681    3.6861   17.3691 C   0  0  0  0  0  0
    8.7778    3.4369   19.6765 N   0  0  1  0  0  0
    5.8325    0.2026   16.6576 C   0  0  0  0  0  0
    8.5991    2.5156   20.7903 C   0  0  0  0  0  0
    7.1465    2.0652   20.9162 C   0  0  0  0  0  0
    9.6399    1.8733   18.5094 H   0  0  0  0  0  0
    4.3324    6.4369   15.6132 H   0  0  0  0  0  0
    1.8473    2.3128   15.7512 H   0  0  0  0  0  0
    3.0310    0.1427   16.1858 H   0  0  0  0  0  0
    7.9693    1.4752   17.1394 H   0  0  0  0  0  0
    6.9246    2.3533   18.3456 H   0  0  0  0  0  0
    8.2474    5.3037   17.2443 H   0  0  0  0  0  0
    8.7363    4.6372   15.6725 H   0  0  0  0  0  0
   10.3676    4.4010   17.8066 H   0  0  0  0  0  0
   10.2310    3.0987   16.6465 H   0  0  0  0  0  0
    9.4318    4.1731   19.9328 H   0  0  0  0  0  0
    5.3483   -0.7718   16.5852 H   0  0  0  0  0  0
    6.6308    0.1929   15.9216 H   0  0  0  0  0  0
    6.2537    0.2352   17.6617 H   0  0  0  0  0  0
    8.8760    3.0370   21.7056 H   0  0  0  0  0  0
    9.2770    1.6637   20.7176 H   0  0  0  0  0  0
    7.0310    1.4371   21.7850 H   0  0  0  0  0  0
    6.8286    1.4389   20.0909 H   0  0  0  0  0  0
    6.4618    2.9093   21.0073 H   0  0  0  0  0  0
  1 12  1  0  0  0
  1 14  1  0  0  0
  1 15  1  0  0  0
  1 19  1  0  0  0
  2  5  1  0  0  0
  2  3  2  0  0  0
  3  4  1  0  0  0
  3 20  1  0  0  0
  4  8  2  0  0  0
  5 11  1  0  0  0
  5  7  2  0  0  0
  6 10  2  0  0  0
  6 16  1  0  0  0
  6  7  1  0  0  0
  7  8  1  0  0  0
  8  9  1  0  0  0
  9 10  1  0  0  0
  9 21  1  0  0  0
 10 22  1  0  0  0
 11 12  1  0  0  0
 11 13  1  0  0  0
 12 23  1  0  0  0
 12 24  1  0  0  0
 13 14  1  0  0  0
 13 25  1  0  0  0
 13 26  1  0  0  0
 14 27  1  0  0  0
 14 28  1  0  0  0
 15 17  1  0  0  0
 15 29  1  0  0  0
 16 30  1  0  0  0
 16 31  1  0  0  0
 16 32  1  0  0  0
 17 18  1  0  0  0
 17 33  1  0  0  0
 17 34  1  0  0  0
 18 35  1  0  0  0
 18 36  1  0  0  0
 18 37  1  0  0  0
M  END
> <s_m_entry_id>
2302

> <s_m_entry_name>
dock_pv.41

> <s_m_Source_Path>
/home/csk/Desktop/cluster/DUD-E-result/akt1

> <s_m_Source_File>
dock_pv.maegz

> <i_m_Source_File_Index>
41

> <chembl_id>
CHEMBL1173305

> <chembl_pref_name>
None

> <i_lp_mmshare_version>
53161

> <i_f3d_flags>
0

> <r_lp_tautomer_probability>
0.999998369746258

> <s_lp_Force_Field>
OPLS_2005

> <r_lp_Energy>
27.69132

> <b_lp_Chiralities_Consistent>
1

> <s_lp_Variant>
CHEMBL4282_lig916-1

> <s_i_glide_gridfile>
glide-grid_3cqw

> <i_i_glide_lignum>
1311

> <i_i_glide_rotatable_bonds>
3

> <r_i_docking_score>
-7.6290656348438

> <r_i_glide_ligand_efficiency>
-0.423836979713545

> <r_i_glide_ligand_efficiency_sa>
-1.11076711606159

> <r_i_glide_ligand_efficiency_ln>
-1.96101198281612

> <r_i_glide_gscore>
-7.6290656348438

> <r_i_glide_lipo>
-1.71525237957142

> <r_i_glide_hbond>
-0.402470158210542

> <r_i_glide_metal>
0

> <r_i_glide_rewards>
-3.78699581331617

> <r_i_glide_evdw>
-30.1075763702393

> <r_i_glide_ecoul>
-4.15900611877441

> <r_i_glide_erotb>
0.404882452582452

> <r_i_glide_esite>
0

> <r_i_glide_emodel>
-48.6363340043472

> <r_i_glide_energy>
-34.2665824890137

> <r_i_glide_einternal>
1.17018616199493

> <i_i_glide_confnum>
9

> <i_i_glide_posenum>
275

> <r_i_glide_eff_state_penalty>
0

> <s_user_duplicate_titles>
CHEMBL4282_lig916

> <s_m_subgroup_title>
dock_pv

> <s_m_subgroupid>
dock_pv

> <b_m_subgroup_collapsed>
1

$$$$
CHEMBL4282_lig2146
                    3D
 Schrodinger Suite 2021-1.
 41 43  0  0  1  0            999 V2000
   14.4333   -3.7630   16.9850 Cl  0  0  0  0  0  0
   13.0924   -2.7543   17.3870 C   0  0  0  0  0  0
   12.8185   -1.6290   16.6139 C   0  0  0  0  0  0
   11.7587   -0.7938   16.9543 C   0  0  0  0  0  0
   10.9647   -1.0886   18.0736 C   0  0  0  0  0  0
    9.8595   -0.3168   18.4803 N   0  0  0  0  0  0
    9.5746    0.9712   18.1850 C   0  0  0  0  0  0
   10.3186    1.7247   17.5563 O   0  0  0  0  0  0
    8.2572    1.5265   18.7345 C   0  0  0  0  0  0
    7.0760    1.1723   17.8430 C   0  0  0  0  0  0
    6.4464    2.0810   17.1818 N   0  0  0  0  0  0
    5.3482    1.7232   16.4458 C   0  0  0  0  0  0
    4.9332    0.4403   16.3548 C   0  0  0  0  0  0
    5.5381   -0.5630   17.1666 C   0  0  0  0  0  0
    5.0310   -1.6584   17.3850 O   0  0  0  0  0  0
    6.6557   -0.1306   17.7850 N   0  0  0  0  0  0
    4.6650    2.7367   15.8133 N   0  0  0  0  0  0
    5.2328    4.0362   15.3850 C   0  0  0  0  0  0
    4.4021    5.1983   15.9174 C   0  0  0  0  0  0
    3.0310    5.0126   15.6397 O   0  0  0  0  0  0
    2.5353    3.8370   16.2749 C   0  0  0  0  0  0
    3.2108    2.6531   15.5963 C   0  0  0  0  0  0
   11.2365   -2.2322   18.8294 C   0  0  0  0  0  0
   12.3016   -3.0625   18.4908 C   0  0  0  0  0  0
   13.4310   -1.3964   15.7572 H   0  0  0  0  0  0
   11.5669    0.0672   16.3341 H   0  0  0  0  0  0
    9.2273   -0.7951   19.1130 H   0  0  0  0  0  0
    8.0920    1.1521   19.7456 H   0  0  0  0  0  0
    8.3479    2.6081   18.8452 H   0  0  0  0  0  0
    4.0721    0.1486   15.7850 H   0  0  0  0  0  0
    7.0311   -0.7818   18.4606 H   0  0  0  0  0  0
    6.2310    4.1458   15.8104 H   0  0  0  0  0  0
    5.4813    4.1212   14.3332 H   0  0  0  0  0  0
    4.7590    6.1596   15.5481 H   0  0  0  0  0  0
    4.5198    5.2035   16.9850 H   0  0  0  0  0  0
    1.4527    3.7798   16.1850 H   0  0  0  0  0  0
    2.7214    3.8370   17.3519 H   0  0  0  0  0  0
    2.9071    2.3885   14.5850 H   0  0  0  0  0  0
    2.8126    1.7953   16.1376 H   0  0  0  0  0  0
   10.6310   -2.4805   19.6902 H   0  0  0  0  0  0
   12.5135   -3.9375   19.0879 H   0  0  0  0  0  0
  1  2  1  0  0  0
  2  3  2  0  0  0
  2 24  1  0  0  0
  3  4  1  0  0  0
  3 25  1  0  0  0
  4  5  2  0  0  0
  4 26  1  0  0  0
  5  6  1  0  0  0
  5 23  1  0  0  0
  6  7  1  0  0  0
  6 27  1  0  0  0
  7  8  2  0  0  0
  7  9  1  0  0  0
  9 10  1  0  0  0
  9 28  1  0  0  0
  9 29  1  0  0  0
 10 11  2  0  0  0
 10 16  1  0  0  0
 11 12  1  0  0  0
 12 13  2  0  0  0
 12 17  1  0  0  0
 13 14  1  0  0  0
 13 30  1  0  0  0
 14 15  2  0  0  0
 14 16  1  0  0  0
 16 31  1  0  0  0
 17 18  1  0  0  0
 17 22  1  0  0  0
 18 19  1  0  0  0
 18 32  1  0  0  0
 18 33  1  0  0  0
 19 20  1  0  0  0
 19 34  1  0  0  0
 19 35  1  0  0  0
 20 21  1  0  0  0
 21 22  1  0  0  0
 21 36  1  0  0  0
 21 37  1  0  0  0
 22 38  1  0  0  0
 22 39  1  0  0  0
 23 24  2  0  0  0
 23 40  1  0  0  0
 24 41  1  0  0  0
M  END
> <s_m_entry_id>
2303

> <s_m_entry_name>
dock_pv.42

> <s_m_Source_Path>
/home/csk/Desktop/cluster/DUD-E-result/akt1

> <s_m_Source_File>
dock_pv.maegz

> <i_m_Source_File_Index>
42

> <chembl_id>
CHEMBL2151920

> <chembl_pref_name>
None

> <i_lp_mmshare_version>
53161

> <i_f3d_flags>
0

> <r_lp_tautomer_probability>
0.994036381586735

> <s_lp_Force_Field>
OPLS_2005

> <r_lp_Energy>
32.42917

> <b_lp_Chiralities_Consistent>
1

> <s_lp_Variant>
CHEMBL4282_lig2146-1

> <s_i_glide_gridfile>
glide-grid_3cqw

> <i_i_glide_lignum>
2876

> <i_i_glide_rotatable_bonds>
5

> <r_i_docking_score>
-7.60663306203987

> <r_i_glide_ligand_efficiency>
-0.316943044251661

> <r_i_glide_ligand_efficiency_sa>
-0.914221937799278

> <r_i_glide_ligand_efficiency_ln>
-1.82061633739324

> <r_i_glide_gscore>
-7.60663306203987

> <r_i_glide_lipo>
-2.04402535742613

> <r_i_glide_hbond>
-0.467163157980334

> <r_i_glide_metal>
0

> <r_i_glide_rewards>
-1.93905743079787

> <r_i_glide_evdw>
-31.0559768676758

> <r_i_glide_ecoul>
-13.287561416626

> <r_i_glide_erotb>
0.626083735982248

> <r_i_glide_esite>
-0.236537795940092

> <r_i_glide_emodel>
-61.5801291933278

> <r_i_glide_energy>
-44.3435382843018

> <r_i_glide_einternal>
1.98705744743347

> <i_i_glide_confnum>
17

> <i_i_glide_posenum>
264

> <r_i_glide_eff_state_penalty>
0

> <s_user_duplicate_titles>
CHEMBL4282_lig2146

> <s_m_subgroup_title>
dock_pv

> <s_m_subgroupid>
dock_pv

> <b_m_subgroup_collapsed>
1

$$$$
CHEMBL4282_lig3094
                    3D
 Schrodinger Suite 2021-1.
 34 37  0  0  1  0            999 V2000
    6.9851    2.7747   17.0651 C   0  0  0  0  0  0
    6.9256    4.0913   16.5911 C   0  0  0  0  0  0
    5.7482    4.6376   16.0920 C   0  0  0  0  0  0
    5.8553    1.9487   16.9660 C   0  0  0  0  0  0
    4.6609    2.4757   16.4477 C   0  0  0  0  0  0
    4.5973    3.8451   16.0541 C   0  0  0  0  0  0
    3.3393    4.2315   15.6881 N   0  0  0  0  0  0
    2.6354    3.0919   15.7851 N   0  0  0  0  0  0
    3.3530    1.9915   16.1841 C   0  0  0  0  0  0
    8.2530    2.2390   17.6641 C   0  0  0  0  0  0
    8.4686    1.0235   18.3106 C   0  0  0  0  0  0
    9.8072    0.9998   18.5974 N   0  0  0  0  0  0
   10.3978    2.1207   18.1770 N   0  0  0  0  0  0
    9.4052    2.8916   17.6001 N   0  0  0  0  0  0
   10.5946   -0.0866   19.1703 C   0  0  0  0  0  0
   11.2392   -1.0116   18.1350 C   0  0  0  0  0  0
   12.0566   -0.4882   17.1258 C   0  0  0  0  0  0
   12.6296   -1.3371   16.1849 C   0  0  0  0  0  0
   12.4013   -2.7099   16.2575 C   0  0  0  0  0  0
   11.6077   -3.2428   17.2713 C   0  0  0  0  0  0
   11.0288   -2.3923   18.2095 C   0  0  0  0  0  0
    7.8009    4.7219   16.6496 H   0  0  0  0  0  0
    5.7166    5.6717   15.7846 H   0  0  0  0  0  0
    5.8960    0.9227   17.2974 H   0  0  0  0  0  0
    1.6504    3.0689   15.5343 H   0  0  0  0  0  0
    2.8726    1.0313   16.2887 H   0  0  0  0  0  0
    7.8281    0.1947   18.5761 H   0  0  0  0  0  0
    9.9370   -0.6457   19.8393 H   0  0  0  0  0  0
   11.3727    0.3489   19.7994 H   0  0  0  0  0  0
   12.2466    0.5743   17.0643 H   0  0  0  0  0  0
   13.2420   -0.9309   15.3935 H   0  0  0  0  0  0
   12.8451   -3.3662   15.5230 H   0  0  0  0  0  0
   11.4394   -4.3086   17.3286 H   0  0  0  0  0  0
   10.4062   -2.8074   18.9911 H   0  0  0  0  0  0
  1  2  1  0  0  0
  1 10  1  0  0  0
  1  4  2  0  0  0
  2  3  2  0  0  0
  2 22  1  0  0  0
  3  6  1  0  0  0
  3 23  1  0  0  0
  4 24  1  0  0  0
  4  5  1  0  0  0
  5  6  1  0  0  0
  5  9  2  0  0  0
  6  7  2  0  0  0
  7  8  1  0  0  0
  8 25  1  0  0  0
  8  9  1  0  0  0
  9 26  1  0  0  0
 10 11  2  0  0  0
 10 14  1  0  0  0
 11 12  1  0  0  0
 11 27  1  0  0  0
 12 13  1  0  0  0
 12 15  1  0  0  0
 13 14  2  0  0  0
 15 16  1  0  0  0
 15 28  1  0  0  0
 15 29  1  0  0  0
 16 17  2  0  0  0
 16 21  1  0  0  0
 17 18  1  0  0  0
 17 30  1  0  0  0
 18 19  2  0  0  0
 18 31  1  0  0  0
 19 20  1  0  0  0
 19 32  1  0  0  0
 20 21  2  0  0  0
 20 33  1  0  0  0
 21 34  1  0  0  0
M  END
> <s_m_entry_id>
2304

> <s_m_entry_name>
dock_pv.43

> <s_m_Source_Path>
/home/csk/Desktop/cluster/DUD-E-result/akt1

> <s_m_Source_File>
dock_pv.maegz

> <i_m_Source_File_Index>
43

> <chembl_id>
CHEMBL1682345

> <chembl_pref_name>
None

> <i_lp_mmshare_version>
53161

> <i_f3d_flags>
0

> <r_lp_tautomer_probability>
0.0196078431372549

> <s_lp_Force_Field>
OPLS_2005

> <r_lp_Energy>
26.479724

> <b_lp_Chiralities_Consistent>
1

> <s_lp_Variant>
CHEMBL4282_lig3094-2

> <s_i_glide_gridfile>
glide-grid_3cqw

> <i_i_glide_lignum>
4013

> <i_i_glide_rotatable_bonds>
3

> <r_i_docking_score>
-7.60649361590733

> <r_i_glide_ligand_efficiency>
-0.362213981709873

> <r_i_glide_ligand_efficiency_sa>
-0.999320910148486

> <r_i_glide_ligand_efficiency_ln>
-1.88069017616549

> <r_i_glide_gscore>
-7.60649361590733

> <r_i_glide_lipo>
-2.49317242920782

> <r_i_glide_hbond>
-0.458524699241915

> <r_i_glide_metal>
0

> <r_i_glide_rewards>
-2.54365812121212

> <r_i_glide_evdw>
-36.869987487793

> <r_i_glide_ecoul>
-4.80945062637329

> <r_i_glide_erotb>
0.497942212361944

> <r_i_glide_esite>
-0.0441636102617752

> <r_i_glide_emodel>
-60.0152110329808

> <r_i_glide_energy>
-41.6794381141663

> <r_i_glide_einternal>
1.46919894218445

> <i_i_glide_confnum>
5

> <i_i_glide_posenum>
161

> <r_i_glide_eff_state_penalty>
0

> <s_user_duplicate_titles>
CHEMBL4282_lig3094

> <s_m_subgroup_title>
dock_pv

> <s_m_subgroupid>
dock_pv

> <b_m_subgroup_collapsed>
1

$$$$
CHEMBL4282_lig1372
                    3D
 Schrodinger Suite 2021-1.
 41 43  0  0  1  0            999 V2000
    8.9109    2.3635   18.1381 C   0  0  0  0  0  0
    8.8153    3.4712   17.2791 C   0  0  0  0  0  0
    7.5973    3.8060   16.6921 C   0  0  0  0  0  0
    6.4608    3.0310   16.9438 C   0  0  0  0  0  0
    6.5581    1.9200   17.7847 C   0  0  0  0  0  0
    7.7699    1.5935   18.3793 C   0  0  0  0  0  0
    5.1380    3.3872   16.3485 C   0  0  0  0  0  0
   10.2108    1.9788   18.8626 C   0  0  1  0  0  0
   10.8685    0.7489   18.2079 C   0  0  0  0  0  0
   11.8898    0.8682   17.2564 C   0  0  0  0  0  0
   12.4182   -0.2604   16.6326 C   0  0  0  0  0  0
   11.9427   -1.5239   16.9754 C   0  0  0  0  0  0
   10.9526   -1.6620   17.9464 C   0  0  0  0  0  0
   10.4202   -0.5286   18.5598 C   0  0  0  0  0  0
   12.5837   -2.9233   16.1914 Cl  0  0  0  0  0  0
   11.1128    3.1293   18.9729 N   0  0  2  0  0  0
   12.0618    3.0411   20.0767 C   0  0  0  0  0  0
    4.0251    2.5739   16.1850 C   0  0  0  0  0  0
    3.0303    3.3848   15.7169 N   0  0  0  0  0  0
    3.4361    4.6373   15.5036 N   0  0  0  0  0  0
    4.7016    4.6317   15.8549 C   0  0  0  0  0  0
   12.9692    4.2867   20.1084 C   0  0  0  0  0  0
   12.2310    5.4972   20.1851 O   0  0  0  0  0  0
    9.6785    4.0845   17.0662 H   0  0  0  0  0  0
    7.5427    4.6651   16.0409 H   0  0  0  0  0  0
    5.6900    1.3181   18.0060 H   0  0  0  0  0  0
    7.8085    0.7423   19.0439 H   0  0  0  0  0  0
    9.9281    1.7145   19.8853 H   0  0  0  0  0  0
   12.2684    1.8370   16.9846 H   0  0  0  0  0  0
   13.1883   -0.1532   15.8829 H   0  0  0  0  0  0
   10.5844   -2.6397   18.2217 H   0  0  0  0  0  0
    9.6441   -0.6457   19.3022 H   0  0  0  0  0  0
   10.5664    3.9693   19.1249 H   0  0  0  0  0  0
   11.5587    2.9274   21.0389 H   0  0  0  0  0  0
   12.6867    2.1559   19.9484 H   0  0  0  0  0  0
    3.8386    1.5336   16.4096 H   0  0  0  0  0  0
    2.0782    3.0939   15.5240 H   0  0  0  0  0  0
    5.2946    5.5315   15.8032 H   0  0  0  0  0  0
   13.6476    4.2328   20.9590 H   0  0  0  0  0  0
   13.5821    4.3196   19.2066 H   0  0  0  0  0  0
   11.5799    5.4364   20.9041 H   0  0  0  0  0  0
  1  2  2  0  0  0
  1  6  1  0  0  0
  1  8  1  0  0  0
  2  3  1  0  0  0
  2 24  1  0  0  0
  3  4  2  0  0  0
  3 25  1  0  0  0
  4  5  1  0  0  0
  4  7  1  0  0  0
  5  6  2  0  0  0
  5 26  1  0  0  0
  6 27  1  0  0  0
  7 18  2  0  0  0
  7 21  1  0  0  0
  8  9  1  0  0  0
  8 16  1  0  0  0
  8 28  1  0  0  0
  9 10  2  0  0  0
  9 14  1  0  0  0
 10 11  1  0  0  0
 10 29  1  0  0  0
 11 12  2  0  0  0
 11 30  1  0  0  0
 12 13  1  0  0  0
 12 15  1  0  0  0
 13 14  2  0  0  0
 13 31  1  0  0  0
 14 32  1  0  0  0
 16 17  1  0  0  0
 16 33  1  0  0  0
 17 22  1  0  0  0
 17 34  1  0  0  0
 17 35  1  0  0  0
 18 19  1  0  0  0
 18 36  1  0  0  0
 19 20  1  0  0  0
 19 37  1  0  0  0
 20 21  2  0  0  0
 21 38  1  0  0  0
 22 23  1  0  0  0
 22 39  1  0  0  0
 22 40  1  0  0  0
 23 41  1  0  0  0
M  END
> <s_m_entry_id>
2305

> <s_m_entry_name>
dock_pv.44

> <s_m_Source_Path>
/home/csk/Desktop/cluster/DUD-E-result/akt1

> <s_m_Source_File>
dock_pv.maegz

> <i_m_Source_File_Index>
44

> <chembl_id>
CHEMBL3113149

> <chembl_pref_name>
None

> <i_lp_mmshare_version>
53161

> <i_f3d_flags>
0

> <r_lp_tautomer_probability>
0.5

> <s_lp_Force_Field>
OPLS_2005

> <r_lp_Energy>
22.062851

> <b_lp_Chiralities_Consistent>
1

> <s_lp_Variant>
CHEMBL4282_lig1372-2

> <s_i_glide_gridfile>
glide-grid_3cqw

> <i_i_glide_lignum>
1900

> <i_i_glide_rotatable_bonds>
7

> <r_i_docking_score>
-7.5813852248283

> <r_i_glide_ligand_efficiency>
-0.329625444557752

> <r_i_glide_ligand_efficiency_sa>
-0.937410916516935

> <r_i_glide_ligand_efficiency_ln>
-1.83324769156398

> <r_i_glide_gscore>
-7.5813852248283

> <r_i_glide_lipo>
-2.2623802975738

> <r_i_glide_hbond>
-0.628311979306091

> <r_i_glide_metal>
0

> <r_i_glide_rewards>
-2.13570493939394

> <r_i_glide_evdw>
-40.1282119750977

> <r_i_glide_ecoul>
-8.54884338378906

> <r_i_glide_erotb>
0.733749097768772

> <r_i_glide_esite>
0

> <r_i_glide_emodel>
-71.1113037211561

> <r_i_glide_energy>
-48.6770553588867

> <r_i_glide_einternal>
2.81019592285156

> <i_i_glide_confnum>
27

> <i_i_glide_posenum>
62

> <r_i_glide_eff_state_penalty>
0

> <s_user_duplicate_titles>
CHEMBL4282_lig1372

> <s_m_subgroup_title>
dock_pv

> <s_m_subgroupid>
dock_pv

> <b_m_subgroup_collapsed>
1

$$$$
CHEMBL4282_lig959
                    3D
 Schrodinger Suite 2021-1.
 48 51  0  0  1  0            999 V2000
   12.8347    0.1632   17.8722 C   0  0  0  0  0  0
   12.0424   -0.0807   18.9981 C   0  0  0  0  0  0
   11.0347   -1.0465   18.9462 C   0  0  0  0  0  0
   10.8429   -1.7873   17.7831 C   0  0  0  0  0  0
   11.6458   -1.5508   16.6684 C   0  0  0  0  0  0
   12.6309   -0.5669   16.7038 C   0  0  0  0  0  0
   12.2873    0.7042   20.2873 C   0  0  0  0  0  0
   11.2448    1.8201   20.5711 C   0  0  1  0  0  0
   11.6765    2.6370   21.7208 N   0  0  0  0  0  0
   11.0787    2.7838   19.3539 C   0  0  0  0  0  0
    9.8779    2.9277   18.7197 N   0  0  0  0  0  0
   12.1043    3.3715   18.9851 O   0  0  0  0  0  0
    8.6251    2.3214   19.2153 C   0  0  0  0  0  0
    7.6305    2.1405   18.0425 C   0  0  0  0  0  0
    7.3789    3.3191   17.1887 N   0  0  0  0  0  0
    8.4094    4.3611   17.3258 C   0  0  0  0  0  0
    9.8307    3.8169   17.5418 C   0  0  0  0  0  0
    6.1371    3.5635   16.5941 C   0  0  0  0  0  0
    3.5822    4.3122   15.6342 N   0  0  0  0  0  0
    4.6342    5.1533   15.7664 C   0  0  0  0  0  0
    5.8816    4.8385   16.1850 N   0  0  0  0  0  0
   11.4310   -2.4905   15.2375 Cl  0  0  0  0  0  0
    5.0392    1.2371   16.5628 N   0  0  0  0  0  0
    3.7935    0.7974   16.1863 C   0  0  0  0  0  0
    3.0302    1.8735   15.7776 C   0  0  0  0  0  0
    3.8535    3.0310   15.9017 C   0  0  0  0  0  0
    5.1259    2.6062   16.3900 C   0  0  0  0  0  0
   13.6058    0.9201   17.9027 H   0  0  0  0  0  0
   10.4073   -1.2384   19.8062 H   0  0  0  0  0  0
   10.0765   -2.5474   17.7615 H   0  0  0  0  0  0
   13.2419   -0.3788   15.8333 H   0  0  0  0  0  0
   12.2964   -0.0093   21.1128 H   0  0  0  0  0  0
   13.2995    1.1137   20.2749 H   0  0  0  0  0  0
   10.3144    1.3359   20.8526 H   0  0  0  0  0  0
   12.5427    3.1119   21.5092 H   0  0  0  0  0  0
   11.0027    3.3866   21.8950 H   0  0  0  0  0  0
    8.7582    1.3135   19.6059 H   0  0  0  0  0  0
    8.1636    2.9710   19.9616 H   0  0  0  0  0  0
    6.6986    1.7487   18.4502 H   0  0  0  0  0  0
    8.0517    1.3818   17.3852 H   0  0  0  0  0  0
    8.1416    4.9405   18.2120 H   0  0  0  0  0  0
    8.4094    5.0352   16.4690 H   0  0  0  0  0  0
   10.4734    4.6872   17.6904 H   0  0  0  0  0  0
   10.1619    3.2779   16.6536 H   0  0  0  0  0  0
    4.4619    6.1904   15.5174 H   0  0  0  0  0  0
    5.7574    0.6173   16.9109 H   0  0  0  0  0  0
    3.5468   -0.2539   16.2530 H   0  0  0  0  0  0
    2.0059    1.8389   15.4345 H   0  0  0  0  0  0
  1  2  2  0  0  0
  1  6  1  0  0  0
  1 28  1  0  0  0
  2  7  1  0  0  0
  2  3  1  0  0  0
  3  4  2  0  0  0
  3 29  1  0  0  0
  4  5  1  0  0  0
  4 30  1  0  0  0
  5 22  1  0  0  0
  5  6  2  0  0  0
  6 31  1  0  0  0
  7  8  1  0  0  0
  7 32  1  0  0  0
  7 33  1  0  0  0
  8  9  1  0  0  0
  8 10  1  0  0  0
  8 34  1  0  0  0
  9 35  1  0  0  0
  9 36  1  0  0  0
 10 11  1  0  0  0
 10 12  2  0  0  0
 11 17  1  0  0  0
 11 13  1  0  0  0
 13 14  1  0  0  0
 13 37  1  0  0  0
 13 38  1  0  0  0
 14 15  1  0  0  0
 14 39  1  0  0  0
 14 40  1  0  0  0
 15 16  1  0  0  0
 15 18  1  0  0  0
 16 17  1  0  0  0
 16 41  1  0  0  0
 16 42  1  0  0  0
 17 43  1  0  0  0
 17 44  1  0  0  0
 18 27  1  0  0  0
 18 21  2  0  0  0
 19 26  1  0  0  0
 19 20  2  0  0  0
 20 21  1  0  0  0
 20 45  1  0  0  0
 23 24  1  0  0  0
 23 27  1  0  0  0
 23 46  1  0  0  0
 24 25  2  0  0  0
 24 47  1  0  0  0
 25 26  1  0  0  0
 25 48  1  0  0  0
 26 27  2  0  0  0
M  END
> <s_m_entry_id>
2306

> <s_m_entry_name>
dock_pv.45

> <s_m_Source_Path>
/home/csk/Desktop/cluster/DUD-E-result/akt1

> <s_m_Source_File>
dock_pv.maegz

> <i_m_Source_File_Index>
45

> <chembl_id>
CHEMBL1258216

> <chembl_pref_name>
None

> <i_lp_mmshare_version>
53161

> <i_f3d_flags>
0

> <r_lp_tautomer_probability>
0.999994916353044

> <s_lp_Force_Field>
OPLS_2005

> <r_lp_Energy>
40.675132

> <b_lp_Chiralities_Consistent>
1

> <s_lp_Variant>
CHEMBL4282_lig959-1

> <s_i_glide_gridfile>
glide-grid_3cqw

> <i_i_glide_lignum>
1355

> <i_i_glide_rotatable_bonds>
5

> <r_i_docking_score>
-7.56994840774427

> <r_i_glide_ligand_efficiency>
-0.280368459546084

> <r_i_glide_ligand_efficiency_sa>
-0.841105377714203

> <r_i_glide_ligand_efficiency_ln>
-1.76215918896969

> <r_i_glide_gscore>
-7.56994840774427

> <r_i_glide_lipo>
-2.59028261780274

> <r_i_glide_hbond>
-0.216999934633434

> <r_i_glide_metal>
0

> <r_i_glide_rewards>
-2.13862090753699

> <r_i_glide_evdw>
-46.0254516601562

> <r_i_glide_ecoul>
-4.96342134475708

> <r_i_glide_erotb>
0.525172777857453

> <r_i_glide_esite>
-0.103431940907184

> <r_i_glide_emodel>
-72.8993878082211

> <r_i_glide_energy>
-50.9888730049133

> <r_i_glide_einternal>
3.2960000038147

> <i_i_glide_confnum>
87

> <i_i_glide_posenum>
271

> <r_i_glide_eff_state_penalty>
0

> <s_user_duplicate_titles>
CHEMBL4282_lig959

> <s_m_subgroup_title>
dock_pv

> <s_m_subgroupid>
dock_pv

> <b_m_subgroup_collapsed>
1

$$$$
CHEMBL4282_lig3743
                    3D
 Schrodinger Suite 2021-1.
 45 47  0  0  1  0            999 V2000
   10.2969    3.5581   18.3195 F   0  0  0  0  0  0
   11.5096    1.2974   19.0675 O   0  0  0  0  0  0
   10.6311   -1.3022   22.1896 O   0  0  0  0  0  0
   10.2708   -0.5625   19.3802 N   0  0  0  0  0  0
    3.4284    4.6376   15.6121 N   0  0  0  0  0  0
    9.1959    1.4155   18.4372 C   0  0  0  0  0  0
    6.9259    2.6607   17.2262 C   0  0  0  0  0  0
    9.2099    2.7801   18.1011 C   0  0  0  0  0  0
   10.4208    0.7253   19.0136 C   0  0  0  0  0  0
    8.0974    3.3809   17.5124 C   0  0  0  0  0  0
    5.7324    3.3144   16.5864 C   0  0  0  0  0  0
    8.0158    0.6992   18.1847 C   0  0  0  0  0  0
    6.9115    1.3075   17.5947 C   0  0  0  0  0  0
   11.3135   -1.4931   19.8500 C   0  0  1  0  0  0
    4.4704    2.6924   16.5803 C   0  0  0  0  0  0
    5.8045    4.6038   16.0252 C   0  0  0  0  0  0
   12.5359   -1.6223   18.9024 C   0  0  0  0  0  0
   12.1737   -2.2253   17.5531 C   0  0  0  0  0  0
    3.3572    3.3767   16.0961 C   0  0  0  0  0  0
    4.6417    5.2278   15.5750 C   0  0  0  0  0  0
   11.7446   -1.2683   21.3192 C   0  0  0  0  0  0
   12.1290   -3.6135   17.4104 C   0  0  0  0  0  0
   11.8502   -1.3955   16.4790 C   0  0  0  0  0  0
   11.7604   -4.1728   16.1929 C   0  0  0  0  0  0
   11.4670   -1.9564   15.2675 C   0  0  0  0  0  0
   11.4315   -3.3396   15.1287 C   0  0  0  0  0  0
   10.2038   -2.1620   22.1171 H   0  0  0  0  0  0
    9.3236   -0.9171   19.4520 H   0  0  0  0  0  0
    8.1719    4.4342   17.2939 H   0  0  0  0  0  0
    7.9270   -0.3482   18.4334 H   0  0  0  0  0  0
    6.0502    0.6834   17.4195 H   0  0  0  0  0  0
   10.8224   -2.4693   19.8310 H   0  0  0  0  0  0
    4.3124    1.7051   16.9834 H   0  0  0  0  0  0
    6.7336    5.1468   15.9647 H   0  0  0  0  0  0
   13.2966   -2.2571   19.3605 H   0  0  0  0  0  0
   13.0343   -0.6623   18.7580 H   0  0  0  0  0  0
    2.3752    2.9232   16.1035 H   0  0  0  0  0  0
    4.6614    6.2356   15.1864 H   0  0  0  0  0  0
   12.4197   -2.0624   21.6413 H   0  0  0  0  0  0
   12.2572   -0.3129   21.4335 H   0  0  0  0  0  0
   12.3668   -4.2553   18.2459 H   0  0  0  0  0  0
   11.8778   -0.3191   16.5889 H   0  0  0  0  0  0
   11.7135   -5.2466   16.0770 H   0  0  0  0  0  0
   11.2011   -1.3311   14.4297 H   0  0  0  0  0  0
   11.1292   -3.7628   14.1851 H   0  0  0  0  0  0
  1  8  1  0  0  0
  2  9  2  0  0  0
  3 21  1  0  0  0
  3 27  1  0  0  0
  4  9  1  0  0  0
  4 14  1  0  0  0
  4 28  1  0  0  0
  5 19  2  0  0  0
  5 20  1  0  0  0
  6  8  1  0  0  0
  6  9  1  0  0  0
  6 12  2  0  0  0
  7 10  1  0  0  0
  7 11  1  0  0  0
  7 13  2  0  0  0
  8 10  2  0  0  0
 10 29  1  0  0  0
 11 15  2  0  0  0
 11 16  1  0  0  0
 12 13  1  0  0  0
 12 30  1  0  0  0
 13 31  1  0  0  0
 14 17  1  0  0  0
 14 21  1  0  0  0
 14 32  1  0  0  0
 15 19  1  0  0  0
 15 33  1  0  0  0
 16 20  2  0  0  0
 16 34  1  0  0  0
 17 18  1  0  0  0
 17 35  1  0  0  0
 17 36  1  0  0  0
 18 22  2  0  0  0
 18 23  1  0  0  0
 19 37  1  0  0  0
 20 38  1  0  0  0
 21 39  1  0  0  0
 21 40  1  0  0  0
 22 24  1  0  0  0
 22 41  1  0  0  0
 23 25  2  0  0  0
 23 42  1  0  0  0
 24 26  2  0  0  0
 24 43  1  0  0  0
 25 26  1  0  0  0
 25 44  1  0  0  0
 26 45  1  0  0  0
M  END
> <s_m_entry_id>
2307

> <s_m_entry_name>
dock_pv.46

> <s_m_Source_Path>
/home/csk/Desktop/cluster/DUD-E-result/akt1

> <s_m_Source_File>
dock_pv.maegz

> <i_m_Source_File_Index>
46

> <chembl_id>
CHEMBL1969755

> <chembl_pref_name>
None

> <i_lp_mmshare_version>
53161

> <i_f3d_flags>
0

> <r_lp_tautomer_probability>
1

> <s_lp_Force_Field>
OPLS_2005

> <r_lp_Energy>
19.220758

> <b_lp_Chiralities_Consistent>
1

> <s_lp_Variant>
CHEMBL4282_lig3743-2

> <s_i_glide_gridfile>
glide-grid_3cqw

> <i_i_glide_lignum>
5018

> <i_i_glide_rotatable_bonds>
8

> <r_i_docking_score>
-7.56174548315269

> <r_i_glide_ligand_efficiency>
-0.290836364736642

> <r_i_glide_ligand_efficiency_sa>
-0.861601586146466

> <r_i_glide_ligand_efficiency_ln>
-1.77585111460771

> <r_i_glide_gscore>
-7.56174548315269

> <r_i_glide_lipo>
-2.94364023877727

> <r_i_glide_hbond>
-0.560932805483077

> <r_i_glide_metal>
0

> <r_i_glide_rewards>
-2.03675626538353

> <r_i_glide_evdw>
-39.5390243530273

> <r_i_glide_ecoul>
-5.60412216186523

> <r_i_glide_erotb>
0.931505338256756

> <r_i_glide_esite>
-0.13435196983441

> <r_i_glide_emodel>
-64.7865819898599

> <r_i_glide_energy>
-45.1431465148926

> <r_i_glide_einternal>
3.13157606124878

> <i_i_glide_confnum>
33

> <i_i_glide_posenum>
134

> <r_i_glide_eff_state_penalty>
0

> <s_user_duplicate_titles>
CHEMBL4282_lig3743

> <s_m_subgroup_title>
dock_pv

> <s_m_subgroupid>
dock_pv

> <b_m_subgroup_collapsed>
1

$$$$
CHEMBL4282_lig3324
                    3D
 Schrodinger Suite 2021-1.
 34 37  0  0  1  0            999 V2000
    6.9610    2.7895   17.0722 C   0  0  0  0  0  0
    6.9587    4.1006   16.5873 C   0  0  0  0  0  0
    5.8020    4.6815   16.0793 C   0  0  0  0  0  0
    5.8106    1.9958   16.9718 C   0  0  0  0  0  0
    4.6374    2.5612   16.4451 C   0  0  0  0  0  0
    4.6231    3.9283   16.0409 C   0  0  0  0  0  0
    3.3782    4.3539   15.6710 N   0  0  0  0  0  0
    2.6319    3.2424   15.7843 N   0  0  0  0  0  0
    3.3140    2.1210   16.1849 C   0  0  0  0  0  0
    8.1907    2.2210   17.6961 C   0  0  0  0  0  0
    8.4804    1.0366   18.3395 C   0  0  0  0  0  0
    9.8498    1.0673   18.5900 C   0  0  0  0  0  0
   10.3789    2.2031   18.1849 N   0  0  0  0  0  0
    9.3434    2.9336   17.6019 O   0  0  0  0  0  0
   10.7161   -0.0109   19.2095 C   0  0  0  0  0  0
   11.3013   -0.9615   18.1691 C   0  0  0  0  0  0
   12.1122   -0.4663   17.1439 C   0  0  0  0  0  0
   12.6288   -1.3338   16.1844 C   0  0  0  0  0  0
   12.3439   -2.6961   16.2548 C   0  0  0  0  0  0
   11.5476   -3.1995   17.2808 C   0  0  0  0  0  0
   11.0310   -2.3321   18.2403 C   0  0  0  0  0  0
    7.8551    4.7023   16.6594 H   0  0  0  0  0  0
    5.8052    5.7189   15.7823 H   0  0  0  0  0  0
    5.8165    0.9732   17.3181 H   0  0  0  0  0  0
    1.6480    3.2515   15.5301 H   0  0  0  0  0  0
    2.8024    1.1784   16.2974 H   0  0  0  0  0  0
    7.8007    0.2315   18.5831 H   0  0  0  0  0  0
   10.1563   -0.5590   19.9716 H   0  0  0  0  0  0
   11.5582    0.4534   19.7275 H   0  0  0  0  0  0
   12.3352    0.5894   17.0828 H   0  0  0  0  0  0
   13.2460   -0.9513   15.3854 H   0  0  0  0  0  0
   12.7466   -3.3662   15.5082 H   0  0  0  0  0  0
   11.3330   -4.2583   17.3345 H   0  0  0  0  0  0
   10.4069   -2.7245   19.0327 H   0  0  0  0  0  0
  1  2  1  0  0  0
  1 10  1  0  0  0
  1  4  2  0  0  0
  2  3  2  0  0  0
  2 22  1  0  0  0
  3  6  1  0  0  0
  3 23  1  0  0  0
  4 24  1  0  0  0
  4  5  1  0  0  0
  5  6  1  0  0  0
  5  9  2  0  0  0
  6  7  2  0  0  0
  7  8  1  0  0  0
  8 25  1  0  0  0
  8  9  1  0  0  0
  9 26  1  0  0  0
 10 11  2  0  0  0
 10 14  1  0  0  0
 11 12  1  0  0  0
 11 27  1  0  0  0
 12 13  2  0  0  0
 12 15  1  0  0  0
 13 14  1  0  0  0
 15 16  1  0  0  0
 15 28  1  0  0  0
 15 29  1  0  0  0
 16 17  2  0  0  0
 16 21  1  0  0  0
 17 18  1  0  0  0
 17 30  1  0  0  0
 18 19  2  0  0  0
 18 31  1  0  0  0
 19 20  1  0  0  0
 19 32  1  0  0  0
 20 21  2  0  0  0
 20 33  1  0  0  0
 21 34  1  0  0  0
M  END
> <s_m_entry_id>
2308

> <s_m_entry_name>
dock_pv.47

> <s_m_Source_Path>
/home/csk/Desktop/cluster/DUD-E-result/akt1

> <s_m_Source_File>
dock_pv.maegz

> <i_m_Source_File_Index>
47

> <chembl_id>
CHEMBL1682357

> <chembl_pref_name>
None

> <i_lp_mmshare_version>
53161

> <i_f3d_flags>
0

> <r_lp_tautomer_probability>
0.0196078431372549

> <s_lp_Force_Field>
OPLS_2005

> <r_lp_Energy>
23.451076

> <b_lp_Chiralities_Consistent>
1

> <s_lp_Variant>
CHEMBL4282_lig3324-2

> <s_i_glide_gridfile>
glide-grid_3cqw

> <i_i_glide_lignum>
4366

> <i_i_glide_rotatable_bonds>
3

> <r_i_docking_score>
-7.5362471596969

> <r_i_glide_ligand_efficiency>
-0.358868912366519

> <r_i_glide_ligand_efficiency_sa>
-0.990092117474801

> <r_i_glide_ligand_efficiency_ln>
-1.86332188181379

> <r_i_glide_gscore>
-7.5362471596969

> <r_i_glide_lipo>
-2.4819091940368

> <r_i_glide_hbond>
-0.497777239244944

> <r_i_glide_metal>
0

> <r_i_glide_rewards>
-2.53534728787879

> <r_i_glide_evdw>
-35.6102333068848

> <r_i_glide_ecoul>
-4.82268714904785

> <r_i_glide_erotb>
0.497952559444257

> <r_i_glide_esite>
-0.0152512602792074

> <r_i_glide_emodel>
-57.8223698225373

> <r_i_glide_energy>
-40.4329204559326

> <r_i_glide_einternal>
1.07730054855347

> <i_i_glide_confnum>
12

> <i_i_glide_posenum>
162

> <r_i_glide_eff_state_penalty>
0

> <s_user_duplicate_titles>
CHEMBL4282_lig3324

> <s_m_subgroup_title>
dock_pv

> <s_m_subgroupid>
dock_pv

> <b_m_subgroup_collapsed>
1

$$$$
CHEMBL4282_lig2331
                    3D
 Schrodinger Suite 2021-1.
 51 54  0  0  1  0            999 V2000
    4.5689    6.0863   15.6551 C   0  0  0  0  0  0
    4.0948    4.7907   16.2758 C   0  0  2  0  0  0
    4.8897    3.6222   15.6600 C   0  0  0  0  0  0
    4.3507    2.3249   16.0929 N   0  0  0  0  0  0
    2.8896    2.2726   15.9064 C   0  0  0  0  0  0
    2.2161    3.4541   16.6258 C   0  0  0  0  0  0
    2.7133    4.6311   15.9996 O   0  0  0  0  0  0
    5.1060    1.3059   16.6373 C   0  0  0  0  0  0
    4.7000    0.0149   16.6271 C   0  0  0  0  0  0
    5.4310   -0.9630   17.3850 C   0  0  0  0  0  0
    4.9828   -2.0535   17.7152 O   0  0  0  0  0  0
    6.6323   -0.5096   17.7850 N   0  0  0  0  0  0
    7.0312    0.7948   17.7850 C   0  0  0  0  0  0
    6.2911    1.6813   17.2176 N   0  0  0  0  0  0
    8.3208    1.1825   18.5138 C   0  0  0  0  0  0
    9.6119    0.5230   17.9599 C   0  0  0  0  0  0
    9.5089   -0.5630   17.3850 O   0  0  0  0  0  0
   10.8457    1.0777   18.1427 N   0  0  0  0  0  0
   12.0430    0.2159   18.0117 C   0  0  1  0  0  0
   12.4734    0.0707   16.5334 C   0  0  0  0  0  0
   13.1002    0.9118   18.8698 C   0  0  0  0  0  0
   12.5843    2.3102   18.9858 C   0  0  0  0  0  0
   13.2236    3.4475   19.4801 C   0  0  0  0  0  0
   12.5517    4.6686   19.4773 C   0  0  0  0  0  0
   11.2522    4.7488   18.9850 C   0  0  0  0  0  0
   10.5916    3.5983   18.5608 C   0  0  0  0  0  0
   11.2376    2.3524   18.6140 C   0  0  0  0  0  0
    5.5756    6.3158   15.9923 H   0  0  0  0  0  0
    4.6310    5.9478   14.5850 H   0  0  0  0  0  0
    3.8918    6.9152   15.8673 H   0  0  0  0  0  0
    4.2310    4.8532   17.3510 H   0  0  0  0  0  0
    5.9189    3.7360   15.9998 H   0  0  0  0  0  0
    5.0320    3.6575   14.5856 H   0  0  0  0  0  0
    2.5672    2.0489   14.8893 H   0  0  0  0  0  0
    2.5245    1.4024   16.4385 H   0  0  0  0  0  0
    1.1286    3.4004   16.5850 H   0  0  0  0  0  0
    2.4349    3.4377   17.6954 H   0  0  0  0  0  0
    3.7722   -0.2973   16.1845 H   0  0  0  0  0  0
    7.1392   -1.1297   18.4052 H   0  0  0  0  0  0
    8.2350    0.8891   19.5594 H   0  0  0  0  0  0
    8.3719    2.2581   18.5344 H   0  0  0  0  0  0
   11.8737   -0.7842   18.4175 H   0  0  0  0  0  0
   13.4117   -0.4783   16.4588 H   0  0  0  0  0  0
   11.7412   -0.4873   15.9506 H   0  0  0  0  0  0
   12.6310    1.0370   16.0596 H   0  0  0  0  0  0
   14.1107    0.8174   18.4700 H   0  0  0  0  0  0
   13.1255    0.4585   19.8618 H   0  0  0  0  0  0
   14.2412    3.4037   19.8397 H   0  0  0  0  0  0
   13.0310    5.5622   19.8462 H   0  0  0  0  0  0
   10.7486    5.7040   18.9508 H   0  0  0  0  0  0
    9.6132    3.7473   18.1416 H   0  0  0  0  0  0
  1  2  1  0  0  0
  1 28  1  0  0  0
  1 29  1  0  0  0
  1 30  1  0  0  0
  2  3  1  0  0  0
  2  7  1  0  0  0
  2 31  1  0  0  0
  3  4  1  0  0  0
  3 32  1  0  0  0
  3 33  1  0  0  0
  4  5  1  0  0  0
  4  8  1  0  0  0
  5  6  1  0  0  0
  5 34  1  0  0  0
  5 35  1  0  0  0
  6  7  1  0  0  0
  6 36  1  0  0  0
  6 37  1  0  0  0
  8  9  2  0  0  0
  8 14  1  0  0  0
  9 10  1  0  0  0
  9 38  1  0  0  0
 10 11  2  0  0  0
 10 12  1  0  0  0
 12 13  1  0  0  0
 12 39  1  0  0  0
 13 14  2  0  0  0
 13 15  1  0  0  0
 15 16  1  0  0  0
 15 40  1  0  0  0
 15 41  1  0  0  0
 16 17  2  0  0  0
 16 18  1  0  0  0
 18 19  1  0  0  0
 18 27  1  0  0  0
 19 20  1  0  0  0
 19 21  1  0  0  0
 19 42  1  0  0  0
 20 43  1  0  0  0
 20 44  1  0  0  0
 20 45  1  0  0  0
 21 22  1  0  0  0
 21 46  1  0  0  0
 21 47  1  0  0  0
 22 23  2  0  0  0
 22 27  1  0  0  0
 23 24  1  0  0  0
 23 48  1  0  0  0
 24 25  2  0  0  0
 24 49  1  0  0  0
 25 26  1  0  0  0
 25 50  1  0  0  0
 26 27  2  0  0  0
 26 51  1  0  0  0
M  END
> <s_m_entry_id>
2309

> <s_m_entry_name>
dock_pv.48

> <s_m_Source_Path>
/home/csk/Desktop/cluster/DUD-E-result/akt1

> <s_m_Source_File>
dock_pv.maegz

> <i_m_Source_File_Index>
48

> <chembl_id>
CHEMBL3908338

> <chembl_pref_name>
None

> <i_lp_mmshare_version>
53161

> <i_f3d_flags>
0

> <r_lp_tautomer_probability>
0.994036381586735

> <s_lp_Force_Field>
OPLS_2005

> <r_lp_Energy>
54.105452

> <b_lp_Chiralities_Consistent>
1

> <s_lp_Variant>
CHEMBL4282_lig2331-1

> <s_i_glide_gridfile>
glide-grid_3cqw

> <i_i_glide_lignum>
3104

> <i_i_glide_rotatable_bonds>
4

> <r_i_docking_score>
-7.53127921122795

> <r_i_glide_ligand_efficiency>
-0.278936267082517

> <r_i_glide_ligand_efficiency_sa>
-0.836808800328221

> <r_i_glide_ligand_efficiency_ln>
-1.75315763753222

> <r_i_glide_gscore>
-7.53127921122795

> <r_i_glide_lipo>
-2.31588848061423

> <r_i_glide_hbond>
-0.650177283831577

> <r_i_glide_metal>
0

> <r_i_glide_rewards>
-1.97097511197489

> <r_i_glide_evdw>
-28.8106021881104

> <r_i_glide_ecoul>
-10.1466264724731

> <r_i_glide_erotb>
0.567841742997243

> <r_i_glide_esite>
-0.199555997528003

> <r_i_glide_emodel>
-44.747290785936

> <r_i_glide_energy>
-38.9572286605835

> <r_i_glide_einternal>
7.05007171630859

> <i_i_glide_confnum>
53

> <i_i_glide_posenum>
7

> <r_i_glide_eff_state_penalty>
0

> <s_user_duplicate_titles>
CHEMBL4282_lig2331

> <s_m_subgroup_title>
dock_pv

> <s_m_subgroupid>
dock_pv

> <b_m_subgroup_collapsed>
1

$$$$
CHEMBL4282_lig1360
                    3D
 Schrodinger Suite 2021-1.
 40 43  0  0  1  0            999 V2000
    9.3112    2.2703   18.9624 C   0  0  0  0  0  0
   10.1403    2.0666   20.2662 C   0  0  0  0  0  0
   10.2119    0.6395   20.6131 N   0  0  2  0  0  0
   10.9718   -0.0948   19.5945 C   0  0  0  0  0  0
   10.4116    0.1254   18.1643 C   0  0  0  0  0  0
   10.2061    1.6259   17.8661 C   0  0  0  0  0  0
    7.8837    1.6971   19.0870 C   0  0  0  0  0  0
    7.0722    1.8039   17.7864 C   0  0  0  0  0  0
    6.9904    3.1718   17.2264 N   0  0  0  0  0  0
    8.2357    3.9755   17.3753 C   0  0  0  0  0  0
    8.9976    3.7555   18.7087 C   0  0  0  0  0  0
    5.8681    3.6218   16.5158 C   0  0  0  0  0  0
    5.8264    4.9435   16.1844 N   0  0  0  0  0  0
    4.6414    5.4653   15.7766 C   0  0  0  0  0  0
    3.4637    4.8240   15.5978 N   0  0  0  0  0  0
    4.7419    2.8166   16.2019 C   0  0  0  0  0  0
    3.5787    3.5129   15.7844 C   0  0  0  0  0  0
    2.6310    2.5505   15.5739 N   0  0  0  0  0  0
    3.2617    1.3552   15.8031 C   0  0  0  0  0  0
    4.5033    1.4640   16.1996 N   0  0  0  0  0  0
   11.1528    2.4607   20.1577 H   0  0  0  0  0  0
    9.6926    2.6175   21.0954 H   0  0  0  0  0  0
    9.2626    0.2811   20.5843 H   0  0  0  0  0  0
   10.9267   -1.1553   19.8465 H   0  0  0  0  0  0
   12.0209    0.2017   19.6458 H   0  0  0  0  0  0
    9.4965   -0.4522   18.0273 H   0  0  0  0  0  0
   11.1128   -0.2928   17.4423 H   0  0  0  0  0  0
    9.7557    1.7325   16.8838 H   0  0  0  0  0  0
   11.1631    2.1459   17.7969 H   0  0  0  0  0  0
    7.3304    2.1144   19.9316 H   0  0  0  0  0  0
    7.9300    0.6371   19.3170 H   0  0  0  0  0  0
    6.0722    1.4900   18.0813 H   0  0  0  0  0  0
    7.4158    1.1000   17.0316 H   0  0  0  0  0  0
    8.8803    3.7972   16.5138 H   0  0  0  0  0  0
    7.9881    5.0358   17.3507 H   0  0  0  0  0  0
    9.9369    4.3069   18.6489 H   0  0  0  0  0  0
    8.4739    4.2283   19.5434 H   0  0  0  0  0  0
    4.6307    6.5199   15.5558 H   0  0  0  0  0  0
    1.6714    2.6640   15.2615 H   0  0  0  0  0  0
    2.7215    0.4336   15.6774 H   0  0  0  0  0  0
  1  2  1  0  0  0
  1  6  1  0  0  0
  1  7  1  0  0  0
  1 11  1  0  0  0
  2  3  1  0  0  0
  2 21  1  0  0  0
  2 22  1  0  0  0
  3  4  1  0  0  0
  3 23  1  0  0  0
  4  5  1  0  0  0
  4 24  1  0  0  0
  4 25  1  0  0  0
  5  6  1  0  0  0
  5 26  1  0  0  0
  5 27  1  0  0  0
  6 28  1  0  0  0
  6 29  1  0  0  0
  7  8  1  0  0  0
  7 30  1  0  0  0
  7 31  1  0  0  0
  8  9  1  0  0  0
  8 32  1  0  0  0
  8 33  1  0  0  0
  9 10  1  0  0  0
  9 12  1  0  0  0
 10 11  1  0  0  0
 10 34  1  0  0  0
 10 35  1  0  0  0
 11 36  1  0  0  0
 11 37  1  0  0  0
 12 13  2  0  0  0
 12 16  1  0  0  0
 13 14  1  0  0  0
 14 15  2  0  0  0
 14 38  1  0  0  0
 15 17  1  0  0  0
 16 17  2  0  0  0
 16 20  1  0  0  0
 17 18  1  0  0  0
 18 19  1  0  0  0
 18 39  1  0  0  0
 19 20  2  0  0  0
 19 40  1  0  0  0
M  END
> <s_m_entry_id>
2310

> <s_m_entry_name>
dock_pv.49

> <s_m_Source_Path>
/home/csk/Desktop/cluster/DUD-E-result/akt1

> <s_m_Source_File>
dock_pv.maegz

> <i_m_Source_File_Index>
49

> <chembl_id>
CHEMBL2420911

> <chembl_pref_name>
None

> <i_lp_mmshare_version>
53161

> <i_f3d_flags>
0

> <r_lp_tautomer_probability>
0.955584806201581

> <s_lp_Force_Field>
OPLS_2005

> <r_lp_Energy>
38.074206

> <b_lp_Chiralities_Consistent>
1

> <s_lp_Variant>
CHEMBL4282_lig1360-1

> <s_i_glide_gridfile>
glide-grid_3cqw

> <i_i_glide_lignum>
1883

> <i_i_glide_rotatable_bonds>
1

> <r_i_docking_score>
-7.52691495114635

> <r_i_glide_ligand_efficiency>
-0.376345747557318

> <r_i_glide_ligand_efficiency_sa>
-1.02155952608006

> <r_i_glide_ligand_efficiency_ln>
-1.88373855800193

> <r_i_glide_gscore>
-7.52691495114635

> <r_i_glide_lipo>
-0.694218645362468

> <r_i_glide_hbond>
-0.608

> <r_i_glide_metal>
0

> <r_i_glide_rewards>
-3.76883999478279

> <r_i_glide_evdw>
-32.2473602294922

> <r_i_glide_ecoul>
-6.75070571899414

> <r_i_glide_erotb>
0.169117558322635

> <r_i_glide_esite>
0

> <r_i_glide_emodel>
-54.7529590634038

> <r_i_glide_energy>
-38.9980659484863

> <r_i_glide_einternal>
0.305107116699219

> <i_i_glide_confnum>
26

> <i_i_glide_posenum>
370

> <r_i_glide_eff_state_penalty>
0

> <s_user_duplicate_titles>
CHEMBL4282_lig1360

> <s_m_subgroup_title>
dock_pv

> <s_m_subgroupid>
dock_pv

> <b_m_subgroup_collapsed>
1

$$$$
CHEMBL4282_lig2207
                    3D
 Schrodinger Suite 2021-1.
 50 52  0  0  1  0            999 V2000
    7.6799    3.0470   20.5662 C   0  0  0  0  0  0
    8.5803    2.8003   19.3411 C   0  0  0  0  0  0
    8.5258    3.9956   18.3593 C   0  0  0  0  0  0
    8.3687    1.3554   18.7449 C   0  0  2  0  0  0
    9.6344    0.7681   18.0810 C   0  0  0  0  0  0
   10.3460    1.4943   17.3852 O   0  0  0  0  0  0
    9.8966   -0.5384   18.3317 N   0  0  0  0  0  0
   10.9794   -1.3212   17.8917 C   0  0  0  0  0  0
   11.2407   -2.4859   18.6193 C   0  0  0  0  0  0
   12.3070   -3.3101   18.2656 C   0  0  0  0  0  0
   13.1019   -2.9792   17.1718 C   0  0  0  0  0  0
   14.1532   -3.7630   16.8394 F   0  0  0  0  0  0
   12.8273   -1.8396   16.4223 C   0  0  0  0  0  0
   11.7739   -1.0066   16.7800 C   0  0  0  0  0  0
    7.1281    1.1210   17.8441 C   0  0  0  0  0  0
    6.5119    2.0478   17.1873 N   0  0  0  0  0  0
    5.3945    1.7380   16.4557 C   0  0  0  0  0  0
    4.9295    0.4724   16.3716 C   0  0  0  0  0  0
    5.5237   -0.5630   17.1626 C   0  0  0  0  0  0
    5.0309   -1.6627   17.3850 O   0  0  0  0  0  0
    6.6486   -0.1609   17.7850 N   0  0  0  0  0  0
    4.7752    2.7751   15.7849 N   0  0  0  0  0  0
    3.3101    2.8577   15.6316 C   0  0  0  0  0  0
    2.7769    4.1400   16.2998 C   0  0  0  0  0  0
    3.4310    5.2709   15.7241 O   0  0  0  0  0  0
    4.8308    5.2164   15.9516 C   0  0  0  0  0  0
    5.4311    3.9999   15.2749 C   0  0  0  0  0  0
    6.6308    2.9518   20.3041 H   0  0  0  0  0  0
    7.8832    2.3334   21.3656 H   0  0  0  0  0  0
    7.8304    4.0431   20.9832 H   0  0  0  0  0  0
    9.5938    2.8258   19.7503 H   0  0  0  0  0  0
    7.5045    4.2565   18.0829 H   0  0  0  0  0  0
    8.9598    4.8861   18.8163 H   0  0  0  0  0  0
    9.0839    3.7993   17.4442 H   0  0  0  0  0  0
    8.2311    0.7314   19.6289 H   0  0  0  0  0  0
    9.2832   -1.0168   18.9850 H   0  0  0  0  0  0
   10.6310   -2.7490   19.4732 H   0  0  0  0  0  0
   12.5207   -4.1972   18.8429 H   0  0  0  0  0  0
   13.4310   -1.5923   15.5658 H   0  0  0  0  0  0
   11.5926   -0.1289   16.1827 H   0  0  0  0  0  0
    4.0631    0.2261   15.7850 H   0  0  0  0  0  0
    7.0077   -0.8304   18.4511 H   0  0  0  0  0  0
    2.9414    2.6050   14.6406 H   0  0  0  0  0  0
    2.8559    2.0451   16.2000 H   0  0  0  0  0  0
    2.9409    4.1007   17.3792 H   0  0  0  0  0  0
    1.6973    4.2201   16.1850 H   0  0  0  0  0  0
    5.0423    5.0370   16.9850 H   0  0  0  0  0  0
    5.3245    6.1469   15.6795 H   0  0  0  0  0  0
    6.4688    3.9768   15.6097 H   0  0  0  0  0  0
    5.6055    4.1005   14.2076 H   0  0  0  0  0  0
  1  2  1  0  0  0
  1 28  1  0  0  0
  1 29  1  0  0  0
  1 30  1  0  0  0
  2  3  1  0  0  0
  2  4  1  0  0  0
  2 31  1  0  0  0
  3 32  1  0  0  0
  3 33  1  0  0  0
  3 34  1  0  0  0
  4  5  1  0  0  0
  4 15  1  0  0  0
  4 35  1  0  0  0
  5  6  2  0  0  0
  5  7  1  0  0  0
  7  8  1  0  0  0
  7 36  1  0  0  0
  8  9  2  0  0  0
  8 14  1  0  0  0
  9 10  1  0  0  0
  9 37  1  0  0  0
 10 11  2  0  0  0
 10 38  1  0  0  0
 11 12  1  0  0  0
 11 13  1  0  0  0
 13 14  2  0  0  0
 13 39  1  0  0  0
 14 40  1  0  0  0
 15 16  2  0  0  0
 15 21  1  0  0  0
 16 17  1  0  0  0
 17 18  2  0  0  0
 17 22  1  0  0  0
 18 19  1  0  0  0
 18 41  1  0  0  0
 19 20  2  0  0  0
 19 21  1  0  0  0
 21 42  1  0  0  0
 22 23  1  0  0  0
 22 27  1  0  0  0
 23 24  1  0  0  0
 23 43  1  0  0  0
 23 44  1  0  0  0
 24 25  1  0  0  0
 24 45  1  0  0  0
 24 46  1  0  0  0
 25 26  1  0  0  0
 26 27  1  0  0  0
 26 47  1  0  0  0
 26 48  1  0  0  0
 27 49  1  0  0  0
 27 50  1  0  0  0
M  END
> <s_m_entry_id>
2311

> <s_m_entry_name>
dock_pv.50

> <s_m_Source_Path>
/home/csk/Desktop/cluster/DUD-E-result/akt1

> <s_m_Source_File>
dock_pv.maegz

> <i_m_Source_File_Index>
50

> <chembl_id>
CHEMBL3696285

> <chembl_pref_name>
None

> <i_lp_mmshare_version>
53161

> <i_f3d_flags>
0

> <r_lp_tautomer_probability>
0.994036381586735

> <s_lp_Force_Field>
OPLS_2005

> <r_lp_Energy>
37.121177

> <b_lp_Chiralities_Consistent>
1

> <s_lp_Variant>
CHEMBL4282_lig2207-1

> <s_i_glide_gridfile>
glide-grid_3cqw

> <i_i_glide_lignum>
2938

> <i_i_glide_rotatable_bonds>
6

> <r_i_docking_score>
-7.51631124769314

> <r_i_glide_ligand_efficiency>
-0.278381898062709

> <r_i_glide_ligand_efficiency_sa>
-0.835145693270625

> <r_i_glide_ligand_efficiency_ln>
-1.74967334238748

> <r_i_glide_gscore>
-7.51631124769314

> <r_i_glide_lipo>
-1.88205103638373

> <r_i_glide_hbond>
-0.535245152572009

> <r_i_glide_metal>
0

> <r_i_glide_rewards>
-1.75792546492721

> <r_i_glide_evdw>
-35.3290596008301

> <r_i_glide_ecoul>
-12.5521507263184

> <r_i_glide_erotb>
0.551729500852615

> <r_i_glide_esite>
-0.243543505673546

> <r_i_glide_emodel>
-61.5940301746438

> <r_i_glide_energy>
-47.8812103271484

> <r_i_glide_einternal>
5.20305633544922

> <i_i_glide_confnum>
15

> <i_i_glide_posenum>
247

> <r_i_glide_eff_state_penalty>
0

> <s_user_duplicate_titles>
CHEMBL4282_lig2207

> <s_m_subgroup_title>
dock_pv

> <s_m_subgroupid>
dock_pv

> <b_m_subgroup_collapsed>
1

$$$$
CHEMBL4282_lig1388
                    3D
 Schrodinger Suite 2021-1.
 46 48  0  0  1  0            999 V2000
    9.4579    3.3629   18.9295 N   0  0  0  0  0  0
    4.9698    2.4535   16.4147 C   0  0  0  0  0  0
    3.7603    3.0185   15.9788 C   0  0  0  0  0  0
    3.6273    4.3362   15.6964 N   0  0  0  0  0  0
    4.7531    5.0801   15.7849 C   0  0  0  0  0  0
    5.9684    4.6373   16.1880 N   0  0  0  0  0  0
    6.0579    3.3355   16.5849 C   0  0  0  0  0  0
    7.2883    2.9335   17.1010 N   0  0  0  0  0  0
    7.3805    2.2069   18.3798 C   0  0  0  0  0  0
    8.1638    2.9481   19.4850 C   0  0  0  0  0  0
    9.3610    4.2527   17.7643 C   0  0  0  0  0  0
    8.5862    3.4861   16.6643 C   0  0  0  0  0  0
    2.6274    2.2370   15.7850 N   0  0  0  0  0  0
   10.6630    2.8774   19.3405 C   0  0  0  0  0  0
   11.7369    3.3384   18.9425 O   0  0  0  0  0  0
   10.7216    1.6789   20.3353 C   0  0  2  0  0  0
   10.7726    2.2370   21.7024 N   0  0  0  0  0  0
   11.9053    0.7051   20.0952 C   0  0  0  0  0  0
   11.9231   -0.0465   18.7680 C   0  0  0  0  0  0
   11.1730   -1.2323   18.6103 C   0  0  0  0  0  0
   11.1556   -1.8850   17.3838 C   0  0  0  0  0  0
   11.8337   -1.3552   16.2944 C   0  0  0  0  0  0
   12.5289   -0.1610   16.4211 C   0  0  0  0  0  0
   12.5747    0.4991   17.6419 C   0  0  0  0  0  0
    5.1177    0.5650   16.7056 Br  0  0  0  0  0  0
    4.6741    6.1272   15.5300 H   0  0  0  0  0  0
    6.3853    1.9882   18.7686 H   0  0  0  0  0  0
    7.8569    1.2490   18.1648 H   0  0  0  0  0  0
    8.2342    2.3650   20.4038 H   0  0  0  0  0  0
    7.6119    3.8453   19.7660 H   0  0  0  0  0  0
    8.8144    5.1541   18.0442 H   0  0  0  0  0  0
   10.3307    4.5919   17.3973 H   0  0  0  0  0  0
    8.4598    4.1349   15.7948 H   0  0  0  0  0  0
    9.1836    2.6369   16.3331 H   0  0  0  0  0  0
    2.6463    1.2673   16.0605 H   0  0  0  0  0  0
    1.7679    2.6795   15.4748 H   0  0  0  0  0  0
    9.8255    1.0701   20.2115 H   0  0  0  0  0  0
   11.7157    2.5023   21.9495 H   0  0  0  0  0  0
   10.2307    3.1025   21.7843 H   0  0  0  0  0  0
   11.9067   -0.0440   20.8895 H   0  0  0  0  0  0
   12.8522    1.2357   20.2032 H   0  0  0  0  0  0
   10.6205   -1.6421   19.4444 H   0  0  0  0  0  0
   10.6002   -2.8042   17.2779 H   0  0  0  0  0  0
   11.8047   -1.8639   15.3411 H   0  0  0  0  0  0
   13.0314    0.2634   15.5661 H   0  0  0  0  0  0
   13.1148    1.4299   17.7287 H   0  0  0  0  0  0
  1 10  1  0  0  0
  1 11  1  0  0  0
  1 14  1  0  0  0
  2  3  2  0  0  0
  2  7  1  0  0  0
  2 25  1  0  0  0
  3  4  1  0  0  0
  3 13  1  0  0  0
  4  5  2  0  0  0
  5  6  1  0  0  0
  5 26  1  0  0  0
  6  7  2  0  0  0
  7  8  1  0  0  0
  8  9  1  0  0  0
  8 12  1  0  0  0
  9 10  1  0  0  0
  9 27  1  0  0  0
  9 28  1  0  0  0
 10 29  1  0  0  0
 10 30  1  0  0  0
 11 12  1  0  0  0
 11 31  1  0  0  0
 11 32  1  0  0  0
 12 33  1  0  0  0
 12 34  1  0  0  0
 13 35  1  0  0  0
 13 36  1  0  0  0
 14 15  2  0  0  0
 14 16  1  0  0  0
 16 17  1  0  0  0
 16 18  1  0  0  0
 16 37  1  0  0  0
 17 38  1  0  0  0
 17 39  1  0  0  0
 18 19  1  0  0  0
 18 40  1  0  0  0
 18 41  1  0  0  0
 19 20  2  0  0  0
 19 24  1  0  0  0
 20 21  1  0  0  0
 20 42  1  0  0  0
 21 22  2  0  0  0
 21 43  1  0  0  0
 22 23  1  0  0  0
 22 44  1  0  0  0
 23 24  2  0  0  0
 23 45  1  0  0  0
 24 46  1  0  0  0
M  END
> <s_m_entry_id>
2312

> <s_m_entry_name>
dock_pv.51

> <s_m_Source_Path>
/home/csk/Desktop/cluster/DUD-E-result/akt1

> <s_m_Source_File>
dock_pv.maegz

> <i_m_Source_File_Index>
51

> <chembl_id>
CHEMBL3127380

> <chembl_pref_name>
None

> <i_lp_mmshare_version>
53161

> <i_f3d_flags>
0

> <r_lp_tautomer_probability>
0.999999968260001

> <s_lp_Force_Field>
OPLS_2005

> <r_lp_Energy>
42.725042

> <b_lp_Chiralities_Consistent>
1

> <s_lp_Variant>
CHEMBL4282_lig1388-1

> <s_i_glide_gridfile>
glide-grid_3cqw

> <i_i_glide_lignum>
1941

> <i_i_glide_rotatable_bonds>
5

> <r_i_docking_score>
-7.50066697441503

> <r_i_glide_ligand_efficiency>
-0.300026678976601

> <r_i_glide_ligand_efficiency_sa>
-0.87728333032339

> <r_i_glide_ligand_efficiency_ln>
-1.77788284978721

> <r_i_glide_gscore>
-7.50066697441503

> <r_i_glide_lipo>
-2.3431182137805

> <r_i_glide_hbond>
-0.496330791603392

> <r_i_glide_metal>
0

> <r_i_glide_rewards>
-1.58338069071956

> <r_i_glide_evdw>
-44.5715522766113

> <r_i_glide_ecoul>
-7.04358243942261

> <r_i_glide_erotb>
0.334975619173535

> <r_i_glide_esite>
-0.127697917741156

> <r_i_glide_emodel>
-72.9979622535134

> <r_i_glide_energy>
-51.6151347160339

> <r_i_glide_einternal>
3.2624409198761

> <i_i_glide_confnum>
30

> <i_i_glide_posenum>
314

> <r_i_glide_eff_state_penalty>
0

> <s_user_duplicate_titles>
CHEMBL4282_lig1388

> <s_m_subgroup_title>
dock_pv

> <s_m_subgroupid>
dock_pv

> <b_m_subgroup_collapsed>
1

$$$$
CHEMBL4282_lig2357
                    3D
 Schrodinger Suite 2021-1.
 48 51  0  0  1  0            999 V2000
    8.3672    2.3239   20.5042 C   0  0  0  0  0  0
    8.6557    2.3950   18.9819 C   0  0  1  0  0  0
    8.7479    3.7102   18.7279 F   0  0  0  0  0  0
    9.9583    1.7418   18.4054 C   0  0  0  0  0  0
   10.3678    2.2367   17.3537 O   0  0  0  0  0  0
   10.5824    0.6419   18.9310 N   0  0  0  0  0  0
   10.2309    0.0312   20.2158 C   0  0  0  0  0  0
   11.0818   -1.2209   20.3594 C   0  0  0  0  0  0
   11.6306   -1.4161   18.9805 C   0  0  0  0  0  0
   12.4013   -2.4657   18.4743 C   0  0  0  0  0  0
   12.6895   -3.5401   19.2428 F   0  0  0  0  0  0
   12.8825   -2.4062   17.1676 C   0  0  0  0  0  0
   12.6358   -1.2784   16.3863 C   0  0  0  0  0  0
   11.9059   -0.2111   16.9062 C   0  0  0  0  0  0
   11.3509   -0.2971   18.1934 C   0  0  0  0  0  0
    7.4719    1.8180   18.1638 C   0  0  0  0  0  0
    6.7316    2.5762   17.4235 N   0  0  0  0  0  0
    5.7343    2.0251   16.6689 C   0  0  0  0  0  0
    5.5445    0.6897   16.6006 C   0  0  0  0  0  0
    6.2309   -0.1630   17.5211 C   0  0  0  0  0  0
    5.8310   -1.2928   17.7850 O   0  0  0  0  0  0
    7.2228    0.4644   18.1850 N   0  0  0  0  0  0
    4.9282    2.9065   15.9876 N   0  0  0  0  0  0
    5.3366    4.2369   15.4840 C   0  0  0  0  0  0
    4.3251    5.3130   15.9063 C   0  0  0  0  0  0
    3.0310    4.9042   15.5413 O   0  0  0  0  0  0
    2.6407    3.7393   16.2686 C   0  0  0  0  0  0
    3.5099    2.6068   15.7218 C   0  0  0  0  0  0
    8.0394    1.3460   20.8503 H   0  0  0  0  0  0
    9.2313    2.6370   21.0924 H   0  0  0  0  0  0
    7.5633    3.0127   20.7718 H   0  0  0  0  0  0
   10.2456    0.6794   21.0911 H   0  0  0  0  0  0
    9.2069   -0.3213   20.0955 H   0  0  0  0  0  0
   10.5122   -2.0598   20.7626 H   0  0  0  0  0  0
   11.8988   -1.0336   21.0573 H   0  0  0  0  0  0
   13.4644   -3.2249   16.7727 H   0  0  0  0  0  0
   13.0314   -1.2208   15.3846 H   0  0  0  0  0  0
   11.7703    0.6544   16.2771 H   0  0  0  0  0  0
    4.7758    0.2492   15.9915 H   0  0  0  0  0  0
    7.6135   -0.1159   18.9166 H   0  0  0  0  0  0
    6.2956    4.5128   15.9243 H   0  0  0  0  0  0
    5.5995    4.2368   14.4291 H   0  0  0  0  0  0
    4.5719    6.2841   15.4791 H   0  0  0  0  0  0
    4.3014    5.4369   16.9846 H   0  0  0  0  0  0
    1.5772    3.5298   16.1850 H   0  0  0  0  0  0
    2.7899    3.8457   17.3463 H   0  0  0  0  0  0
    3.3059    2.2433   14.7150 H   0  0  0  0  0  0
    3.2184    1.7353   16.3092 H   0  0  0  0  0  0
  1  2  1  0  0  0
  1 29  1  0  0  0
  1 30  1  0  0  0
  1 31  1  0  0  0
  2  3  1  0  0  0
  2  4  1  0  0  0
  2 16  1  0  0  0
  4  5  2  0  0  0
  4  6  1  0  0  0
  6  7  1  0  0  0
  6 15  1  0  0  0
  7  8  1  0  0  0
  7 32  1  0  0  0
  7 33  1  0  0  0
  8  9  1  0  0  0
  8 34  1  0  0  0
  8 35  1  0  0  0
  9 10  2  0  0  0
  9 15  1  0  0  0
 10 11  1  0  0  0
 10 12  1  0  0  0
 12 13  2  0  0  0
 12 36  1  0  0  0
 13 14  1  0  0  0
 13 37  1  0  0  0
 14 15  2  0  0  0
 14 38  1  0  0  0
 16 17  2  0  0  0
 16 22  1  0  0  0
 17 18  1  0  0  0
 18 19  2  0  0  0
 18 23  1  0  0  0
 19 20  1  0  0  0
 19 39  1  0  0  0
 20 21  2  0  0  0
 20 22  1  0  0  0
 22 40  1  0  0  0
 23 24  1  0  0  0
 23 28  1  0  0  0
 24 25  1  0  0  0
 24 41  1  0  0  0
 24 42  1  0  0  0
 25 26  1  0  0  0
 25 43  1  0  0  0
 25 44  1  0  0  0
 26 27  1  0  0  0
 27 28  1  0  0  0
 27 45  1  0  0  0
 27 46  1  0  0  0
 28 47  1  0  0  0
 28 48  1  0  0  0
M  END
> <s_m_entry_id>
2313

> <s_m_entry_name>
dock_pv.52

> <s_m_Source_Path>
/home/csk/Desktop/cluster/DUD-E-result/akt1

> <s_m_Source_File>
dock_pv.maegz

> <i_m_Source_File_Index>
52

> <chembl_id>
CHEMBL3947247

> <chembl_pref_name>
None

> <i_lp_mmshare_version>
53161

> <i_f3d_flags>
0

> <r_lp_tautomer_probability>
0.994036381586735

> <s_lp_Force_Field>
OPLS_2005

> <r_lp_Energy>
56.431985

> <b_lp_Chiralities_Consistent>
1

> <s_lp_Variant>
CHEMBL4282_lig2357-2

> <s_i_glide_gridfile>
glide-grid_3cqw

> <i_i_glide_lignum>
3153

> <i_i_glide_rotatable_bonds>
4

> <r_i_docking_score>
-7.49924359235763

> <r_i_glide_ligand_efficiency>
-0.267830128298487

> <r_i_glide_ligand_efficiency_sa>
-0.813290013023879

> <r_i_glide_ligand_efficiency_ln>
-1.73104560847575

> <r_i_glide_gscore>
-7.49924359235763

> <r_i_glide_lipo>
-2.24370410941681

> <r_i_glide_hbond>
-0.431408063613729

> <r_i_glide_metal>
0

> <r_i_glide_rewards>
-1.51981029891357

> <r_i_glide_evdw>
-39.0404968261719

> <r_i_glide_ecoul>
-11.0811252593994

> <r_i_glide_erotb>
0.511915125789154

> <r_i_glide_esite>
-0.20204261598416

> <r_i_glide_emodel>
-67.273275785343

> <r_i_glide_energy>
-50.1216220855713

> <r_i_glide_einternal>
5.92474126815796

> <i_i_glide_confnum>
18

> <i_i_glide_posenum>
358

> <r_i_glide_eff_state_penalty>
0

> <s_user_duplicate_titles>
CHEMBL4282_lig2357

> <s_m_subgroup_title>
dock_pv

> <s_m_subgroupid>
dock_pv

> <b_m_subgroup_collapsed>
1

$$$$
CHEMBL4282_lig3612
                    3D
 Schrodinger Suite 2021-1.
 32 34  0  0  1  0            999 V2000
    4.6118   -0.5313   16.9850 I   0  0  0  0  0  0
    9.4270    2.6371   17.0348 O   0  0  0  0  0  0
    9.4123    4.9567   18.9850 O   0  0  0  0  0  0
   10.0445    2.6370   20.5555 O   0  0  0  0  0  0
    9.0975   -0.2192   17.7850 O   0  0  0  0  0  0
    7.0879    2.8983   17.0860 N   0  0  0  0  0  0
    6.7711    1.6168   17.3851 N   0  0  0  0  0  0
    5.8853    4.8297   16.1850 N   0  0  0  0  0  0
    3.5480    4.3778   15.6707 N   0  0  0  0  0  0
    2.6310    2.2370   15.7850 N   0  0  0  0  0  0
    8.3779    3.4844   17.4224 C   0  0  1  0  0  0
    5.9833    3.5505   16.5646 C   0  0  0  0  0  0
    4.9474    2.5947   16.4803 C   0  0  0  0  0  0
    8.5944    3.7967   18.9070 C   0  0  1  0  0  0
    5.5562    1.3920   16.9525 C   0  0  0  0  0  0
    9.2515    2.4979   19.3841 C   0  0  1  0  0  0
   10.0669    2.0439   18.1649 C   0  0  1  0  0  0
    3.7200    3.0700   15.9829 C   0  0  0  0  0  0
    4.6352    5.1785   15.7850 C   0  0  0  0  0  0
   10.2868    0.5238   17.9816 C   0  0  0  0  0  0
    9.6415    5.1150   19.9154 H   0  0  0  0  0  0
    9.8311    3.4696   21.0161 H   0  0  0  0  0  0
    8.6990   -0.4238   18.6414 H   0  0  0  0  0  0
    2.7005    1.2625   16.0326 H   0  0  0  0  0  0
    1.7685    2.6390   15.4326 H   0  0  0  0  0  0
    8.4416    4.3882   16.8119 H   0  0  0  0  0  0
    7.6394    3.9715   19.4073 H   0  0  0  0  0  0
    8.4577    1.7749   19.5825 H   0  0  0  0  0  0
   11.0534    2.5081   18.2209 H   0  0  0  0  0  0
    4.4961    6.2171   15.5248 H   0  0  0  0  0  0
   10.8204    0.1145   18.8404 H   0  0  0  0  0  0
   10.9179    0.3596   17.1077 H   0  0  0  0  0  0
  1 15  1  0  0  0
  2 11  1  0  0  0
  2 17  1  0  0  0
  3 14  1  0  0  0
  3 21  1  0  0  0
  4 16  1  0  0  0
  4 22  1  0  0  0
  5 20  1  0  0  0
  5 23  1  0  0  0
  6  7  1  0  0  0
  6 11  1  0  0  0
  6 12  1  0  0  0
  7 15  2  0  0  0
  8 12  1  0  0  0
  8 19  2  0  0  0
  9 18  2  0  0  0
  9 19  1  0  0  0
 10 18  1  0  0  0
 10 24  1  0  0  0
 10 25  1  0  0  0
 11 14  1  0  0  0
 11 26  1  0  0  0
 12 13  2  0  0  0
 13 15  1  0  0  0
 13 18  1  0  0  0
 14 16  1  0  0  0
 14 27  1  0  0  0
 16 17  1  0  0  0
 16 28  1  0  0  0
 17 20  1  0  0  0
 17 29  1  0  0  0
 19 30  1  0  0  0
 20 31  1  0  0  0
 20 32  1  0  0  0
M  END
> <s_m_entry_id>
2314

> <s_m_entry_name>
dock_pv.53

> <s_m_Source_Path>
/home/csk/Desktop/cluster/DUD-E-result/akt1

> <s_m_Source_File>
dock_pv.maegz

> <i_m_Source_File_Index>
53

> <chembl_id>
CHEMBL2001288

> <chembl_pref_name>
None

> <i_lp_mmshare_version>
53161

> <i_f3d_flags>
0

> <r_lp_tautomer_probability>
1

> <s_lp_Force_Field>
OPLS_2005

> <r_lp_Energy>
30.770489

> <b_lp_Chiralities_Consistent>
1

> <s_lp_Variant>
CHEMBL4282_lig3612-16

> <s_i_glide_gridfile>
glide-grid_3cqw

> <i_i_glide_lignum>
4821

> <i_i_glide_rotatable_bonds>
5

> <r_i_docking_score>
-7.4857196204665

> <r_i_glide_ligand_efficiency>
-0.374285981023325

> <r_i_glide_ligand_efficiency_sa>
-1.0159684595197

> <r_i_glide_ligand_efficiency_ln>
-1.8734287254457

> <r_i_glide_gscore>
-7.4857196204665

> <r_i_glide_lipo>
-1.00616644876203

> <r_i_glide_hbond>
-0.382234195580885

> <r_i_glide_metal>
0

> <r_i_glide_rewards>
-2.63677393397799

> <r_i_glide_evdw>
-33.7900543212891

> <r_i_glide_ecoul>
-12.9864263534546

> <r_i_glide_erotb>
0.176921626937053

> <r_i_glide_esite>
0

> <r_i_glide_emodel>
-67.8856877313779

> <r_i_glide_energy>
-46.7764806747437

> <r_i_glide_einternal>
5.80532026290894

> <i_i_glide_confnum>
11

> <i_i_glide_posenum>
27

> <r_i_glide_eff_state_penalty>
0

> <s_user_duplicate_titles>
CHEMBL4282_lig3612

> <s_m_subgroup_title>
dock_pv

> <s_m_subgroupid>
dock_pv

> <b_m_subgroup_collapsed>
1

$$$$
CHEMBL4282_lig997
                    3D
 Schrodinger Suite 2021-1.
 52 55  0  0  1  0            999 V2000
    3.8701    4.7401   15.7594 N   0  0  0  0  0  0
    5.0249    5.4370   15.7850 C   0  0  0  0  0  0
    6.2356    4.9659   16.1704 N   0  0  0  0  0  0
    6.3008    3.6705   16.5850 C   0  0  0  0  0  0
    3.9701    3.4277   16.0771 C   0  0  0  0  0  0
    5.1725    2.8280   16.4974 C   0  0  0  0  0  0
    5.0368    1.3413   16.7914 C   0  0  1  0  0  0
    3.4310    0.8602   16.1850 S   0  0  0  0  0  0
    2.7719    2.5158   16.0242 C   0  0  0  0  0  0
    7.5161    3.2581   17.1324 N   0  0  0  0  0  0
    7.5781    2.5037   18.4017 C   0  0  0  0  0  0
    8.3789    3.1876   19.5276 C   0  0  0  0  0  0
    9.6945    3.5384   18.9850 N   0  0  0  0  0  0
    9.6428    4.4783   17.8607 C   0  0  0  0  0  0
    8.8279    3.8049   16.7301 C   0  0  0  0  0  0
   10.8667    2.9612   19.3689 C   0  0  0  0  0  0
   11.9683    3.3677   18.9850 O   0  0  0  0  0  0
   10.8491    1.7260   20.3193 C   0  0  1  0  0  0
   11.9635    0.6767   20.0479 C   0  0  0  0  0  0
   11.8295   -0.0509   18.7085 C   0  0  0  0  0  0
   12.3522    0.5041   17.5349 C   0  0  0  0  0  0
   12.2310   -0.1685   16.3189 C   0  0  0  0  0  0
   11.6044   -1.4140   16.2676 C   0  0  0  0  0  0
   11.1097   -1.9903   17.4401 C   0  0  0  0  0  0
   11.2086   -1.3040   18.6513 C   0  0  0  0  0  0
   10.9332    2.2370   21.7002 N   0  0  0  0  0  0
   11.4310   -2.2266   14.7524 Cl  0  0  0  0  0  0
    6.0623    0.4367   16.1103 C   0  0  0  0  0  0
   10.5408   -3.2175   17.4102 F   0  0  0  0  0  0
    4.9713    6.4744   15.4920 H   0  0  0  0  0  0
    5.0310    1.1494   17.8575 H   0  0  0  0  0  0
    2.0789    2.7049   16.8448 H   0  0  0  0  0  0
    2.2310    2.5891   15.0810 H   0  0  0  0  0  0
    6.5779    2.3202   18.7906 H   0  0  0  0  0  0
    8.0302    1.5357   18.1865 H   0  0  0  0  0  0
    8.4135    2.5945   20.4410 H   0  0  0  0  0  0
    7.8734    4.1091   19.8212 H   0  0  0  0  0  0
    9.1490    5.3967   18.1807 H   0  0  0  0  0  0
   10.6310    4.7716   17.5113 H   0  0  0  0  0  0
    8.7242    4.5018   15.8983 H   0  0  0  0  0  0
    9.3912    2.9533   16.3471 H   0  0  0  0  0  0
    9.9107    1.1833   20.2043 H   0  0  0  0  0  0
   11.9597   -0.0743   20.8399 H   0  0  0  0  0  0
   12.9557    1.1269   20.1130 H   0  0  0  0  0  0
   12.8524    1.4608   17.5608 H   0  0  0  0  0  0
   12.6223    0.2806   15.4180 H   0  0  0  0  0  0
   10.8002   -1.7549   19.5454 H   0  0  0  0  0  0
   11.8902    2.4182   21.9665 H   0  0  0  0  0  0
   10.4578    3.1420   21.7850 H   0  0  0  0  0  0
    7.0310    0.5146   16.5850 H   0  0  0  0  0  0
    5.7595   -0.5961   16.2247 H   0  0  0  0  0  0
    6.1659    0.6370   15.0436 H   0  0  0  0  0  0
  1  2  2  0  0  0
  1  5  1  0  0  0
  2  3  1  0  0  0
  2 30  1  0  0  0
  3  4  2  0  0  0
  4 10  1  0  0  0
  4  6  1  0  0  0
  5  9  1  0  0  0
  5  6  2  0  0  0
  6  7  1  0  0  0
  7  8  1  0  0  0
  7 28  1  0  0  0
  7 31  1  0  0  0
  8  9  1  0  0  0
  9 32  1  0  0  0
  9 33  1  0  0  0
 10 11  1  0  0  0
 10 15  1  0  0  0
 11 12  1  0  0  0
 11 34  1  0  0  0
 11 35  1  0  0  0
 12 13  1  0  0  0
 12 36  1  0  0  0
 12 37  1  0  0  0
 13 14  1  0  0  0
 13 16  1  0  0  0
 14 15  1  0  0  0
 14 38  1  0  0  0
 14 39  1  0  0  0
 15 40  1  0  0  0
 15 41  1  0  0  0
 16 17  2  0  0  0
 16 18  1  0  0  0
 18 19  1  0  0  0
 18 26  1  0  0  0
 18 42  1  0  0  0
 19 20  1  0  0  0
 19 43  1  0  0  0
 19 44  1  0  0  0
 20 21  2  0  0  0
 20 25  1  0  0  0
 21 22  1  0  0  0
 21 45  1  0  0  0
 22 23  2  0  0  0
 22 46  1  0  0  0
 23 24  1  0  0  0
 23 27  1  0  0  0
 24 25  2  0  0  0
 24 29  1  0  0  0
 25 47  1  0  0  0
 26 48  1  0  0  0
 26 49  1  0  0  0
 28 50  1  0  0  0
 28 51  1  0  0  0
 28 52  1  0  0  0
M  END
> <s_m_entry_id>
2315

> <s_m_entry_name>
dock_pv.54

> <s_m_Source_Path>
/home/csk/Desktop/cluster/DUD-E-result/akt1

> <s_m_Source_File>
dock_pv.maegz

> <i_m_Source_File_Index>
54

> <chembl_id>
CHEMBL1632375

> <chembl_pref_name>
None

> <i_lp_mmshare_version>
53161

> <i_f3d_flags>
0

> <r_lp_tautomer_probability>
1

> <s_lp_Force_Field>
OPLS_2005

> <r_lp_Energy>
43.88617

> <b_lp_Chiralities_Consistent>
1

> <s_lp_Variant>
CHEMBL4282_lig997-1

> <s_i_glide_gridfile>
glide-grid_3cqw

> <i_i_glide_lignum>
1399

> <i_i_glide_rotatable_bonds>
5

> <r_i_docking_score>
-7.45828421823161

> <r_i_glide_ligand_efficiency>
-0.25718221442178

> <r_i_glide_ligand_efficiency_sa>
-0.790145243748295

> <r_i_glide_ligand_efficiency_ln>
-1.70775796020548

> <r_i_glide_gscore>
-7.45828421823161

> <r_i_glide_lipo>
-3.17277670818352

> <r_i_glide_hbond>
-0.259071894857062

> <r_i_glide_metal>
0

> <r_i_glide_rewards>
-1.08219483113943

> <r_i_glide_evdw>
-44.661003112793

> <r_i_glide_ecoul>
-6.38267374038696

> <r_i_glide_erotb>
0.419441327391772

> <r_i_glide_esite>
-0.173230894745675

> <r_i_glide_emodel>
-71.120450324597

> <r_i_glide_energy>
-51.0436768531799

> <r_i_glide_einternal>
3.00880694389343

> <i_i_glide_confnum>
14

> <i_i_glide_posenum>
174

> <r_i_glide_eff_state_penalty>
0

> <s_user_duplicate_titles>
CHEMBL4282_lig997

> <s_m_subgroup_title>
dock_pv

> <s_m_subgroupid>
dock_pv

> <b_m_subgroup_collapsed>
1

$$$$
CHEMBL4282_lig919
                    3D
 Schrodinger Suite 2021-1.
 37 39  0  0  1  0            999 V2000
    9.5509    2.4878   18.0449 C   0  0  1  0  0  0
    5.9869    4.8383   16.1846 N   0  0  0  0  0  0
    4.7535    5.1976   15.7780 C   0  0  0  0  0  0
    3.6648    4.4128   15.6656 N   0  0  0  0  0  0
    6.2052    3.5554   16.5858 C   0  0  0  0  0  0
    4.9358    1.1489   16.5529 C   0  0  0  0  0  0
    5.1703    2.5822   16.4117 C   0  0  0  0  0  0
    3.9267    3.1365   15.9466 C   0  0  0  0  0  0
    3.0155    2.1267   15.8225 N   0  0  0  0  0  0
    3.6147    0.9547   16.1850 C   0  0  0  0  0  0
    7.4980    3.3550   17.1270 N   0  0  0  0  0  0
    8.0546    2.2337   17.8865 C   0  0  0  0  0  0
    8.4505    4.4549   17.3737 C   0  0  0  0  0  0
    9.6025    3.9800   18.2516 C   0  0  0  0  0  0
   10.2385    1.6721   19.0641 N   0  0  1  0  0  0
    5.8482    0.0299   16.9854 C   0  0  0  0  0  0
   11.9501    1.2957   18.9016 S   0  0  0  0  0  0
   12.8064    2.8951   19.3952 C   0  0  0  0  0  0
   12.2738    0.2930   19.9191 O   0  0  0  0  0  0
   12.2314    1.0413   17.4835 O   0  0  0  0  0  0
   10.0739    2.2394   17.1196 H   0  0  0  0  0  0
    4.6266    6.2376   15.5243 H   0  0  0  0  0  0
    2.0490    2.2049   15.5344 H   0  0  0  0  0  0
    3.0340    0.0432   16.1839 H   0  0  0  0  0  0
    7.5340    2.1334   18.8406 H   0  0  0  0  0  0
    7.9271    1.2913   17.3788 H   0  0  0  0  0  0
    8.8129    4.8939   16.4434 H   0  0  0  0  0  0
    7.9313    5.2311   17.9363 H   0  0  0  0  0  0
   10.5444    4.4247   17.9332 H   0  0  0  0  0  0
    9.4306    4.2478   19.2967 H   0  0  0  0  0  0
    9.8831    1.7466   20.0218 H   0  0  0  0  0  0
    6.6892   -0.0943   16.3062 H   0  0  0  0  0  0
    5.3288   -0.9286   16.9944 H   0  0  0  0  0  0
    6.2238    0.1673   17.9994 H   0  0  0  0  0  0
   13.8811    2.7185   19.4130 H   0  0  0  0  0  0
   12.5714    3.6682   18.6687 H   0  0  0  0  0  0
   12.4588    3.1905   20.3863 H   0  0  0  0  0  0
  1 12  1  0  0  0
  1 14  1  0  0  0
  1 15  1  0  0  0
  1 21  1  0  0  0
  2  5  1  0  0  0
  2  3  2  0  0  0
  3  4  1  0  0  0
  3 22  1  0  0  0
  4  8  2  0  0  0
  5 11  1  0  0  0
  5  7  2  0  0  0
  6 10  2  0  0  0
  6 16  1  0  0  0
  6  7  1  0  0  0
  7  8  1  0  0  0
  8  9  1  0  0  0
  9 10  1  0  0  0
  9 23  1  0  0  0
 10 24  1  0  0  0
 11 12  1  0  0  0
 11 13  1  0  0  0
 12 25  1  0  0  0
 12 26  1  0  0  0
 13 14  1  0  0  0
 13 27  1  0  0  0
 13 28  1  0  0  0
 14 29  1  0  0  0
 14 30  1  0  0  0
 15 17  1  0  0  0
 15 31  1  0  0  0
 16 32  1  0  0  0
 16 33  1  0  0  0
 16 34  1  0  0  0
 17 18  1  0  0  0
 17 19  2  0  0  0
 17 20  2  0  0  0
 18 35  1  0  0  0
 18 36  1  0  0  0
 18 37  1  0  0  0
M  END
> <s_m_entry_id>
2316

> <s_m_entry_name>
dock_pv.55

> <s_m_Source_Path>
/home/csk/Desktop/cluster/DUD-E-result/akt1

> <s_m_Source_File>
dock_pv.maegz

> <i_m_Source_File_Index>
55

> <chembl_id>
CHEMBL1173696

> <chembl_pref_name>
None

> <i_lp_mmshare_version>
53161

> <i_f3d_flags>
0

> <r_lp_tautomer_probability>
0.999998369746258

> <s_lp_Force_Field>
OPLS_2005

> <r_lp_Energy>
21.68678

> <b_lp_Chiralities_Consistent>
1

> <s_lp_Variant>
CHEMBL4282_lig919-1

> <s_i_glide_gridfile>
glide-grid_3cqw

> <i_i_glide_lignum>
1314

> <i_i_glide_rotatable_bonds>
3

> <r_i_docking_score>
-7.45749616838436

> <r_i_glide_ligand_efficiency>
-0.372874808419218

> <r_i_glide_ligand_efficiency_sa>
-1.01213794774688

> <r_i_glide_ligand_efficiency_ln>
-1.86636532626129

> <r_i_glide_gscore>
-7.45749616838436

> <r_i_glide_lipo>
-1.3158129032525

> <r_i_glide_hbond>
-0.066465825954219

> <r_i_glide_metal>
0

> <r_i_glide_rewards>
-3.82756186090094

> <r_i_glide_evdw>
-38.9718360900879

> <r_i_glide_ecoul>
-4.51664113998413

> <r_i_glide_erotb>
0.419611475695524

> <r_i_glide_esite>
-0.0411790784702092

> <r_i_glide_emodel>
-60.9676211515635

> <r_i_glide_energy>
-43.488477230072

> <r_i_glide_einternal>
2.20975995063782

> <i_i_glide_confnum>
2

> <i_i_glide_posenum>
293

> <r_i_glide_eff_state_penalty>
0

> <s_user_duplicate_titles>
CHEMBL4282_lig919

> <s_m_subgroup_title>
dock_pv

> <s_m_subgroupid>
dock_pv

> <b_m_subgroup_collapsed>
1

$$$$
CHEMBL4282_lig803
                    3D
 Schrodinger Suite 2021-1.
 49 52  0  0  1  0            999 V2000
    6.1579    5.0317   16.0732 C   0  0  0  0  0  0
    7.2977    4.4472   16.6300 C   0  0  0  0  0  0
    7.2763    3.1379   17.1042 C   0  0  0  0  0  0
    6.1440    2.3386   16.9301 C   0  0  0  0  0  0
    3.7500    4.6792   15.5487 N   0  0  0  0  0  0
    4.9860    4.2715   15.9703 C   0  0  0  0  0  0
    5.0018    2.8992   16.3477 C   0  0  0  0  0  0
    3.7279    2.4217   15.9738 C   0  0  0  0  0  0
    3.0321    3.5414   15.5895 N   0  0  0  0  0  0
    3.1678    1.0332   15.9582 C   0  0  0  0  0  0
    8.4337    2.5597   17.8283 C   0  0  0  0  0  0
    8.2025    1.8373   19.3892 S   0  0  0  0  0  0
    9.8279    1.2600   19.2671 C   0  0  0  0  0  0
   10.4712    1.7086   18.2127 N   0  0  0  0  0  0
    9.6656    2.4854   17.3857 N   0  0  0  0  0  0
   10.2452    0.3516   20.2063 N   0  0  0  0  0  0
   11.4315   -0.5011   20.2779 C   0  0  0  0  0  0
   12.1309   -0.8365   18.9381 C   0  0  2  0  0  0
   12.9008   -2.1774   18.9611 C   0  0  0  0  0  0
   12.0046   -3.3829   18.6651 C   0  0  0  0  0  0
   11.3968   -4.0318   19.7466 C   0  0  0  0  0  0
   10.5440   -5.1141   19.5441 C   0  0  0  0  0  0
   10.2922   -5.5676   18.2532 C   0  0  0  0  0  0
   10.9025   -4.9427   17.1685 C   0  0  0  0  0  0
   11.7653   -3.8486   17.3511 C   0  0  0  0  0  0
   13.0586    0.2334   18.6132 N   0  0  0  0  0  0
   12.4278   -3.2045   16.1233 C   0  0  0  0  0  0
   12.1508   -1.9029   16.0502 F   0  0  0  0  0  0
   13.7509   -3.3609   16.1856 F   0  0  0  0  0  0
   12.0147   -3.7603   14.9853 F   0  0  0  0  0  0
    6.1597    6.0689   15.7851 H   0  0  0  0  0  0
    8.1934    5.0378   16.7568 H   0  0  0  0  0  0
    6.1398    1.3092   17.2583 H   0  0  0  0  0  0
    2.0640    3.5163   15.2888 H   0  0  0  0  0  0
    3.8972    0.3686   15.5041 H   0  0  0  0  0  0
    3.0239    0.6347   16.9592 H   0  0  0  0  0  0
    2.2404    0.9651   15.3843 H   0  0  0  0  0  0
    9.6228    0.1820   20.9841 H   0  0  0  0  0  0
   11.0801   -1.4311   20.7240 H   0  0  0  0  0  0
   12.1414   -0.0775   20.9906 H   0  0  0  0  0  0
   11.3801   -0.8804   18.1470 H   0  0  0  0  0  0
   13.4079   -2.3105   19.9184 H   0  0  0  0  0  0
   13.7199   -2.1706   18.2449 H   0  0  0  0  0  0
   11.5735   -3.6913   20.7563 H   0  0  0  0  0  0
   10.0747   -5.5963   20.3886 H   0  0  0  0  0  0
    9.6347   -6.4113   18.0957 H   0  0  0  0  0  0
   10.7002   -5.3307   16.1812 H   0  0  0  0  0  0
   13.4055    0.1084   17.6743 H   0  0  0  0  0  0
   12.5309    1.0994   18.6106 H   0  0  0  0  0  0
  1  6  1  0  0  0
  1 31  1  0  0  0
  1  2  2  0  0  0
  2 32  1  0  0  0
  2  3  1  0  0  0
  3 11  1  0  0  0
  3  4  2  0  0  0
  4 33  1  0  0  0
  4  7  1  0  0  0
  5  9  1  0  0  0
  5  6  2  0  0  0
  6  7  1  0  0  0
  7  8  2  0  0  0
  8  9  1  0  0  0
  8 10  1  0  0  0
  9 34  1  0  0  0
 10 35  1  0  0  0
 10 36  1  0  0  0
 10 37  1  0  0  0
 11 15  2  0  0  0
 11 12  1  0  0  0
 12 13  1  0  0  0
 13 14  2  0  0  0
 13 16  1  0  0  0
 14 15  1  0  0  0
 16 17  1  0  0  0
 16 38  1  0  0  0
 17 18  1  0  0  0
 17 39  1  0  0  0
 17 40  1  0  0  0
 18 19  1  0  0  0
 18 26  1  0  0  0
 18 41  1  0  0  0
 19 20  1  0  0  0
 19 42  1  0  0  0
 19 43  1  0  0  0
 20 21  2  0  0  0
 20 25  1  0  0  0
 21 22  1  0  0  0
 21 44  1  0  0  0
 22 23  2  0  0  0
 22 45  1  0  0  0
 23 24  1  0  0  0
 23 46  1  0  0  0
 24 25  2  0  0  0
 24 47  1  0  0  0
 25 27  1  0  0  0
 26 48  1  0  0  0
 26 49  1  0  0  0
 27 28  1  0  0  0
 27 29  1  0  0  0
 27 30  1  0  0  0
M  END
> <s_m_entry_id>
2317

> <s_m_entry_name>
dock_pv.56

> <s_m_Source_Path>
/home/csk/Desktop/cluster/DUD-E-result/akt1

> <s_m_Source_File>
dock_pv.maegz

> <i_m_Source_File_Index>
56

> <chembl_id>
CHEMBL1080892

> <chembl_pref_name>
None

> <i_lp_mmshare_version>
53161

> <i_f3d_flags>
0

> <r_lp_tautomer_probability>
0.0196078431372549

> <s_lp_Force_Field>
OPLS_2005

> <r_lp_Energy>
36.383022

> <b_lp_Chiralities_Consistent>
1

> <s_lp_Variant>
CHEMBL4282_lig803-2

> <s_i_glide_gridfile>
glide-grid_3cqw

> <i_i_glide_lignum>
1171

> <i_i_glide_rotatable_bonds>
7

> <r_i_docking_score>
-7.45105836860583

> <r_i_glide_ligand_efficiency>
-0.248368612286861

> <r_i_glide_ligand_efficiency_sa>
-0.77173902468144

> <r_i_glide_ligand_efficiency_ln>
-1.69296164713064

> <r_i_glide_gscore>
-7.45105836860583

> <r_i_glide_lipo>
-2.38209920107754

> <r_i_glide_hbond>
-0.464501872028962

> <r_i_glide_metal>
0

> <r_i_glide_rewards>
-2.39557451962824

> <r_i_glide_evdw>
-42.2189331054688

> <r_i_glide_ecoul>
-3.30055618286133

> <r_i_glide_erotb>
0.446859540090851

> <r_i_glide_esite>
-0.0497122332592983

> <r_i_glide_emodel>
-60.7656082231938

> <r_i_glide_energy>
-45.5194892883301

> <r_i_glide_einternal>
7.3806939125061

> <i_i_glide_confnum>
48

> <i_i_glide_posenum>
395

> <r_i_glide_eff_state_penalty>
0

> <s_user_duplicate_titles>
CHEMBL4282_lig803,612803

> <s_m_subgroup_title>
dock_pv

> <s_m_subgroupid>
dock_pv

> <b_m_subgroup_collapsed>
1

$$$$
CHEMBL4282_lig923
                    3D
 Schrodinger Suite 2021-1.
 31 33  0  0  1  0            999 V2000
    6.0918    4.7333   16.1849 N   0  0  0  0  0  0
    4.8609    5.1291   15.7849 C   0  0  0  0  0  0
    3.7385    4.3821   15.7050 N   0  0  0  0  0  0
    6.2609    3.4427   16.5851 C   0  0  0  0  0  0
    4.9351    1.0855   16.4757 C   0  0  0  0  0  0
    5.1969    2.5105   16.4050 C   0  0  0  0  0  0
    3.9599    3.0950   15.9750 C   0  0  0  0  0  0
    3.0191    2.1005   15.8744 N   0  0  0  0  0  0
    3.6037    0.9008   16.1850 C   0  0  0  0  0  0
    7.4850    3.1718   17.2050 N   0  0  0  0  0  0
    6.0703   -0.1630   16.7905 Cl  0  0  0  0  0  0
    8.7161    3.9491   16.9373 C   0  0  0  0  0  0
    9.5492    4.3873   18.1653 C   0  0  2  0  0  0
    9.8868    3.1316   18.9848 C   0  0  0  0  0  0
    8.6111    2.3502   19.3297 C   0  0  0  0  0  0
    7.7646    2.0213   18.0816 C   0  0  0  0  0  0
    8.8409    5.3562   18.9850 N   0  0  0  0  0  0
    4.7454    6.1767   15.5501 H   0  0  0  0  0  0
    2.0467    2.2038   15.6159 H   0  0  0  0  0  0
    3.0310   -0.0132   16.1767 H   0  0  0  0  0  0
    9.3597    3.2848   16.3592 H   0  0  0  0  0  0
    8.6381    4.7542   16.2067 H   0  0  0  0  0  0
   10.4743    4.8245   17.7855 H   0  0  0  0  0  0
   10.4107    3.4049   19.9023 H   0  0  0  0  0  0
   10.5813    2.5011   18.4281 H   0  0  0  0  0  0
    8.0008    2.8872   20.0584 H   0  0  0  0  0  0
    8.8808    1.4185   19.8288 H   0  0  0  0  0  0
    6.8158    1.6539   18.4718 H   0  0  0  0  0  0
    8.2357    1.2257   17.5050 H   0  0  0  0  0  0
    9.1814    5.2899   19.9453 H   0  0  0  0  0  0
    9.0315    6.2940   18.6676 H   0  0  0  0  0  0
  1  4  1  0  0  0
  1  2  2  0  0  0
  2  3  1  0  0  0
  2 18  1  0  0  0
  3  7  2  0  0  0
  4 10  1  0  0  0
  4  6  2  0  0  0
  5  9  2  0  0  0
  5 11  1  0  0  0
  5  6  1  0  0  0
  6  7  1  0  0  0
  7  8  1  0  0  0
  8  9  1  0  0  0
  8 19  1  0  0  0
  9 20  1  0  0  0
 10 12  1  0  0  0
 10 16  1  0  0  0
 12 13  1  0  0  0
 12 21  1  0  0  0
 12 22  1  0  0  0
 13 14  1  0  0  0
 13 17  1  0  0  0
 13 23  1  0  0  0
 14 15  1  0  0  0
 14 24  1  0  0  0
 14 25  1  0  0  0
 15 16  1  0  0  0
 15 26  1  0  0  0
 15 27  1  0  0  0
 16 28  1  0  0  0
 16 29  1  0  0  0
 17 30  1  0  0  0
 17 31  1  0  0  0
M  END
> <s_m_entry_id>
2318

> <s_m_entry_name>
dock_pv.57

> <s_m_Source_Path>
/home/csk/Desktop/cluster/DUD-E-result/akt1

> <s_m_Source_File>
dock_pv.maegz

> <i_m_Source_File_Index>
57

> <chembl_id>
CHEMBL1173349

> <chembl_pref_name>
None

> <i_lp_mmshare_version>
53161

> <i_f3d_flags>
0

> <r_lp_tautomer_probability>
0.999998369746258

> <s_lp_Force_Field>
OPLS_2005

> <r_lp_Energy>
14.463316

> <b_lp_Chiralities_Consistent>
1

> <s_lp_Variant>
CHEMBL4282_lig923-1

> <s_i_glide_gridfile>
glide-grid_3cqw

> <i_i_glide_lignum>
1318

> <i_i_glide_rotatable_bonds>
1

> <r_i_docking_score>
-7.45027393977137

> <r_i_glide_ligand_efficiency>
-0.438251408221845

> <r_i_glide_ligand_efficiency_sa>
-1.12686777697666

> <r_i_glide_ligand_efficiency_ln>
-1.94361056144286

> <r_i_glide_gscore>
-7.45027393977137

> <r_i_glide_lipo>
-1.27078329988018

> <r_i_glide_hbond>
-0.166889560841669

> <r_i_glide_metal>
0

> <r_i_glide_rewards>
-3.87779172995974

> <r_i_glide_evdw>
-35.0912132263184

> <r_i_glide_ecoul>
-4.37989902496338

> <r_i_glide_erotb>
0.276736165970642

> <r_i_glide_esite>
0

> <r_i_glide_emodel>
-55.2814962028324

> <r_i_glide_energy>
-39.4711122512817

> <r_i_glide_einternal>
1.78140234947205

> <i_i_glide_confnum>
7

> <i_i_glide_posenum>
43

> <r_i_glide_eff_state_penalty>
0

> <s_user_duplicate_titles>
CHEMBL4282_lig923,651116

> <s_m_subgroup_title>
dock_pv

> <s_m_subgroupid>
dock_pv

> <b_m_subgroup_collapsed>
1

$$$$
CHEMBL4282_lig924
                    3D
 Schrodinger Suite 2021-1.
 31 33  0  0  1  0            999 V2000
    8.6209    2.8288   19.1874 C   0  0  2  0  0  0
    8.7408    4.2656   18.7411 C   0  0  0  0  0  0
    8.5382    4.0928   17.2434 C   0  0  0  0  0  0
    7.4531    3.1171   17.0578 N   0  0  0  0  0  0
    7.5987    2.2246   18.2189 C   0  0  0  0  0  0
    6.1699    3.4604   16.5848 C   0  0  0  0  0  0
    5.9872    4.7497   16.1847 N   0  0  0  0  0  0
    4.7528    5.1316   15.7850 C   0  0  0  0  0  0
    3.6459    4.3641   15.6824 N   0  0  0  0  0  0
    5.1196    2.5172   16.4154 C   0  0  0  0  0  0
    3.8854    3.0810   15.9587 C   0  0  0  0  0  0
    2.9779    2.0647   15.8319 N   0  0  0  0  0  0
    3.5866    0.8896   16.1851 C   0  0  0  0  0  0
    4.9019    1.0879   16.5511 C   0  0  0  0  0  0
    5.8441   -0.0085   16.9832 C   0  0  0  0  0  0
    8.2851    2.6482   20.5852 N   0  0  0  0  0  0
    9.5982    2.3622   19.0489 H   0  0  0  0  0  0
    9.7149    4.7014   18.9640 H   0  0  0  0  0  0
    7.9708    4.9148   19.1634 H   0  0  0  0  0  0
    9.4352    3.6879   16.7723 H   0  0  0  0  0  0
    8.3671    5.0338   16.7198 H   0  0  0  0  0  0
    6.6630    2.1231   18.7741 H   0  0  0  0  0  0
    8.0392    1.2734   17.9199 H   0  0  0  0  0  0
    4.6309    6.1770   15.5416 H   0  0  0  0  0  0
    2.0116    2.1392   15.5443 H   0  0  0  0  0  0
    3.0312   -0.0345   16.1840 H   0  0  0  0  0  0
    6.0968    0.0459   18.0410 H   0  0  0  0  0  0
    6.7710    0.0001   16.4143 H   0  0  0  0  0  0
    5.3982   -0.9913   16.8395 H   0  0  0  0  0  0
    8.4178    1.6853   20.8611 H   0  0  0  0  0  0
    8.8863    3.2251   21.1707 H   0  0  0  0  0  0
  1  5  1  0  0  0
  1  2  1  0  0  0
  1 16  1  0  0  0
  1 17  1  0  0  0
  2  3  1  0  0  0
  2 18  1  0  0  0
  2 19  1  0  0  0
  3  4  1  0  0  0
  3 20  1  0  0  0
  3 21  1  0  0  0
  4  6  1  0  0  0
  4  5  1  0  0  0
  5 22  1  0  0  0
  5 23  1  0  0  0
  6 10  2  0  0  0
  6  7  1  0  0  0
  7  8  2  0  0  0
  8  9  1  0  0  0
  8 24  1  0  0  0
  9 11  2  0  0  0
 10 11  1  0  0  0
 10 14  1  0  0  0
 11 12  1  0  0  0
 12 13  1  0  0  0
 12 25  1  0  0  0
 13 14  2  0  0  0
 13 26  1  0  0  0
 14 15  1  0  0  0
 15 27  1  0  0  0
 15 28  1  0  0  0
 15 29  1  0  0  0
 16 30  1  0  0  0
 16 31  1  0  0  0
M  END
> <s_m_entry_id>
2319

> <s_m_entry_name>
dock_pv.58

> <s_m_Source_Path>
/home/csk/Desktop/cluster/DUD-E-result/akt1

> <s_m_Source_File>
dock_pv.maegz

> <i_m_Source_File_Index>
58

> <chembl_id>
CHEMBL1173273

> <chembl_pref_name>
None

> <i_lp_mmshare_version>
53161

> <i_f3d_flags>
0

> <r_lp_tautomer_probability>
0.999998369746258

> <s_lp_Force_Field>
OPLS_2005

> <r_lp_Energy>
27.727186

> <b_lp_Chiralities_Consistent>
1

> <s_lp_Variant>
CHEMBL4282_lig924-1

> <s_i_glide_gridfile>
glide-grid_3cqw

> <i_i_glide_lignum>
1320

> <i_i_glide_rotatable_bonds>
1

> <r_i_docking_score>
-7.44694216012103

> <r_i_glide_ligand_efficiency>
-0.465433885007565

> <r_i_glide_ligand_efficiency_sa>
-1.17281989702685

> <r_i_glide_ligand_efficiency_ln>
-1.97396077558642

> <r_i_glide_gscore>
-7.44694216012103

> <r_i_glide_lipo>
-1.29825617729811

> <r_i_glide_hbond>
-0.131241992014275

> <r_i_glide_metal>
0

> <r_i_glide_rewards>
-4.15892851072945

> <r_i_glide_evdw>
-34.182731628418

> <r_i_glide_ecoul>
-3.36529564857483

> <r_i_glide_erotb>
0.355415448627927

> <r_i_glide_esite>
0

> <r_i_glide_emodel>
-51.3191472726336

> <r_i_glide_energy>
-37.5480272769928

> <r_i_glide_einternal>
0.743120908737183

> <i_i_glide_confnum>
1

> <i_i_glide_posenum>
302

> <r_i_glide_eff_state_penalty>
0

> <s_user_duplicate_titles>
CHEMBL4282_lig924

> <s_m_subgroup_title>
dock_pv

> <s_m_subgroupid>
dock_pv

> <b_m_subgroup_collapsed>
1

$$$$
CHEMBL4282_lig1371
                    3D
 Schrodinger Suite 2021-1.
 42 44  0  0  1  0            999 V2000
    9.0491    2.1933   17.9512 C   0  0  0  0  0  0
    8.9221    3.2573   17.0477 C   0  0  0  0  0  0
    7.6648    3.6437   16.5853 C   0  0  0  0  0  0
    6.5206    2.9388   16.9726 C   0  0  0  0  0  0
    6.6466    1.8632   17.8536 C   0  0  0  0  0  0
    7.8976    1.5027   18.3463 C   0  0  0  0  0  0
    5.1737    3.3252   16.4475 C   0  0  0  0  0  0
   10.4020    1.7648   18.5600 C   0  0  1  0  0  0
   10.9404    0.4715   17.9271 C   0  0  0  0  0  0
   10.5456   -0.7631   18.4511 C   0  0  0  0  0  0
   11.0379   -1.9504   17.9137 C   0  0  0  0  0  0
   11.9332   -1.9075   16.8479 C   0  0  0  0  0  0
   12.3385   -0.6875   16.3159 C   0  0  0  0  0  0
   11.8491    0.4964   16.8596 C   0  0  0  0  0  0
   12.5532   -3.3734   16.1828 Cl  0  0  0  0  0  0
   11.4608    2.7848   18.5852 N   0  0  1  0  0  0
   11.0810    4.0819   19.1366 C   0  0  0  0  0  0
    4.0727    2.5180   16.1868 C   0  0  0  0  0  0
    3.0659    3.3568   15.7857 N   0  0  0  0  0  0
    3.4407    4.6368   15.7578 N   0  0  0  0  0  0
    4.7042    4.6086   16.1158 C   0  0  0  0  0  0
   12.2909    4.7371   19.8195 C   0  0  0  0  0  0
   12.6416    4.0144   21.0305 N   0  0  0  0  0  0
    9.7963    3.7860   16.6964 H   0  0  0  0  0  0
    7.5889    4.4713   15.8948 H   0  0  0  0  0  0
    5.7764    1.3154   18.1824 H   0  0  0  0  0  0
    7.9637    0.6812   19.0453 H   0  0  0  0  0  0
   10.2182    1.5548   19.6166 H   0  0  0  0  0  0
    9.8550   -0.8108   19.2815 H   0  0  0  0  0  0
   10.7243   -2.8961   18.3307 H   0  0  0  0  0  0
   13.0317   -0.6579   15.4879 H   0  0  0  0  0  0
   12.1714    1.4348   16.4388 H   0  0  0  0  0  0
   12.1798    2.4663   19.2248 H   0  0  0  0  0  0
   10.7979    4.7341   18.3117 H   0  0  0  0  0  0
   10.2052    4.0563   19.7846 H   0  0  0  0  0  0
    3.9108    1.4540   16.2784 H   0  0  0  0  0  0
    2.1245    3.0695   15.5431 H   0  0  0  0  0  0
    5.2797    5.5190   16.1829 H   0  0  0  0  0  0
   13.1429    4.7944   19.1414 H   0  0  0  0  0  0
   12.0389    5.7631   20.0937 H   0  0  0  0  0  0
   13.3812    4.5074   21.5089 H   0  0  0  0  0  0
   11.8350    4.1090   21.6455 H   0  0  0  0  0  0
  1  2  2  0  0  0
  1  6  1  0  0  0
  1  8  1  0  0  0
  2  3  1  0  0  0
  2 24  1  0  0  0
  3  4  2  0  0  0
  3 25  1  0  0  0
  4  5  1  0  0  0
  4  7  1  0  0  0
  5  6  2  0  0  0
  5 26  1  0  0  0
  6 27  1  0  0  0
  7 18  2  0  0  0
  7 21  1  0  0  0
  8  9  1  0  0  0
  8 16  1  0  0  0
  8 28  1  0  0  0
  9 10  2  0  0  0
  9 14  1  0  0  0
 10 11  1  0  0  0
 10 29  1  0  0  0
 11 12  2  0  0  0
 11 30  1  0  0  0
 12 13  1  0  0  0
 12 15  1  0  0  0
 13 14  2  0  0  0
 13 31  1  0  0  0
 14 32  1  0  0  0
 16 17  1  0  0  0
 16 33  1  0  0  0
 17 22  1  0  0  0
 17 34  1  0  0  0
 17 35  1  0  0  0
 18 19  1  0  0  0
 18 36  1  0  0  0
 19 20  1  0  0  0
 19 37  1  0  0  0
 20 21  2  0  0  0
 21 38  1  0  0  0
 22 23  1  0  0  0
 22 39  1  0  0  0
 22 40  1  0  0  0
 23 41  1  0  0  0
 23 42  1  0  0  0
M  END
> <s_m_entry_id>
2320

> <s_m_entry_name>
dock_pv.59

> <s_m_Source_Path>
/home/csk/Desktop/cluster/DUD-E-result/akt1

> <s_m_Source_File>
dock_pv.maegz

> <i_m_Source_File_Index>
59

> <chembl_id>
CHEMBL3113150

> <chembl_pref_name>
None

> <i_lp_mmshare_version>
53161

> <i_f3d_flags>
0

> <r_lp_tautomer_probability>
0.5

> <s_lp_Force_Field>
OPLS_2005

> <r_lp_Energy>
17.637305

> <b_lp_Chiralities_Consistent>
1

> <s_lp_Variant>
CHEMBL4282_lig1371-2

> <s_i_glide_gridfile>
glide-grid_3cqw

> <i_i_glide_lignum>
1898

> <i_i_glide_rotatable_bonds>
6

> <r_i_docking_score>
-7.44433781942745

> <r_i_glide_ligand_efficiency>
-0.323666861714237

> <r_i_glide_ligand_efficiency_sa>
-0.920465499539263

> <r_i_glide_ligand_efficiency_ln>
-1.80010838626089

> <r_i_glide_gscore>
-7.44433781942745

> <r_i_glide_lipo>
-2.22648392090588

> <r_i_glide_hbond>
-0.583807978290239

> <r_i_glide_metal>
0

> <r_i_glide_rewards>
-2.13408587878788

> <r_i_glide_evdw>
-39.8288955688477

> <r_i_glide_ecoul>
-7.48820161819458

> <r_i_glide_erotb>
0.614714979728118

> <r_i_glide_esite>
0

> <r_i_glide_emodel>
-64.8350354488718

> <r_i_glide_energy>
-47.3170971870422

> <r_i_glide_einternal>
8.43198299407959

> <i_i_glide_confnum>
64

> <i_i_glide_posenum>
140

> <r_i_glide_eff_state_penalty>
0

> <s_user_duplicate_titles>
CHEMBL4282_lig1371

> <s_m_subgroup_title>
dock_pv

> <s_m_subgroupid>
dock_pv

> <b_m_subgroup_collapsed>
1

$$$$
CHEMBL4282_lig2225
                    3D
 Schrodinger Suite 2021-1.
 45 48  0  0  1  0            999 V2000
    4.3169    4.9624   15.3855 F   0  0  0  0  0  0
    4.8800    3.8438   15.8973 C   0  0  0  0  0  0
    4.1907    2.6325   15.8534 C   0  0  0  0  0  0
    4.7521    1.4927   16.4273 C   0  0  0  0  0  0
    4.0720    0.3239   16.4042 F   0  0  0  0  0  0
    5.9999    1.5695   17.0494 C   0  0  0  0  0  0
    6.7686    0.5065   17.7683 C   0  0  0  0  0  0
    7.9972    1.2322   18.2916 C   0  0  0  0  0  0
    7.9715    2.5788   17.6991 N   0  0  0  0  0  0
    8.9758    3.5108   17.8167 C   0  0  0  0  0  0
    8.9018    4.5909   17.2263 O   0  0  0  0  0  0
   10.2651    3.3579   18.6766 C   0  0  0  0  0  0
   10.8014    1.9692   18.9904 C   0  0  0  0  0  0
   11.4499    1.2751   18.1119 N   0  0  0  0  0  0
   11.8335   -0.0113   18.4076 C   0  0  0  0  0  0
   11.5459   -0.5627   19.6144 C   0  0  0  0  0  0
   10.8821    0.2047   20.6418 C   0  0  0  0  0  0
   10.6684   -0.1889   21.7815 O   0  0  0  0  0  0
   10.5486    1.4452   20.2269 N   0  0  0  0  0  0
   12.4706   -0.7130   17.3792 N   0  0  0  0  0  0
   12.3071   -0.4586   15.9371 C   0  0  0  0  0  0
   11.3717   -1.5205   15.3114 C   0  0  0  0  0  0
   11.8808   -2.8346   15.5297 O   0  0  0  0  0  0
   12.0716   -3.1117   16.9152 C   0  0  0  0  0  0
   13.0434   -2.0654   17.5071 C   0  0  0  0  0  0
    6.7279    2.7587   17.0349 C   0  0  0  0  0  0
    6.1499    3.9079   16.4757 C   0  0  0  0  0  0
    3.2121    2.5824   15.3972 H   0  0  0  0  0  0
    6.2310    0.0270   18.5841 H   0  0  0  0  0  0
    7.0592   -0.2766   17.0666 H   0  0  0  0  0  0
    8.8769    0.6412   18.0365 H   0  0  0  0  0  0
    7.8979    1.3517   19.3704 H   0  0  0  0  0  0
   11.0598    3.9150   18.1850 H   0  0  0  0  0  0
   10.0863    3.9005   19.6067 H   0  0  0  0  0  0
   11.7775   -1.5810   19.8589 H   0  0  0  0  0  0
   10.1030    2.0139   20.9315 H   0  0  0  0  0  0
   11.8335    0.5097   15.7912 H   0  0  0  0  0  0
   13.2587   -0.2969   15.4310 H   0  0  0  0  0  0
   11.2785   -1.3627   14.2382 H   0  0  0  0  0  0
   10.3618   -1.4276   15.7128 H   0  0  0  0  0  0
   12.4949   -4.1107   17.0198 H   0  0  0  0  0  0
   11.1238   -3.1292   17.4608 H   0  0  0  0  0  0
   14.0559   -2.1257   17.1068 H   0  0  0  0  0  0
   13.2014   -2.3109   18.5568 H   0  0  0  0  0  0
    6.6475    4.8622   16.4758 H   0  0  0  0  0  0
  1  2  1  0  0  0
  2  3  2  0  0  0
  2 27  1  0  0  0
  3  4  1  0  0  0
  3 28  1  0  0  0
  4  5  1  0  0  0
  4  6  2  0  0  0
  6  7  1  0  0  0
  6 26  1  0  0  0
  7  8  1  0  0  0
  7 29  1  0  0  0
  7 30  1  0  0  0
  8  9  1  0  0  0
  8 31  1  0  0  0
  8 32  1  0  0  0
  9 10  1  0  0  0
  9 26  1  0  0  0
 10 11  2  0  0  0
 10 12  1  0  0  0
 12 13  1  0  0  0
 12 33  1  0  0  0
 12 34  1  0  0  0
 13 14  2  0  0  0
 13 19  1  0  0  0
 14 15  1  0  0  0
 15 16  2  0  0  0
 15 20  1  0  0  0
 16 17  1  0  0  0
 16 35  1  0  0  0
 17 18  2  0  0  0
 17 19  1  0  0  0
 19 36  1  0  0  0
 20 21  1  0  0  0
 20 25  1  0  0  0
 21 22  1  0  0  0
 21 37  1  0  0  0
 21 38  1  0  0  0
 22 23  1  0  0  0
 22 39  1  0  0  0
 22 40  1  0  0  0
 23 24  1  0  0  0
 24 25  1  0  0  0
 24 41  1  0  0  0
 24 42  1  0  0  0
 25 43  1  0  0  0
 25 44  1  0  0  0
 26 27  2  0  0  0
 27 45  1  0  0  0
M  END
> <s_m_entry_id>
2321

> <s_m_entry_name>
dock_pv.60

> <s_m_Source_Path>
/home/csk/Desktop/cluster/DUD-E-result/akt1

> <s_m_Source_File>
dock_pv.maegz

> <i_m_Source_File_Index>
60

> <chembl_id>
CHEMBL3696298

> <chembl_pref_name>
None

> <i_lp_mmshare_version>
53161

> <i_f3d_flags>
0

> <r_lp_tautomer_probability>
0.994036381586735

> <s_lp_Force_Field>
OPLS_2005

> <r_lp_Energy>
56.939429

> <b_lp_Chiralities_Consistent>
1

> <s_lp_Variant>
CHEMBL4282_lig2225-1

> <s_i_glide_gridfile>
glide-grid_3cqw

> <i_i_glide_lignum>
2957

> <i_i_glide_rotatable_bonds>
4

> <r_i_docking_score>
-7.3728693350048

> <r_i_glide_ligand_efficiency>
-0.273069234629807

> <r_i_glide_ligand_efficiency_sa>
-0.819207702989431

> <r_i_glide_ligand_efficiency_ln>
-1.71628242993838

> <r_i_glide_gscore>
-7.3728693350048

> <r_i_glide_lipo>
-2.09148697722304

> <r_i_glide_hbond>
-0.32

> <r_i_glide_metal>
0

> <r_i_glide_rewards>
-2.31289581886848

> <r_i_glide_evdw>
-43.778148651123

> <r_i_glide_ecoul>
-6.33448171615601

> <r_i_glide_erotb>
0.546629232099513

> <r_i_glide_esite>
-0.0560360810332401

> <r_i_glide_emodel>
-71.7860795344502

> <r_i_glide_energy>
-50.1126303672791

> <r_i_glide_einternal>
4.31971788406372

> <i_i_glide_confnum>
20

> <i_i_glide_posenum>
154

> <r_i_glide_eff_state_penalty>
0

> <s_user_duplicate_titles>
CHEMBL4282_lig2225

> <s_m_subgroup_title>
dock_pv

> <s_m_subgroupid>
dock_pv

> <b_m_subgroup_collapsed>
1

$$$$
CHEMBL4282_lig2196
                    3D
 Schrodinger Suite 2021-1.
 42 44  0  0  1  0            999 V2000
    3.2552    1.5614   15.5221 F   0  0  0  0  0  0
    4.4419    1.7122   16.1543 C   0  0  0  0  0  0
    5.0803    0.5880   16.6829 C   0  0  0  0  0  0
    6.2866    0.7226   17.3749 C   0  0  0  0  0  0
    6.8862    1.9796   17.5026 C   0  0  0  0  0  0
    8.1042    2.0659   18.1975 N   0  0  0  0  0  0
    9.1097    2.9499   17.9677 C   0  0  0  0  0  0
    9.1016    3.7688   17.0474 O   0  0  0  0  0  0
   10.3417    2.9189   18.8895 C   0  0  0  0  0  0
   10.8043    1.5124   19.2308 C   0  0  0  0  0  0
   11.3957    0.7751   18.3529 N   0  0  0  0  0  0
   11.7347   -0.5177   18.6641 C   0  0  0  0  0  0
   11.4685   -1.0287   19.8946 C   0  0  0  0  0  0
   10.8552   -0.2132   20.9152 C   0  0  0  0  0  0
   10.6541   -0.5684   22.0705 O   0  0  0  0  0  0
   10.5453    1.0269   20.4793 N   0  0  0  0  0  0
   12.3112   -1.2482   17.6252 N   0  0  0  0  0  0
   12.7986   -2.6372   17.7104 C   0  0  0  0  0  0
   11.8832   -3.5796   16.8940 C   0  0  0  0  0  0
   11.8888   -3.1759   15.5274 O   0  0  0  0  0  0
   11.4313   -1.8355   15.3794 C   0  0  0  0  0  0
   12.3185   -0.8712   16.1957 C   0  0  0  0  0  0
    6.2347    3.1060   16.9850 C   0  0  0  0  0  0
    5.0132    2.9794   16.3201 C   0  0  0  0  0  0
    4.3518    4.1844   15.8467 C   0  0  0  0  0  0
    3.8316    5.1485   15.4768 N   0  0  0  0  0  0
    4.6280   -0.3869   16.5804 H   0  0  0  0  0  0
    6.7597   -0.1561   17.7904 H   0  0  0  0  0  0
    8.2555    1.3467   18.8906 H   0  0  0  0  0  0
   11.1585    3.4564   18.4090 H   0  0  0  0  0  0
   10.1007    3.4798   19.7918 H   0  0  0  0  0  0
   11.6872   -2.0415   20.1745 H   0  0  0  0  0  0
   10.1309    1.6242   21.1771 H   0  0  0  0  0  0
   13.8719   -2.7226   17.5416 H   0  0  0  0  0  0
   12.7439   -2.9937   18.7351 H   0  0  0  0  0  0
   10.8686   -3.5907   17.3038 H   0  0  0  0  0  0
   12.2419   -4.6047   16.9679 H   0  0  0  0  0  0
   10.3901   -1.7497   15.6885 H   0  0  0  0  0  0
   11.4407   -1.5657   14.3249 H   0  0  0  0  0  0
   11.8566    0.1065   16.0709 H   0  0  0  0  0  0
   13.3155   -0.6513   15.8087 H   0  0  0  0  0  0
    6.6646    4.0882   17.1316 H   0  0  0  0  0  0
  1  2  1  0  0  0
  2  3  2  0  0  0
  2 24  1  0  0  0
  3  4  1  0  0  0
  3 27  1  0  0  0
  4  5  2  0  0  0
  4 28  1  0  0  0
  5  6  1  0  0  0
  5 23  1  0  0  0
  6  7  1  0  0  0
  6 29  1  0  0  0
  7  8  2  0  0  0
  7  9  1  0  0  0
  9 10  1  0  0  0
  9 30  1  0  0  0
  9 31  1  0  0  0
 10 11  2  0  0  0
 10 16  1  0  0  0
 11 12  1  0  0  0
 12 13  2  0  0  0
 12 17  1  0  0  0
 13 14  1  0  0  0
 13 32  1  0  0  0
 14 15  2  0  0  0
 14 16  1  0  0  0
 16 33  1  0  0  0
 17 18  1  0  0  0
 17 22  1  0  0  0
 18 19  1  0  0  0
 18 34  1  0  0  0
 18 35  1  0  0  0
 19 20  1  0  0  0
 19 36  1  0  0  0
 19 37  1  0  0  0
 20 21  1  0  0  0
 21 22  1  0  0  0
 21 38  1  0  0  0
 21 39  1  0  0  0
 22 40  1  0  0  0
 22 41  1  0  0  0
 23 24  2  0  0  0
 23 42  1  0  0  0
 24 25  1  0  0  0
 25 26  3  0  0  0
M  END
> <s_m_entry_id>
2322

> <s_m_entry_name>
dock_pv.61

> <s_m_Source_Path>
/home/csk/Desktop/cluster/DUD-E-result/akt1

> <s_m_Source_File>
dock_pv.maegz

> <i_m_Source_File_Index>
61

> <chembl_id>
CHEMBL3696245

> <chembl_pref_name>
None

> <i_lp_mmshare_version>
53161

> <i_f3d_flags>
0

> <r_lp_tautomer_probability>
0.994036381586735

> <s_lp_Force_Field>
OPLS_2005

> <r_lp_Energy>
30.537723

> <b_lp_Chiralities_Consistent>
1

> <s_lp_Variant>
CHEMBL4282_lig2196-1

> <s_i_glide_gridfile>
glide-grid_3cqw

> <i_i_glide_lignum>
2927

> <i_i_glide_rotatable_bonds>
5

> <r_i_docking_score>
-7.36816068475173

> <r_i_glide_ligand_efficiency>
-0.283390795567374

> <r_i_glide_ligand_efficiency_sa>
-0.839544116779411

> <r_i_glide_ligand_efficiency_ln>
-1.73038835990678

> <r_i_glide_gscore>
-7.36816068475173

> <r_i_glide_lipo>
-1.8969446504633

> <r_i_glide_hbond>
-0.568432607038641

> <r_i_glide_metal>
0

> <r_i_glide_rewards>
-1.96875600783365

> <r_i_glide_evdw>
-46.6822853088379

> <r_i_glide_ecoul>
-8.67382526397705

> <r_i_glide_erotb>
0.749578877627601

> <r_i_glide_esite>
-0.0484182420052789

> <r_i_glide_emodel>
-79.5534801991845

> <r_i_glide_energy>
-55.3561105728149

> <r_i_glide_einternal>
3.85864543914795

> <i_i_glide_confnum>
120

> <i_i_glide_posenum>
75

> <r_i_glide_eff_state_penalty>
0

> <s_user_duplicate_titles>
CHEMBL4282_lig2196

> <s_m_subgroup_title>
dock_pv

> <s_m_subgroupid>
dock_pv

> <b_m_subgroup_collapsed>
1

$$$$
CHEMBL4282_lig3113
                    3D
 Schrodinger Suite 2021-1.
 30 31  0  0  1  0            999 V2000
    6.1078    0.2370   16.5543 S   0  0  0  0  0  0
    8.8795    5.2877   19.3850 O   0  0  0  0  0  0
    2.7502    2.2370   15.9664 N   0  0  0  0  0  0
    3.2469    4.5970   15.7849 N   0  0  0  0  0  0
    5.6175    5.1120   15.9088 N   0  0  0  0  0  0
    7.2178    3.4861   16.5850 N   0  0  0  0  0  0
    4.9140    2.8358   16.1847 C   0  0  0  0  0  0
    3.5930    3.3200   15.9639 C   0  0  0  0  0  0
    4.8276    1.4068   16.3315 C   0  0  0  0  0  0
    5.9158    3.8238   16.1969 C   0  0  0  0  0  0
    3.4935    1.1009   16.1850 C   0  0  0  0  0  0
    4.3118    5.4339   15.7692 C   0  0  0  0  0  0
    8.3334    4.4205   16.5441 C   0  0  0  0  0  0
    6.7206    0.7083   18.1849 C   0  0  0  0  0  0
    9.5030    3.9775   17.4350 C   0  0  0  0  0  0
    9.2068    3.9860   18.9463 C   0  0  0  0  0  0
    9.1962    5.3572   20.3074 H   0  0  0  0  0  0
    1.7490    2.2414   15.8250 H   0  0  0  0  0  0
    7.4289    2.5000   16.6278 H   0  0  0  0  0  0
    3.0310    0.1277   16.2039 H   0  0  0  0  0  0
    4.0975    6.4870   15.6773 H   0  0  0  0  0  0
    7.9955    5.3965   16.8828 H   0  0  0  0  0  0
    8.6517    4.5579   15.5124 H   0  0  0  0  0  0
    7.2185   -0.1669   18.5850 H   0  0  0  0  0  0
    7.4787    1.4821   18.1276 H   0  0  0  0  0  0
    5.9283    1.0370   18.8560 H   0  0  0  0  0  0
   10.3496    4.6370   17.2584 H   0  0  0  0  0  0
    9.8295    2.9799   17.1396 H   0  0  0  0  0  0
   10.0592    3.6072   19.5117 H   0  0  0  0  0  0
    8.3498    3.3561   19.1838 H   0  0  0  0  0  0
  1  9  1  0  0  0
  1 14  1  0  0  0
  2 16  1  0  0  0
  2 17  1  0  0  0
  3  8  1  0  0  0
  3 11  1  0  0  0
  3 18  1  0  0  0
  4  8  2  0  0  0
  4 12  1  0  0  0
  5 10  1  0  0  0
  5 12  2  0  0  0
  6 10  1  0  0  0
  6 13  1  0  0  0
  6 19  1  0  0  0
  7  8  1  0  0  0
  7  9  1  0  0  0
  7 10  2  0  0  0
  9 11  2  0  0  0
 11 20  1  0  0  0
 12 21  1  0  0  0
 13 15  1  0  0  0
 13 22  1  0  0  0
 13 23  1  0  0  0
 14 24  1  0  0  0
 14 25  1  0  0  0
 14 26  1  0  0  0
 15 16  1  0  0  0
 15 27  1  0  0  0
 15 28  1  0  0  0
 16 29  1  0  0  0
 16 30  1  0  0  0
M  END
> <s_m_entry_id>
2323

> <s_m_entry_name>
dock_pv.62

> <s_m_Source_Path>
/home/csk/Desktop/cluster/DUD-E-result/akt1

> <s_m_Source_File>
dock_pv.maegz

> <i_m_Source_File_Index>
62

> <chembl_id>
CHEMBL2000114

> <chembl_pref_name>
None

> <i_lp_mmshare_version>
53161

> <i_f3d_flags>
0

> <r_lp_tautomer_probability>
1

> <s_lp_Force_Field>
OPLS_2005

> <r_lp_Energy>
5.388893

> <b_lp_Chiralities_Consistent>
1

> <s_lp_Variant>
CHEMBL4282_lig3113-1

> <s_i_glide_gridfile>
glide-grid_3cqw

> <i_i_glide_lignum>
4045

> <i_i_glide_rotatable_bonds>
6

> <r_i_docking_score>
-7.3651263216983

> <r_i_glide_ligand_efficiency>
-0.460320395106144

> <r_i_glide_ligand_efficiency_sa>
-1.1599347099083

> <r_i_glide_ligand_efficiency_ln>
-1.95227385330401

> <r_i_glide_gscore>
-7.3651263216983

> <r_i_glide_lipo>
-1.5932438444489

> <r_i_glide_hbond>
-0.470166004876724

> <r_i_glide_metal>
0

> <r_i_glide_rewards>
-3.4642207403978

> <r_i_glide_evdw>
-26.5070896148682

> <r_i_glide_ecoul>
-9.08677673339844

> <r_i_glide_erotb>
0.850875258778292

> <r_i_glide_esite>
0

> <r_i_glide_emodel>
-51.0529652415233

> <r_i_glide_energy>
-35.5938663482666

> <r_i_glide_einternal>
5.24285411834717

> <i_i_glide_confnum>
29

> <i_i_glide_posenum>
103

> <r_i_glide_eff_state_penalty>
0

> <s_user_duplicate_titles>
CHEMBL4282_lig3113

> <s_m_subgroup_title>
dock_pv

> <s_m_subgroupid>
dock_pv

> <b_m_subgroup_collapsed>
1

$$$$
CHEMBL4282_lig948
                    3D
 Schrodinger Suite 2021-1.
 53 56  0  0  1  0            999 V2000
   11.1864    0.0344   17.9907 C   0  0  0  0  0  0
   11.1512   -0.2381   19.3634 C   0  0  0  0  0  0
   11.8100   -1.3646   19.8641 C   0  0  0  0  0  0
   12.5128   -2.2038   19.0045 C   0  0  0  0  0  0
   12.5553   -1.9181   17.6423 C   0  0  0  0  0  0
   11.8952   -0.8021   17.1307 C   0  0  0  0  0  0
   10.3721    0.6625   20.3261 C   0  0  0  0  0  0
   11.0087    2.0560   20.6135 C   0  0  1  0  0  0
   12.3574    1.9383   21.2124 N   0  0  0  0  0  0
   11.0339    3.0284   19.3852 C   0  0  0  0  0  0
    9.8769    3.6297   18.9855 N   0  0  0  0  0  0
   12.1073    3.2112   18.7976 O   0  0  0  0  0  0
    9.8384    4.5432   17.8384 C   0  0  0  0  0  0
    8.9099    3.9412   16.7609 C   0  0  0  0  0  0
    7.5987    3.4857   17.2526 N   0  0  0  0  0  0
    7.6582    2.7604   18.5331 C   0  0  0  0  0  0
    8.5635    3.4039   19.6016 C   0  0  0  0  0  0
    6.3965    3.7572   16.6071 C   0  0  0  0  0  0
    3.9638    4.6053   15.5639 N   0  0  0  0  0  0
    5.0294    5.4081   15.7615 C   0  0  0  0  0  0
    6.2556    5.0370   16.1850 N   0  0  0  0  0  0
    4.1466    3.2883   15.8539 C   0  0  0  0  0  0
    5.3509    2.7954   16.4500 C   0  0  0  0  0  0
    5.4316    1.4173   16.7946 C   0  0  0  0  0  0
    4.3773    0.5586   16.5074 C   0  0  0  0  0  0
    3.2843    1.0362   15.7867 C   0  0  0  0  0  0
    3.1252    2.3833   15.5112 C   0  0  0  0  0  0
   13.4302   -2.9625   16.5853 Cl  0  0  0  0  0  0
    4.4192   -0.8874   16.9852 C   0  0  0  0  0  0
   10.6663    0.8919   17.5889 H   0  0  0  0  0  0
   11.7785   -1.5912   20.9202 H   0  0  0  0  0  0
   13.0198   -3.0739   19.3950 H   0  0  0  0  0  0
   11.9295   -0.5875   16.0726 H   0  0  0  0  0  0
    9.3544    0.7565   19.9485 H   0  0  0  0  0  0
   10.2201    0.1398   21.2709 H   0  0  0  0  0  0
   10.4137    2.5569   21.3780 H   0  0  0  0  0  0
   12.7705    2.8595   21.2780 H   0  0  0  0  0  0
   12.2996    1.5935   22.1591 H   0  0  0  0  0  0
    9.4410    5.5031   18.1701 H   0  0  0  0  0  0
   10.8256    4.7574   17.4407 H   0  0  0  0  0  0
    9.3853    3.0491   16.3524 H   0  0  0  0  0  0
    8.7993    4.6380   15.9298 H   0  0  0  0  0  0
    8.0401    1.7648   18.3053 H   0  0  0  0  0  0
    6.6572    2.6352   18.9493 H   0  0  0  0  0  0
    8.5773    2.8030   20.5077 H   0  0  0  0  0  0
    8.1485    4.3642   19.9114 H   0  0  0  0  0  0
    4.9046    6.4461   15.4913 H   0  0  0  0  0  0
    6.3114    1.0204   17.2717 H   0  0  0  0  0  0
    2.5367    0.3436   15.4395 H   0  0  0  0  0  0
    2.2363    2.7350   15.0070 H   0  0  0  0  0  0
    3.6886   -1.0514   17.7844 H   0  0  0  0  0  0
    4.1576   -1.5745   16.1851 H   0  0  0  0  0  0
    5.4092   -1.1632   17.3549 H   0  0  0  0  0  0
  1  6  1  0  0  0
  1  2  2  0  0  0
  1 30  1  0  0  0
  2  3  1  0  0  0
  2  7  1  0  0  0
  3  4  2  0  0  0
  3 31  1  0  0  0
  4  5  1  0  0  0
  4 32  1  0  0  0
  5  6  2  0  0  0
  5 28  1  0  0  0
  6 33  1  0  0  0
  7  8  1  0  0  0
  7 34  1  0  0  0
  7 35  1  0  0  0
  8  9  1  0  0  0
  8 10  1  0  0  0
  8 36  1  0  0  0
  9 37  1  0  0  0
  9 38  1  0  0  0
 10 11  1  0  0  0
 10 12  2  0  0  0
 11 17  1  0  0  0
 11 13  1  0  0  0
 13 14  1  0  0  0
 13 39  1  0  0  0
 13 40  1  0  0  0
 14 15  1  0  0  0
 14 41  1  0  0  0
 14 42  1  0  0  0
 15 16  1  0  0  0
 15 18  1  0  0  0
 16 17  1  0  0  0
 16 43  1  0  0  0
 16 44  1  0  0  0
 17 45  1  0  0  0
 17 46  1  0  0  0
 18 23  2  0  0  0
 18 21  1  0  0  0
 19 22  2  0  0  0
 19 20  1  0  0  0
 20 21  2  0  0  0
 20 47  1  0  0  0
 22 23  1  0  0  0
 22 27  1  0  0  0
 23 24  1  0  0  0
 24 25  2  0  0  0
 24 48  1  0  0  0
 25 26  1  0  0  0
 25 29  1  0  0  0
 26 27  2  0  0  0
 26 49  1  0  0  0
 27 50  1  0  0  0
 29 51  1  0  0  0
 29 52  1  0  0  0
 29 53  1  0  0  0
M  END
> <s_m_entry_id>
2324

> <s_m_entry_name>
dock_pv.63

> <s_m_Source_Path>
/home/csk/Desktop/cluster/DUD-E-result/akt1

> <s_m_Source_File>
dock_pv.maegz

> <i_m_Source_File_Index>
63

> <chembl_id>
CHEMBL1257511

> <chembl_pref_name>
None

> <i_lp_mmshare_version>
53161

> <i_f3d_flags>
0

> <r_lp_tautomer_probability>
1

> <s_lp_Force_Field>
OPLS_2005

> <r_lp_Energy>
41.750993

> <b_lp_Chiralities_Consistent>
1

> <s_lp_Variant>
CHEMBL4282_lig948-1

> <s_i_glide_gridfile>
glide-grid_3cqw

> <i_i_glide_lignum>
1344

> <i_i_glide_rotatable_bonds>
5

> <r_i_docking_score>
-7.33823373546212

> <r_i_glide_ligand_efficiency>
-0.253042542602142

> <r_i_glide_ligand_efficiency_sa>
-0.77742686037828

> <r_i_glide_ligand_efficiency_ln>
-1.68026944386885

> <r_i_glide_gscore>
-7.33823373546212

> <r_i_glide_lipo>
-2.69496344034322

> <r_i_glide_hbond>
0

> <r_i_glide_metal>
0

> <r_i_glide_rewards>
-2.18167363996288

> <r_i_glide_evdw>
-41.3883895874023

> <r_i_glide_ecoul>
-4.73609209060669

> <r_i_glide_erotb>
0.468857698927157

> <r_i_glide_esite>
-0.150621061122048

> <r_i_glide_emodel>
-61.6864378465981

> <r_i_glide_energy>
-46.124481678009

> <r_i_glide_einternal>
2.8825376033783

> <i_i_glide_confnum>
18

> <i_i_glide_posenum>
42

> <r_i_glide_eff_state_penalty>
0

> <s_user_duplicate_titles>
CHEMBL4282_lig948

> <s_m_subgroup_title>
dock_pv

> <s_m_subgroupid>
dock_pv

> <b_m_subgroup_collapsed>
1

$$$$
CHEMBL4282_lig1275
                    3D
 Schrodinger Suite 2021-1.
 64 67  0  0  1  0            999 V2000
    5.0307    1.3681   16.9850 C   0  0  1  0  0  0
    8.5133    3.4005   19.4374 C   0  0  0  0  0  0
    7.6584    2.7568   18.3238 C   0  0  0  0  0  0
    7.3922    3.5718   17.1228 N   0  0  0  0  0  0
    8.5944    4.2743   16.6633 C   0  0  0  0  0  0
    9.3407    5.0022   17.7903 C   0  0  0  0  0  0
    9.6870    4.0163   18.8099 N   0  0  0  0  0  0
    6.1243    3.7894   16.5850 C   0  0  0  0  0  0
    3.5649    4.5179   15.7413 N   0  0  0  0  0  0
    4.6310    5.3499   15.7124 C   0  0  0  0  0  0
    5.8980    5.0370   16.0813 N   0  0  0  0  0  0
   10.9939    3.7664   19.1094 C   0  0  0  0  0  0
   11.9161    4.3979   18.5851 O   0  0  0  0  0  0
   11.3875    2.5905   20.0433 C   0  0  2  0  0  0
   12.6555    2.8527   20.9125 C   0  0  0  0  0  0
   11.5230    1.3285   19.1762 C   0  0  0  0  0  0
   12.6310    4.1667   21.5552 N   0  0  2  0  0  0
   13.6104    4.4118   22.6019 C   0  0  0  0  0  0
   13.2512    3.6184   23.8674 C   0  0  0  0  0  0
   13.6080    5.9248   22.8711 C   0  0  0  0  0  0
    3.8321    3.2533   16.1462 C   0  0  0  0  0  0
    5.0938    2.8287   16.5796 C   0  0  0  0  0  0
    3.7036    0.8990   16.3726 C   0  0  0  0  0  0
    2.8230    2.1351   16.1781 C   0  0  0  0  0  0
   10.5447    0.3295   19.2361 C   0  0  0  0  0  0
   10.6092   -0.7647   18.3765 C   0  0  0  0  0  0
   11.6430   -0.8616   17.4474 C   0  0  0  0  0  0
   12.6309    0.1177   17.3910 C   0  0  0  0  0  0
   12.5743    1.2062   18.2560 C   0  0  0  0  0  0
   11.6936   -2.1913   16.3464 Cl  0  0  0  0  0  0
    6.1886    0.5092   16.5378 C   0  0  0  0  0  0
    6.9802   -0.1630   17.3850 C   0  0  0  0  0  0
    5.0310    1.3284   18.0688 H   0  0  0  0  0  0
    7.9368    4.1866   19.9278 H   0  0  0  0  0  0
    8.7256    2.6656   20.2083 H   0  0  0  0  0  0
    6.7318    2.4087   18.7745 H   0  0  0  0  0  0
    8.2140    1.8958   17.9602 H   0  0  0  0  0  0
    9.2419    3.5171   16.2184 H   0  0  0  0  0  0
    8.3715    4.9761   15.8625 H   0  0  0  0  0  0
   10.2310    5.4370   17.3850 H   0  0  0  0  0  0
    8.7434    5.8112   18.2122 H   0  0  0  0  0  0
    4.4585    6.3639   15.3850 H   0  0  0  0  0  0
   10.6038    2.4427   20.7812 H   0  0  0  0  0  0
   12.7363    2.0597   21.6559 H   0  0  0  0  0  0
   13.5546    2.8070   20.2971 H   0  0  0  0  0  0
   11.6847    4.5093   21.7850 H   0  0  0  0  0  0
   14.6003    4.1261   22.2416 H   0  0  0  0  0  0
   13.9143    3.8796   24.6924 H   0  0  0  0  0  0
   12.2309    3.8377   24.1850 H   0  0  0  0  0  0
   13.3325    2.5425   23.7195 H   0  0  0  0  0  0
   14.3317    6.1887   23.6423 H   0  0  0  0  0  0
   13.8672    6.4911   21.9752 H   0  0  0  0  0  0
   12.6312    6.2766   23.2075 H   0  0  0  0  0  0
    3.9026    0.4927   15.3856 H   0  0  0  0  0  0
    3.2220    0.1105   16.9515 H   0  0  0  0  0  0
    2.2463    2.0620   15.2543 H   0  0  0  0  0  0
    2.1054    2.2647   16.9850 H   0  0  0  0  0  0
    9.7174    0.4040   19.9283 H   0  0  0  0  0  0
    9.8426   -1.5244   18.4263 H   0  0  0  0  0  0
   13.4302    0.0451   16.6696 H   0  0  0  0  0  0
   13.3280    1.9770   18.1856 H   0  0  0  0  0  0
    6.3642    0.4569   15.4734 H   0  0  0  0  0  0
    6.8160   -0.1398   18.4536 H   0  0  0  0  0  0
    7.8193   -0.7350   17.0337 H   0  0  0  0  0  0
  1 22  1  0  0  0
  1 23  1  0  0  0
  1 31  1  0  0  0
  1 33  1  0  0  0
  2  3  1  0  0  0
  2  7  1  0  0  0
  2 34  1  0  0  0
  2 35  1  0  0  0
  3  4  1  0  0  0
  3 36  1  0  0  0
  3 37  1  0  0  0
  4  5  1  0  0  0
  4  8  1  0  0  0
  5  6  1  0  0  0
  5 38  1  0  0  0
  5 39  1  0  0  0
  6  7  1  0  0  0
  6 40  1  0  0  0
  6 41  1  0  0  0
  7 12  1  0  0  0
  8 22  1  0  0  0
  8 11  2  0  0  0
  9 21  1  0  0  0
  9 10  2  0  0  0
 10 11  1  0  0  0
 10 42  1  0  0  0
 12 13  2  0  0  0
 12 14  1  0  0  0
 14 15  1  0  0  0
 14 16  1  0  0  0
 14 43  1  0  0  0
 15 17  1  0  0  0
 15 44  1  0  0  0
 15 45  1  0  0  0
 16 25  2  0  0  0
 16 29  1  0  0  0
 17 18  1  0  0  0
 17 46  1  0  0  0
 18 19  1  0  0  0
 18 20  1  0  0  0
 18 47  1  0  0  0
 19 48  1  0  0  0
 19 49  1  0  0  0
 19 50  1  0  0  0
 20 51  1  0  0  0
 20 52  1  0  0  0
 20 53  1  0  0  0
 21 22  2  0  0  0
 21 24  1  0  0  0
 23 24  1  0  0  0
 23 54  1  0  0  0
 23 55  1  0  0  0
 24 56  1  0  0  0
 24 57  1  0  0  0
 25 26  1  0  0  0
 25 58  1  0  0  0
 26 27  2  0  0  0
 26 59  1  0  0  0
 27 28  1  0  0  0
 27 30  1  0  0  0
 28 29  2  0  0  0
 28 60  1  0  0  0
 29 61  1  0  0  0
 31 32  2  0  0  0
 31 62  1  0  0  0
 32 63  1  0  0  0
 32 64  1  0  0  0
M  END
> <s_m_entry_id>
2325

> <s_m_entry_name>
dock_pv.64

> <s_m_Source_Path>
/home/csk/Desktop/cluster/DUD-E-result/akt1

> <s_m_Source_File>
dock_pv.maegz

> <i_m_Source_File_Index>
64

> <chembl_id>
CHEMBL2177387

> <chembl_pref_name>
None

> <i_lp_mmshare_version>
53161

> <i_f3d_flags>
0

> <r_lp_tautomer_probability>
1

> <s_lp_Force_Field>
OPLS_2005

> <r_lp_Energy>
51.641511

> <b_lp_Chiralities_Consistent>
1

> <s_lp_Variant>
CHEMBL4282_lig1275-1

> <s_i_glide_gridfile>
glide-grid_3cqw

> <i_i_glide_lignum>
1756

> <i_i_glide_rotatable_bonds>
8

> <r_i_docking_score>
-7.33528513603302

> <r_i_glide_ligand_efficiency>
-0.229227660501032

> <r_i_glide_ligand_efficiency_sa>
-0.727752457998362

> <r_i_glide_ligand_efficiency_ln>
-1.64257029427877

> <r_i_glide_gscore>
-7.33528513603302

> <r_i_glide_lipo>
-2.77218214928579

> <r_i_glide_hbond>
-0.333104887676239

> <r_i_glide_metal>
0

> <r_i_glide_rewards>
-1.64152432193284

> <r_i_glide_evdw>
-41.2614288330078

> <r_i_glide_ecoul>
-6.9695348739624

> <r_i_glide_erotb>
0.681845549184138

> <r_i_glide_esite>
-0.161817653577543

> <r_i_glide_emodel>
-66.4197829926711

> <r_i_glide_energy>
-48.2309637069702

> <r_i_glide_einternal>
8.39447689056396

> <i_i_glide_confnum>
106

> <i_i_glide_posenum>
12

> <r_i_glide_eff_state_penalty>
0

> <s_user_duplicate_titles>
CHEMBL4282_lig1275

> <s_m_subgroup_title>
dock_pv

> <s_m_subgroupid>
dock_pv

> <b_m_subgroup_collapsed>
1

$$$$
CHEMBL4282_lig3348
                    3D
 Schrodinger Suite 2021-1.
 20 22  0  0  1  0            999 V2000
    4.0248    4.2390   15.7860 C   0  0  0  0  0  0
    3.0310    3.3155   15.6044 N   0  0  0  0  0  0
    3.8313    5.4327   15.5633 O   0  0  0  0  0  0
    6.7493    4.3553   16.5816 S   0  0  0  0  0  0
    9.8267    4.0148   17.8755 Cl  0  0  0  0  0  0
    3.1046    1.9528   15.7823 C   0  0  0  0  0  0
    4.1727    1.3951   16.2374 N   0  0  0  0  0  0
    5.8672   -0.8690   17.5762 Cl  0  0  0  0  0  0
    5.2449    2.1996   16.5321 C   0  0  0  0  0  0
    5.2343    3.5702   16.2689 C   0  0  0  0  0  0
    7.4117    2.8727   17.2369 C   0  0  0  0  0  0
    8.6947    2.7112   17.7847 C   0  0  0  0  0  0
    9.0515    1.4573   18.2582 C   0  0  0  0  0  0
    8.1710    0.3891   18.1844 C   0  0  0  0  0  0
    6.8968    0.5223   17.6324 C   0  0  0  0  0  0
    6.4806    1.7839   17.1446 C   0  0  0  0  0  0
    2.1502    3.6897   15.2765 H   0  0  0  0  0  0
    2.2315    1.3709   15.5126 H   0  0  0  0  0  0
   10.0255    1.3118   18.7024 H   0  0  0  0  0  0
    8.4833   -0.5629   18.5844 H   0  0  0  0  0  0
  1  3  2  0  0  0
  1 10  1  0  0  0
  1  2  1  0  0  0
  2  6  1  0  0  0
  2 17  1  0  0  0
  4 10  1  0  0  0
  4 11  1  0  0  0
  5 12  1  0  0  0
  6  7  2  0  0  0
  6 18  1  0  0  0
  7  9  1  0  0  0
  8 15  1  0  0  0
  9 10  2  0  0  0
  9 16  1  0  0  0
 11 12  1  0  0  0
 11 16  2  0  0  0
 12 13  2  0  0  0
 13 14  1  0  0  0
 13 19  1  0  0  0
 14 15  2  0  0  0
 14 20  1  0  0  0
 15 16  1  0  0  0
M  END
> <s_m_entry_id>
2326

> <s_m_entry_name>
dock_pv.65

> <s_m_Source_Path>
/home/csk/Desktop/cluster/DUD-E-result/akt1

> <s_m_Source_File>
dock_pv.maegz

> <i_m_Source_File_Index>
65

> <chembl_id>
CHEMBL583144

> <chembl_pref_name>
None

> <i_lp_mmshare_version>
53161

> <i_f3d_flags>
0

> <r_lp_tautomer_probability>
1

> <s_lp_Force_Field>
OPLS_2005

> <r_lp_Energy>
19.716585

> <b_lp_Chiralities_Consistent>
1

> <s_lp_Variant>
CHEMBL4282_lig3348-1

> <s_i_glide_gridfile>
glide-grid_3cqw

> <i_i_glide_lignum>
4408

> <i_i_glide_rotatable_bonds>
0

> <r_i_docking_score>
-7.31791659498684

> <r_i_glide_ligand_efficiency>
-0.457369787186677

> <r_i_glide_ligand_efficiency_sa>
-1.15249964385973

> <r_i_glide_ligand_efficiency_ln>
-1.93975997220344

> <r_i_glide_gscore>
-7.31791659498684

> <r_i_glide_lipo>
-1.3341594633703

> <r_i_glide_hbond>
-0.608

> <r_i_glide_metal>
0

> <r_i_glide_rewards>
-2.94719193939394

> <r_i_glide_evdw>
-30.1249885559082

> <r_i_glide_ecoul>
-6.1487717628479

> <r_i_glide_erotb>
0

> <r_i_glide_esite>
0

> <r_i_glide_emodel>
-51.5738265365164

> <r_i_glide_energy>
-36.2737603187561

> <r_i_glide_einternal>
0

> <i_i_glide_confnum>
1

> <i_i_glide_posenum>
27

> <r_i_glide_eff_state_penalty>
0

> <s_user_duplicate_titles>
CHEMBL4282_lig3348

> <s_m_subgroup_title>
dock_pv

> <s_m_subgroupid>
dock_pv

> <b_m_subgroup_collapsed>
1

$$$$
CHEMBL4282_lig843
                    3D
 Schrodinger Suite 2021-1.
 49 52  0  0  1  0            999 V2000
   11.5161   -3.2654   21.6680 C   0  0  0  0  0  0
   10.6308   -3.5528   22.7093 C   0  0  0  0  0  0
    9.7673   -4.6376   22.6140 C   0  0  0  0  0  0
    9.7693   -5.4379   21.4656 C   0  0  0  0  0  0
   10.6640   -5.1528   20.4264 C   0  0  0  0  0  0
   11.5358   -4.0728   20.5293 C   0  0  0  0  0  0
    6.6210    1.7620   17.1744 C   0  0  0  0  0  0
    7.6205    2.7403   17.3010 C   0  0  0  0  0  0
    7.3528    4.0398   16.8410 C   0  0  0  0  0  0
    6.1076    4.3690   16.2989 C   0  0  0  0  0  0
    8.9727    2.4335   17.8712 C   0  0  0  0  0  0
    9.5264    0.7971   18.1852 S   0  0  0  0  0  0
   11.0562    1.4430   18.6987 C   0  0  0  0  0  0
   11.1331    2.7427   18.6594 N   0  0  0  0  0  0
   10.0149    3.2927   18.2288 C   0  0  0  0  0  0
   12.1110    0.6500   19.0823 N   0  0  0  0  0  0
   12.0882   -0.7115   19.6132 C   0  0  0  0  0  0
   11.9894   -0.7496   21.1532 C   0  0  2  0  0  0
   12.4654   -2.0773   21.7896 C   0  0  0  0  0  0
   10.6311   -0.4370   21.5650 N   0  0  0  0  0  0
    8.7892   -6.6001   21.3171 C   0  0  0  0  0  0
    7.8279   -6.5638   22.2397 F   0  0  0  0  0  0
    8.2107   -6.5618   20.1150 F   0  0  0  0  0  0
    9.4379   -7.7577   21.4382 F   0  0  0  0  0  0
    5.3871    2.0885   16.6082 C   0  0  0  0  0  0
    5.1244    3.3851   16.2134 C   0  0  0  0  0  0
    3.6987    3.4993   15.7851 C   0  0  0  0  0  0
    3.2247    2.2463   15.8628 N   0  0  0  0  0  0
    4.1840    1.2464   16.3201 C   0  0  0  0  0  0
    3.0714    4.4968   15.4341 O   0  0  0  0  0  0
   10.5975   -2.9307   23.5920 H   0  0  0  0  0  0
    9.0855   -4.8346   23.4316 H   0  0  0  0  0  0
   10.6766   -5.7672   19.5385 H   0  0  0  0  0  0
   12.2185   -3.8620   19.7210 H   0  0  0  0  0  0
    6.8043    0.7519   17.5091 H   0  0  0  0  0  0
    8.1064    4.8107   16.9103 H   0  0  0  0  0  0
    5.9082    5.3835   15.9863 H   0  0  0  0  0  0
    9.9748    4.3710   18.1703 H   0  0  0  0  0  0
   12.9669    1.1230   19.3331 H   0  0  0  0  0  0
   13.0081   -1.1980   19.2872 H   0  0  0  0  0  0
   11.2825   -1.2901   19.1599 H   0  0  0  0  0  0
   12.6357    0.0341   21.5526 H   0  0  0  0  0  0
   12.6573   -1.9048   22.8493 H   0  0  0  0  0  0
   13.4407   -2.3573   21.3874 H   0  0  0  0  0  0
   10.3462    0.4248   21.1141 H   0  0  0  0  0  0
   10.0100   -1.1530   21.1970 H   0  0  0  0  0  0
    2.2629    2.0299   15.6498 H   0  0  0  0  0  0
    4.3764    0.5152   15.5380 H   0  0  0  0  0  0
    3.8308    0.7009   17.1938 H   0  0  0  0  0  0
  1 19  1  0  0  0
  1  6  1  0  0  0
  1  2  2  0  0  0
  2  3  1  0  0  0
  2 31  1  0  0  0
  3  4  2  0  0  0
  3 32  1  0  0  0
  4  5  1  0  0  0
  4 21  1  0  0  0
  5  6  2  0  0  0
  5 33  1  0  0  0
  6 34  1  0  0  0
  7  8  2  0  0  0
  7 25  1  0  0  0
  7 35  1  0  0  0
  8  9  1  0  0  0
  8 11  1  0  0  0
  9 10  2  0  0  0
  9 36  1  0  0  0
 10 26  1  0  0  0
 10 37  1  0  0  0
 11 15  2  0  0  0
 11 12  1  0  0  0
 12 13  1  0  0  0
 13 14  2  0  0  0
 13 16  1  0  0  0
 14 15  1  0  0  0
 15 38  1  0  0  0
 16 17  1  0  0  0
 16 39  1  0  0  0
 17 18  1  0  0  0
 17 40  1  0  0  0
 17 41  1  0  0  0
 18 19  1  0  0  0
 18 20  1  0  0  0
 18 42  1  0  0  0
 19 43  1  0  0  0
 19 44  1  0  0  0
 20 45  1  0  0  0
 20 46  1  0  0  0
 21 22  1  0  0  0
 21 23  1  0  0  0
 21 24  1  0  0  0
 25 26  2  0  0  0
 25 29  1  0  0  0
 26 27  1  0  0  0
 27 28  1  0  0  0
 27 30  2  0  0  0
 28 29  1  0  0  0
 28 47  1  0  0  0
 29 48  1  0  0  0
 29 49  1  0  0  0
M  END
> <s_m_entry_id>
2327

> <s_m_entry_name>
dock_pv.66

> <s_m_Source_Path>
/home/csk/Desktop/cluster/DUD-E-result/akt1

> <s_m_Source_File>
dock_pv.maegz

> <i_m_Source_File_Index>
66

> <chembl_id>
CHEMBL1081029

> <chembl_pref_name>
None

> <i_lp_mmshare_version>
53161

> <i_f3d_flags>
0

> <r_lp_tautomer_probability>
1

> <s_lp_Force_Field>
OPLS_2005

> <r_lp_Energy>
30.141039

> <b_lp_Chiralities_Consistent>
1

> <s_lp_Variant>
CHEMBL4282_lig843-1

> <s_i_glide_gridfile>
glide-grid_3cqw

> <i_i_glide_lignum>
1228

> <i_i_glide_rotatable_bonds>
7

> <r_i_docking_score>
-7.30849397824137

> <r_i_glide_ligand_efficiency>
-0.243616465941379

> <r_i_glide_ligand_efficiency_sa>
-0.756973001100449

> <r_i_glide_ligand_efficiency_ln>
-1.66056946427639

> <r_i_glide_gscore>
-7.30849397824137

> <r_i_glide_lipo>
-1.76517819427649

> <r_i_glide_hbond>
-0.608

> <r_i_glide_metal>
0

> <r_i_glide_rewards>
-2.58912014093037

> <r_i_glide_evdw>
-42.0748977661133

> <r_i_glide_ecoul>
-5.84233045578003

> <r_i_glide_erotb>
0.638379599187204

> <r_i_glide_esite>
-0.00448078554904131

> <r_i_glide_emodel>
-66.405467745288

> <r_i_glide_energy>
-47.9172282218933

> <r_i_glide_einternal>
4.52665901184082

> <i_i_glide_confnum>
12

> <i_i_glide_posenum>
45

> <r_i_glide_eff_state_penalty>
0

> <s_user_duplicate_titles>
CHEMBL4282_lig843,613178

> <s_m_subgroup_title>
dock_pv

> <s_m_subgroupid>
dock_pv

> <b_m_subgroup_collapsed>
1

$$$$
CHEMBL4282_lig350
                    3D
 Schrodinger Suite 2021-1.
 50 54  0  0  1  0            999 V2000
   12.1133   -3.3144   17.9521 C   0  0  0  0  0  0
   11.7206   -2.1538   15.3849 C   0  0  0  0  0  0
   11.6046   -3.5259   15.5940 C   0  0  0  0  0  0
   11.7939   -4.0989   16.8457 C   0  0  0  0  0  0
   12.0650   -1.3699   16.4892 C   0  0  0  0  0  0
   12.2556   -1.9248   17.7937 C   0  0  0  0  0  0
   12.5560   -0.8399   18.6909 C   0  0  0  0  0  0
   12.5933    0.2955   17.9001 C   0  0  0  0  0  0
   12.2850   -0.0143   16.6030 N   0  0  0  0  0  0
   12.7590   -0.9088   20.1950 C   0  0  0  0  0  0
    8.1061    2.4671   17.9713 C   0  0  0  0  0  0
    8.8219    3.6222   17.6215 C   0  0  0  0  0  0
   10.0014    3.9791   18.1832 N   0  0  0  0  0  0
   10.5335    3.1494   19.1104 C   0  0  0  0  0  0
    9.9375    1.9531   19.5034 C   0  0  0  0  0  0
    8.6920    1.6319   18.9370 C   0  0  0  0  0  0
   10.6223    1.1633   20.4070 O   0  0  0  0  0  0
   10.2620   -0.2113   20.5069 C   0  0  0  0  0  0
   11.4528   -1.0483   21.0257 C   0  0  1  0  0  0
   11.0443   -2.4431   21.0927 N   0  0  0  0  0  0
    6.7839    2.1488   17.3466 C   0  0  0  0  0  0
    6.3606    0.8220   17.1750 C   0  0  0  0  0  0
    5.1367    0.4985   16.5851 C   0  0  0  0  0  0
    5.9471    3.1878   16.9199 C   0  0  0  0  0  0
    4.6979    2.8925   16.3603 C   0  0  0  0  0  0
    4.2907    1.5395   16.1849 C   0  0  0  0  0  0
    3.0310    1.4374   15.6583 N   0  0  0  0  0  0
    2.6352    2.7171   15.5324 N   0  0  0  0  0  0
    3.5915    3.6308   15.8840 C   0  0  0  0  0  0
    3.4425    5.3316   15.7837 Cl  0  0  0  0  0  0
   12.2561   -3.7696   18.9219 H   0  0  0  0  0  0
   11.5656   -1.7244   14.4080 H   0  0  0  0  0  0
   11.3651   -4.1622   14.7552 H   0  0  0  0  0  0
   11.6920   -5.1686   16.9617 H   0  0  0  0  0  0
   12.7823    1.3238   18.1752 H   0  0  0  0  0  0
   12.2236    0.6816   15.8763 H   0  0  0  0  0  0
   13.4608   -1.7024   20.4583 H   0  0  0  0  0  0
   13.2543    0.0081   20.5170 H   0  0  0  0  0  0
    8.4514    4.3084   16.8757 H   0  0  0  0  0  0
   11.4704    3.4594   19.5475 H   0  0  0  0  0  0
    8.1743    0.7394   19.2541 H   0  0  0  0  0  0
    9.9469   -0.6125   19.5402 H   0  0  0  0  0  0
    9.4112   -0.3099   21.1776 H   0  0  0  0  0  0
   11.6753   -0.7256   22.0450 H   0  0  0  0  0  0
   10.1898   -2.5261   21.6298 H   0  0  0  0  0  0
   10.7845   -2.7385   20.1614 H   0  0  0  0  0  0
    6.9954    0.0114   17.5025 H   0  0  0  0  0  0
    4.8371   -0.5324   16.4752 H   0  0  0  0  0  0
    6.2319    4.2210   17.0636 H   0  0  0  0  0  0
    1.7176    2.9634   15.1650 H   0  0  0  0  0  0
  1  4  2  0  0  0
  1  6  1  0  0  0
  1 31  1  0  0  0
  2  5  1  0  0  0
  2  3  2  0  0  0
  2 32  1  0  0  0
  3  4  1  0  0  0
  3 33  1  0  0  0
  4 34  1  0  0  0
  5  9  1  0  0  0
  5  6  2  0  0  0
  6  7  1  0  0  0
  7  8  2  0  0  0
  7 10  1  0  0  0
  8  9  1  0  0  0
  8 35  1  0  0  0
  9 36  1  0  0  0
 10 19  1  0  0  0
 10 37  1  0  0  0
 10 38  1  0  0  0
 11 16  1  0  0  0
 11 12  2  0  0  0
 11 21  1  0  0  0
 12 13  1  0  0  0
 12 39  1  0  0  0
 13 14  2  0  0  0
 14 15  1  0  0  0
 14 40  1  0  0  0
 15 16  2  0  0  0
 15 17  1  0  0  0
 16 41  1  0  0  0
 17 18  1  0  0  0
 18 19  1  0  0  0
 18 42  1  0  0  0
 18 43  1  0  0  0
 19 20  1  0  0  0
 19 44  1  0  0  0
 20 45  1  0  0  0
 20 46  1  0  0  0
 21 22  1  0  0  0
 21 24  2  0  0  0
 22 23  2  0  0  0
 22 47  1  0  0  0
 23 26  1  0  0  0
 23 48  1  0  0  0
 24 49  1  0  0  0
 24 25  1  0  0  0
 25 26  1  0  0  0
 25 29  2  0  0  0
 26 27  2  0  0  0
 27 28  1  0  0  0
 28 50  1  0  0  0
 28 29  1  0  0  0
 29 30  1  0  0  0
M  END
> <s_m_entry_id>
2328

> <s_m_entry_name>
dock_pv.67

> <s_m_Source_Path>
/home/csk/Desktop/cluster/DUD-E-result/akt1

> <s_m_Source_File>
dock_pv.maegz

> <i_m_Source_File_Index>
67

> <chembl_id>
CHEMBL226148

> <chembl_pref_name>
None

> <i_lp_mmshare_version>
53161

> <i_f3d_flags>
0

> <r_lp_tautomer_probability>
0.0196078431372549

> <s_lp_Force_Field>
OPLS_2005

> <r_lp_Energy>
40.817112

> <b_lp_Chiralities_Consistent>
1

> <s_lp_Variant>
CHEMBL4282_lig350-2

> <s_i_glide_gridfile>
glide-grid_3cqw

> <i_i_glide_lignum>
436

> <i_i_glide_rotatable_bonds>
6

> <r_i_docking_score>
-7.29390465461432

> <r_i_glide_ligand_efficiency>
-0.243130155153811

> <r_i_glide_ligand_efficiency_sa>
-0.755461920415034

> <r_i_glide_ligand_efficiency_ln>
-1.65725461098491

> <r_i_glide_gscore>
-7.29390465461432

> <r_i_glide_lipo>
-3.10189017135151

> <r_i_glide_hbond>
-0.32

> <r_i_glide_metal>
0

> <r_i_glide_rewards>
-1.37908335544786

> <r_i_glide_evdw>
-48.7464294433594

> <r_i_glide_ecoul>
-4.14423131942749

> <r_i_glide_erotb>
0.56602504226714

> <r_i_glide_esite>
0

> <r_i_glide_emodel>
-75.497988427433

> <r_i_glide_energy>
-52.8906607627869

> <r_i_glide_einternal>
2.51766538619995

> <i_i_glide_confnum>
27

> <i_i_glide_posenum>
350

> <r_i_glide_eff_state_penalty>
0

> <s_user_duplicate_titles>
CHEMBL4282_lig350,379357

> <s_m_subgroup_title>
dock_pv

> <s_m_subgroupid>
dock_pv

> <b_m_subgroup_collapsed>
1

$$$$
CHEMBL4282_lig3215
                    3D
 Schrodinger Suite 2021-1.
 32 33  0  0  1  0            999 V2000
    3.6894   -0.8230   16.9850 I   0  0  0  0  0  0
    8.2152    2.7567   19.9684 O   0  0  0  0  0  0
    9.0310    5.4370   17.6402 O   0  0  0  0  0  0
    6.8143    2.1962   17.1810 N   0  0  0  0  0  0
    5.9370    4.2632   16.2260 N   0  0  0  0  0  0
    3.5757    4.1797   15.6540 N   0  0  0  0  0  0
    2.3099    2.2370   15.7850 N   0  0  0  0  0  0
   11.6930    5.0493   18.9850 N   0  0  0  0  0  0
    4.6609    2.1769   16.4627 C   0  0  0  0  0  0
    5.8310    2.9758   16.5898 C   0  0  0  0  0  0
    5.0178    0.8570   16.9215 C   0  0  0  0  0  0
    3.5320    2.8621   15.9667 C   0  0  0  0  0  0
    6.3136    0.9306   17.3850 C   0  0  0  0  0  0
    8.1518    2.6394   17.5455 C   0  0  0  0  0  0
    8.1265    3.5571   18.8008 C   0  0  2  0  0  0
    4.7719    4.7984   15.7850 C   0  0  0  0  0  0
    9.2341    4.6370   18.7915 C   0  0  1  0  0  0
   10.6625    4.0437   18.7717 C   0  0  0  0  0  0
    8.3621    3.3274   20.7319 H   0  0  0  0  0  0
    9.8602    5.8799   17.4243 H   0  0  0  0  0  0
    2.2141    1.2635   16.0279 H   0  0  0  0  0  0
    1.5333    2.7760   15.4102 H   0  0  0  0  0  0
   11.6226    5.8193   18.3325 H   0  0  0  0  0  0
   11.5669    5.4371   19.9161 H   0  0  0  0  0  0
    6.9275    0.1816   17.8674 H   0  0  0  0  0  0
    8.5500    3.1576   16.6726 H   0  0  0  0  0  0
    8.7975    1.7735   17.7017 H   0  0  0  0  0  0
    7.1763    4.0894   18.8486 H   0  0  0  0  0  0
    4.7968    5.8445   15.5202 H   0  0  0  0  0  0
    9.1026    5.2771   19.6657 H   0  0  0  0  0  0
   10.8329    3.5131   17.8370 H   0  0  0  0  0  0
   10.7654    3.3046   19.5678 H   0  0  0  0  0  0
  1 11  1  0  0  0
  2 15  1  0  0  0
  2 19  1  0  0  0
  3 17  1  0  0  0
  3 20  1  0  0  0
  4 10  1  0  0  0
  4 13  1  0  0  0
  4 14  1  0  0  0
  5 10  2  0  0  0
  5 16  1  0  0  0
  6 12  1  0  0  0
  6 16  2  0  0  0
  7 12  1  0  0  0
  7 21  1  0  0  0
  7 22  1  0  0  0
  8 18  1  0  0  0
  8 23  1  0  0  0
  8 24  1  0  0  0
  9 10  1  0  0  0
  9 11  1  0  0  0
  9 12  2  0  0  0
 11 13  2  0  0  0
 13 25  1  0  0  0
 14 15  1  0  0  0
 14 26  1  0  0  0
 14 27  1  0  0  0
 15 17  1  0  0  0
 15 28  1  0  0  0
 16 29  1  0  0  0
 17 18  1  0  0  0
 17 30  1  0  0  0
 18 31  1  0  0  0
 18 32  1  0  0  0
M  END
> <s_m_entry_id>
2329

> <s_m_entry_name>
dock_pv.68

> <s_m_Source_Path>
/home/csk/Desktop/cluster/DUD-E-result/akt1

> <s_m_Source_File>
dock_pv.maegz

> <i_m_Source_File_Index>
68

> <chembl_id>
CHEMBL1975534

> <chembl_pref_name>
None

> <i_lp_mmshare_version>
53161

> <i_f3d_flags>
0

> <r_lp_tautomer_probability>
1

> <s_lp_Force_Field>
OPLS_2005

> <r_lp_Energy>
19.72956

> <b_lp_Chiralities_Consistent>
1

> <s_lp_Variant>
CHEMBL4282_lig3215-3

> <s_i_glide_gridfile>
glide-grid_3cqw

> <i_i_glide_lignum>
4193

> <i_i_glide_rotatable_bonds>
6

> <r_i_docking_score>
-7.28521409335891

> <r_i_glide_ligand_efficiency>
-0.404734116297717

> <r_i_glide_ligand_efficiency_sa>
-1.06070345120804

> <r_i_glide_ligand_efficiency_ln>
-1.87262671711832

> <r_i_glide_gscore>
-7.28521409335891

> <r_i_glide_lipo>
-1.11695784799196

> <r_i_glide_hbond>
-0.779652957084349

> <r_i_glide_metal>
0

> <r_i_glide_rewards>
-2.46121647905354

> <r_i_glide_evdw>
-32.2613945007324

> <r_i_glide_ecoul>
-11.6753644943237

> <r_i_glide_erotb>
0.436987589956113

> <r_i_glide_esite>
0

> <r_i_glide_emodel>
-62.7965450353582

> <r_i_glide_energy>
-43.9367589950562

> <r_i_glide_einternal>
4.68714380264282

> <i_i_glide_confnum>
9

> <i_i_glide_posenum>
212

> <r_i_glide_eff_state_penalty>
0

> <s_user_duplicate_titles>
CHEMBL4282_lig3215

> <s_m_subgroup_title>
dock_pv

> <s_m_subgroupid>
dock_pv

> <b_m_subgroup_collapsed>
1

$$$$
CHEMBL4282_lig1037
                    3D
 Schrodinger Suite 2021-1.
 71 75  0  0  1  0            999 V2000
   12.2023    1.8713   19.5109 C   0  0  0  0  0  0
   12.6505    0.6824   18.6272 C   0  0  1  0  0  0
   11.3021    2.8292   18.8530 N   0  0  2  0  0  0
    8.9873    3.4026   18.1126 C   0  0  2  0  0  0
    8.9945    4.6759   18.9931 C   0  0  0  0  0  0
   10.4325    5.2313   19.0814 C   0  0  0  0  0  0
   11.4644    4.1487   19.5029 C   0  0  0  0  0  0
    9.8918    2.3867   18.8607 C   0  0  0  0  0  0
    7.0677    3.5073   16.5851 N   0  0  0  0  0  0
    5.7285    3.7878   16.2729 C   0  0  0  0  0  0
    3.1512    4.6370   15.7851 N   0  0  0  0  0  0
    4.2315    5.4226   15.6195 C   0  0  0  0  0  0
    5.5105    5.0392   15.7850 N   0  0  0  0  0  0
    3.3815    3.3678   16.1849 C   0  0  0  0  0  0
    4.6718    2.8733   16.4657 C   0  0  0  0  0  0
    8.1892    4.2661   16.0561 C   0  0  0  0  0  0
    9.4309    3.7011   16.6850 C   0  0  0  0  0  0
    7.5534    2.8905   17.8310 C   0  0  0  0  0  0
    4.9523    1.4452   16.9529 C   0  0  0  0  0  0
    4.1998    0.2069   16.5110 C   0  0  0  0  0  0
    5.6221    0.4303   16.0548 C   0  0  0  0  0  0
   13.8545   -0.0603   19.2453 C   0  0  0  0  0  0
   13.5556   -0.7631   20.5193 N   0  0  2  0  0  0
   13.8758   -2.4875   20.6719 S   0  0  0  0  0  0
   11.6160   -0.2434   18.3390 O   0  0  0  0  0  0
   12.7374   -3.2499   19.4957 C   0  0  0  0  0  0
   13.5047   -2.8830   22.0332 O   0  0  0  0  0  0
   15.2381   -2.7345   20.1850 O   0  0  0  0  0  0
   13.1694   -3.3630   18.1665 C   0  0  0  0  0  0
   12.3326   -3.8904   17.1853 C   0  0  0  0  0  0
   11.0660   -4.3485   17.5308 C   0  0  0  0  0  0
   10.6309   -4.2540   18.8481 C   0  0  0  0  0  0
   11.4415   -3.6898   19.8373 C   0  0  0  0  0  0
   10.2574   -4.8837   16.5900 F   0  0  0  0  0  0
   10.8577   -3.5561   21.2365 C   0  0  0  0  0  0
    2.2311    2.6059   16.2911 N   0  0  0  0  0  0
   11.7540    1.5127   20.4393 H   0  0  0  0  0  0
   13.1126    2.3884   19.8225 H   0  0  0  0  0  0
   12.9911    1.0861   17.6719 H   0  0  0  0  0  0
    8.5794    4.4603   19.9784 H   0  0  0  0  0  0
    8.3489    5.4484   18.5749 H   0  0  0  0  0  0
   10.4590    6.0584   19.7850 H   0  0  0  0  0  0
   10.7624    5.7261   18.1850 H   0  0  0  0  0  0
   11.4310    4.0136   20.5845 H   0  0  0  0  0  0
   12.4735    4.5082   19.2949 H   0  0  0  0  0  0
    9.7943    1.4136   18.3825 H   0  0  0  0  0  0
    9.5589    2.2465   19.8917 H   0  0  0  0  0  0
    4.0647    6.4627   15.3851 H   0  0  0  0  0  0
    8.0686    5.3178   16.3110 H   0  0  0  0  0  0
    8.1926    4.2370   14.9726 H   0  0  0  0  0  0
   10.2310    4.4150   16.6041 H   0  0  0  0  0  0
    9.7889    2.8017   16.1850 H   0  0  0  0  0  0
    7.6627    1.8296   17.6020 H   0  0  0  0  0  0
    6.9311    3.0671   18.7094 H   0  0  0  0  0  0
    5.3042    1.4258   17.9843 H   0  0  0  0  0  0
    3.9992   -0.5739   17.2447 H   0  0  0  0  0  0
    3.3951    0.2911   15.7851 H   0  0  0  0  0  0
    5.8125    0.6991   15.0153 H   0  0  0  0  0  0
    6.4293   -0.1632   16.4833 H   0  0  0  0  0  0
   14.6778    0.6323   19.4245 H   0  0  0  0  0  0
   14.2228   -0.7744   18.5151 H   0  0  0  0  0  0
   12.7729   -0.4054   21.0729 H   0  0  0  0  0  0
   11.2756   -0.5981   19.1640 H   0  0  0  0  0  0
   14.1538   -3.0248   17.8812 H   0  0  0  0  0  0
   12.6679   -3.9595   16.1614 H   0  0  0  0  0  0
    9.6388   -4.5998   19.0987 H   0  0  0  0  0  0
   10.9838   -2.5397   21.6089 H   0  0  0  0  0  0
    9.7875   -3.7629   21.2602 H   0  0  0  0  0  0
   11.3510   -4.2396   21.9275 H   0  0  0  0  0  0
    2.2890    1.6612   16.6355 H   0  0  0  0  0  0
    1.3550    3.0135   15.9823 H   0  0  0  0  0  0
  1  3  1  0  0  0
  1  2  1  0  0  0
  1 37  1  0  0  0
  1 38  1  0  0  0
  2 25  1  0  0  0
  2 22  1  0  0  0
  2 39  1  0  0  0
  3  7  1  0  0  0
  3  8  1  0  0  0
  4 17  1  0  0  0
  4 18  1  0  0  0
  4  5  1  0  0  0
  4  8  1  0  0  0
  5  6  1  0  0  0
  5 40  1  0  0  0
  5 41  1  0  0  0
  6  7  1  0  0  0
  6 42  1  0  0  0
  6 43  1  0  0  0
  7 44  1  0  0  0
  7 45  1  0  0  0
  8 46  1  0  0  0
  8 47  1  0  0  0
  9 10  1  0  0  0
  9 16  1  0  0  0
  9 18  1  0  0  0
 10 13  1  0  0  0
 10 15  2  0  0  0
 11 14  2  0  0  0
 11 12  1  0  0  0
 12 13  2  0  0  0
 12 48  1  0  0  0
 14 15  1  0  0  0
 14 36  1  0  0  0
 15 19  1  0  0  0
 16 17  1  0  0  0
 16 49  1  0  0  0
 16 50  1  0  0  0
 17 51  1  0  0  0
 17 52  1  0  0  0
 18 53  1  0  0  0
 18 54  1  0  0  0
 19 20  1  0  0  0
 19 21  1  0  0  0
 19 55  1  0  0  0
 20 21  1  0  0  0
 20 56  1  0  0  0
 20 57  1  0  0  0
 21 58  1  0  0  0
 21 59  1  0  0  0
 22 23  1  0  0  0
 22 60  1  0  0  0
 22 61  1  0  0  0
 23 24  1  0  0  0
 23 62  1  0  0  0
 24 26  1  0  0  0
 24 27  2  0  0  0
 24 28  2  0  0  0
 25 63  1  0  0  0
 26 29  2  0  0  0
 26 33  1  0  0  0
 29 30  1  0  0  0
 29 64  1  0  0  0
 30 31  2  0  0  0
 30 65  1  0  0  0
 31 32  1  0  0  0
 31 34  1  0  0  0
 32 33  2  0  0  0
 32 66  1  0  0  0
 33 35  1  0  0  0
 35 67  1  0  0  0
 35 68  1  0  0  0
 35 69  1  0  0  0
 36 70  1  0  0  0
 36 71  1  0  0  0
M  END
> <s_m_entry_id>
2330

> <s_m_entry_name>
dock_pv.69

> <s_m_Source_Path>
/home/csk/Desktop/cluster/DUD-E-result/akt1

> <s_m_Source_File>
dock_pv.maegz

> <i_m_Source_File_Index>
69

> <chembl_id>
CHEMBL1760773

> <chembl_pref_name>
None

> <i_lp_mmshare_version>
53161

> <i_f3d_flags>
0

> <r_lp_tautomer_probability>
0.999999968260001

> <s_lp_Force_Field>
OPLS_2005

> <r_lp_Energy>
65.352412

> <b_lp_Chiralities_Consistent>
1

> <s_lp_Variant>
CHEMBL4282_lig1037-1

> <s_i_glide_gridfile>
glide-grid_3cqw

> <i_i_glide_lignum>
1457

> <i_i_glide_rotatable_bonds>
9

> <r_i_docking_score>
-7.28513973308701

> <r_i_glide_ligand_efficiency>
-0.20236499258575

> <r_i_glide_ligand_efficiency_sa>
-0.668194482443085

> <r_i_glide_ligand_efficiency_ln>
-1.58942066802955

> <r_i_glide_gscore>
-7.28513973308701

> <r_i_glide_lipo>
-2.29797279035416

> <r_i_glide_hbond>
-0.58808165175542

> <r_i_glide_metal>
0

> <r_i_glide_rewards>
-1.56024721161406

> <r_i_glide_evdw>
-44.9857025146484

> <r_i_glide_ecoul>
-6.78101825714111

> <r_i_glide_erotb>
0.42759978494023

> <r_i_glide_esite>
0

> <r_i_glide_emodel>
-58.5198613983306

> <r_i_glide_energy>
-51.7667207717896

> <r_i_glide_einternal>
15.9297609329224

> <i_i_glide_confnum>
37

> <i_i_glide_posenum>
44

> <r_i_glide_eff_state_penalty>
0

> <s_user_duplicate_titles>
CHEMBL4282_lig1037

> <s_m_subgroup_title>
dock_pv

> <s_m_subgroupid>
dock_pv

> <b_m_subgroup_collapsed>
1

$$$$
CHEMBL4282_lig933
                    3D
 Schrodinger Suite 2021-1.
 50 53  0  0  1  0            999 V2000
   11.0336   -0.8871   18.9617 C   0  0  0  0  0  0
   12.0546    0.0674   18.9684 C   0  0  0  0  0  0
   12.7485    0.3565   17.7894 C   0  0  0  0  0  0
   12.4337   -0.3168   16.6110 C   0  0  0  0  0  0
   11.4264   -1.2784   16.6152 C   0  0  0  0  0  0
   10.7223   -1.5606   17.7840 C   0  0  0  0  0  0
   12.4103    0.7919   20.2670 C   0  0  0  0  0  0
   11.4277    1.9406   20.6203 C   0  0  1  0  0  0
   11.8286    2.6370   21.8575 N   0  0  0  0  0  0
   11.2876    3.0241   19.5087 C   0  0  0  0  0  0
   10.0603    3.4997   19.1541 N   0  0  0  0  0  0
   12.3337    3.4273   18.9846 O   0  0  0  0  0  0
    9.9136    4.4712   18.0688 C   0  0  0  0  0  0
    9.1823    3.7574   16.9071 C   0  0  0  0  0  0
    7.9185    3.0866   17.2858 N   0  0  0  0  0  0
    8.0283    2.3165   18.5423 C   0  0  0  0  0  0
    8.7707    3.0432   19.6852 C   0  0  0  0  0  0
    6.6798    3.3655   16.7014 C   0  0  0  0  0  0
    4.1979    4.1944   15.7485 N   0  0  0  0  0  0
    5.2934    4.9823   15.7903 C   0  0  0  0  0  0
    6.5204    4.6370   16.2426 N   0  0  0  0  0  0
    4.3754    2.8901   16.0964 C   0  0  0  0  0  0
    5.6283    2.3963   16.5846 C   0  0  0  0  0  0
    5.7563    0.9987   16.8233 C   0  0  0  0  0  0
    4.6811    0.1462   16.5936 C   0  0  0  0  0  0
    3.4529    0.6478   16.1850 C   0  0  0  0  0  0
    3.2891    2.0035   15.9232 C   0  0  0  0  0  0
   11.1220   -1.9344   15.4726 F   0  0  0  0  0  0
   10.4794   -1.1131   19.8627 H   0  0  0  0  0  0
   13.5296    1.1031   17.7892 H   0  0  0  0  0  0
   12.9675   -0.0972   15.7004 H   0  0  0  0  0  0
    9.9346   -2.2978   17.7856 H   0  0  0  0  0  0
   12.4119    0.0550   21.0712 H   0  0  0  0  0  0
   13.4308    1.1747   20.2127 H   0  0  0  0  0  0
   10.4772    1.4447   20.7962 H   0  0  0  0  0  0
   11.2742    3.4905   21.9792 H   0  0  0  0  0  0
   11.6640    2.0788   22.6798 H   0  0  0  0  0  0
    9.3128    5.3103   18.4214 H   0  0  0  0  0  0
   10.8666    4.9149   17.7811 H   0  0  0  0  0  0
    9.8275    2.9756   16.5048 H   0  0  0  0  0  0
    9.0255    4.4688   16.0970 H   0  0  0  0  0  0
    8.5430    1.3838   18.3025 H   0  0  0  0  0  0
    7.0373    2.0554   18.9145 H   0  0  0  0  0  0
    8.8164    2.4621   20.6022 H   0  0  0  0  0  0
    8.1970    3.9241   19.9756 H   0  0  0  0  0  0
    5.1565    6.0104   15.4888 H   0  0  0  0  0  0
    6.7003    0.5833   17.1404 H   0  0  0  0  0  0
    4.7916   -0.9162   16.7623 H   0  0  0  0  0  0
    2.6312   -0.0314   16.0171 H   0  0  0  0  0  0
    2.3403    2.3806   15.5662 H   0  0  0  0  0  0
  1  6  1  0  0  0
  1  2  2  0  0  0
  1 29  1  0  0  0
  2  7  1  0  0  0
  2  3  1  0  0  0
  3  4  2  0  0  0
  3 30  1  0  0  0
  4  5  1  0  0  0
  4 31  1  0  0  0
  5  6  2  0  0  0
  5 28  1  0  0  0
  6 32  1  0  0  0
  7  8  1  0  0  0
  7 33  1  0  0  0
  7 34  1  0  0  0
  8  9  1  0  0  0
  8 10  1  0  0  0
  8 35  1  0  0  0
  9 36  1  0  0  0
  9 37  1  0  0  0
 10 11  1  0  0  0
 10 12  2  0  0  0
 11 17  1  0  0  0
 11 13  1  0  0  0
 13 14  1  0  0  0
 13 38  1  0  0  0
 13 39  1  0  0  0
 14 15  1  0  0  0
 14 40  1  0  0  0
 14 41  1  0  0  0
 15 16  1  0  0  0
 15 18  1  0  0  0
 16 17  1  0  0  0
 16 42  1  0  0  0
 16 43  1  0  0  0
 17 44  1  0  0  0
 17 45  1  0  0  0
 18 23  2  0  0  0
 18 21  1  0  0  0
 19 22  2  0  0  0
 19 20  1  0  0  0
 20 21  2  0  0  0
 20 46  1  0  0  0
 22 23  1  0  0  0
 22 27  1  0  0  0
 23 24  1  0  0  0
 24 25  2  0  0  0
 24 47  1  0  0  0
 25 26  1  0  0  0
 25 48  1  0  0  0
 26 27  2  0  0  0
 26 49  1  0  0  0
 27 50  1  0  0  0
M  END
> <s_m_entry_id>
2331

> <s_m_entry_name>
dock_pv.70

> <s_m_Source_Path>
/home/csk/Desktop/cluster/DUD-E-result/akt1

> <s_m_Source_File>
dock_pv.maegz

> <i_m_Source_File_Index>
70

> <chembl_id>
CHEMBL1258442

> <chembl_pref_name>
None

> <i_lp_mmshare_version>
53161

> <i_f3d_flags>
0

> <r_lp_tautomer_probability>
1

> <s_lp_Force_Field>
OPLS_2005

> <r_lp_Energy>
42.739003

> <b_lp_Chiralities_Consistent>
1

> <s_lp_Variant>
CHEMBL4282_lig933-1

> <s_i_glide_gridfile>
glide-grid_3cqw

> <i_i_glide_lignum>
1329

> <i_i_glide_rotatable_bonds>
5

> <r_i_docking_score>
-7.27473087679364

> <r_i_glide_ligand_efficiency>
-0.259811817028344

> <r_i_glide_ligand_efficiency_sa>
-0.788941697474942

> <r_i_glide_ligand_efficiency_ln>
-1.67922148174381

> <r_i_glide_gscore>
-7.27473087679364

> <r_i_glide_lipo>
-2.59854386454037

> <r_i_glide_hbond>
-0.16

> <r_i_glide_metal>
0

> <r_i_glide_rewards>
-2.00092724681202

> <r_i_glide_evdw>
-43.3698348999023

> <r_i_glide_ecoul>
-4.87525272369385

> <r_i_glide_erotb>
0.538725835278838

> <r_i_glide_esite>
-0.154205947170891

> <r_i_glide_emodel>
-67.7233956984985

> <r_i_glide_energy>
-48.2450876235962

> <r_i_glide_einternal>
3.82255434989929

> <i_i_glide_confnum>
2

> <i_i_glide_posenum>
75

> <r_i_glide_eff_state_penalty>
0

> <s_user_duplicate_titles>
CHEMBL4282_lig933

> <s_m_subgroup_title>
dock_pv

> <s_m_subgroupid>
dock_pv

> <b_m_subgroup_collapsed>
1

$$$$
CHEMBL4282_lig3117
                    3D
 Schrodinger Suite 2021-1.
 34 36  0  0  1  0            999 V2000
   10.8629   -4.9407   17.7437 Cl  0  0  0  0  0  0
   12.2304   -4.0972   14.9851 Cl  0  0  0  0  0  0
    9.8846    2.0387   17.4495 O   0  0  0  0  0  0
    3.9376    4.4289   15.7232 N   0  0  0  0  0  0
    7.8259    1.3201   18.1550 N   0  0  0  0  0  0
    2.9697    3.4964   15.7592 N   0  0  0  0  0  0
    9.6509    0.5448   19.1426 N   0  0  0  0  0  0
    4.7220    2.3994   16.5384 C   0  0  0  0  0  0
    5.0293    3.7496   16.1847 C   0  0  0  0  0  0
    6.9580    2.1207   17.3923 C   0  0  0  0  0  0
    5.6973    1.5817   17.1253 C   0  0  0  0  0  0
    6.3279    4.2428   16.3703 C   0  0  0  0  0  0
    3.3578    2.2544   16.1835 C   0  0  0  0  0  0
    7.2730    3.4254   16.9885 C   0  0  0  0  0  0
   11.3327   -0.9828   18.1412 C   0  0  0  0  0  0
   11.2950   -3.2961   17.4193 C   0  0  0  0  0  0
    9.1710    1.3633   18.1948 C   0  0  0  0  0  0
   11.8828   -2.9245   16.2060 C   0  0  0  0  0  0
   11.0338   -2.3264   18.3859 C   0  0  0  0  0  0
   11.9329   -0.6182   16.9326 C   0  0  0  0  0  0
   11.0302    0.0657   19.2023 C   0  0  0  0  0  0
   12.1994   -1.5865   15.9665 C   0  0  0  0  0  0
    2.0274    3.7093   15.4526 H   0  0  0  0  0  0
    7.3792    0.6108   18.7201 H   0  0  0  0  0  0
    8.9828    0.0594   19.7275 H   0  0  0  0  0  0
    5.4525    0.5756   17.4288 H   0  0  0  0  0  0
    6.5747    5.2580   16.0987 H   0  0  0  0  0  0
    2.6478    1.4437   16.2356 H   0  0  0  0  0  0
    8.2439    3.8479   17.2008 H   0  0  0  0  0  0
   10.5749   -2.6150   19.3224 H   0  0  0  0  0  0
   12.1707    0.4161   16.7357 H   0  0  0  0  0  0
   11.2028   -0.3646   20.1897 H   0  0  0  0  0  0
   11.7280    0.9015   19.1157 H   0  0  0  0  0  0
   12.6407   -1.2966   15.0251 H   0  0  0  0  0  0
  1 16  1  0  0  0
  2 18  1  0  0  0
  3 17  2  0  0  0
  4  6  1  0  0  0
  4  9  2  0  0  0
  5 17  1  0  0  0
  5 24  1  0  0  0
  5 10  1  0  0  0
  6 23  1  0  0  0
  6 13  1  0  0  0
  7 17  1  0  0  0
  7 21  1  0  0  0
  7 25  1  0  0  0
  8 11  1  0  0  0
  8  9  1  0  0  0
  8 13  2  0  0  0
  9 12  1  0  0  0
 10 14  1  0  0  0
 10 11  2  0  0  0
 11 26  1  0  0  0
 12 27  1  0  0  0
 12 14  2  0  0  0
 13 28  1  0  0  0
 14 29  1  0  0  0
 15 19  1  0  0  0
 15 20  2  0  0  0
 15 21  1  0  0  0
 16 18  1  0  0  0
 16 19  2  0  0  0
 18 22  2  0  0  0
 19 30  1  0  0  0
 20 22  1  0  0  0
 20 31  1  0  0  0
 21 32  1  0  0  0
 21 33  1  0  0  0
 22 34  1  0  0  0
M  END
> <s_m_entry_id>
2332

> <s_m_entry_name>
dock_pv.71

> <s_m_Source_Path>
/home/csk/Desktop/cluster/DUD-E-result/akt1

> <s_m_Source_File>
dock_pv.maegz

> <i_m_Source_File_Index>
71

> <chembl_id>
CHEMBL1981782

> <chembl_pref_name>
None

> <i_lp_mmshare_version>
53161

> <i_f3d_flags>
0

> <r_lp_tautomer_probability>
0.0196078431372549

> <s_lp_Force_Field>
OPLS_2005

> <r_lp_Energy>
26.271359

> <b_lp_Chiralities_Consistent>
1

> <s_lp_Variant>
CHEMBL4282_lig3117-2

> <s_i_glide_gridfile>
glide-grid_3cqw

> <i_i_glide_lignum>
4051

> <i_i_glide_rotatable_bonds>
5

> <r_i_docking_score>
-7.27108785392351

> <r_i_glide_ligand_efficiency>
-0.33050399336016

> <r_i_glide_ligand_efficiency_sa>
-0.926085187379645

> <r_i_glide_ligand_efficiency_ln>
-1.77731909087248

> <r_i_glide_gscore>
-7.27108785392351

> <r_i_glide_lipo>
-2.55161353864096

> <r_i_glide_hbond>
-0.32

> <r_i_glide_metal>
0

> <r_i_glide_rewards>
-1.97399385208307

> <r_i_glide_evdw>
-40.0046768188477

> <r_i_glide_ecoul>
-5.35374402999878

> <r_i_glide_erotb>
0.503875668668628

> <r_i_glide_esite>
-0.126060686425912

> <r_i_glide_emodel>
-63.2611092623281

> <r_i_glide_energy>
-45.3584208488464

> <r_i_glide_einternal>
4.04365205764771

> <i_i_glide_confnum>
1

> <i_i_glide_posenum>
193

> <r_i_glide_eff_state_penalty>
0

> <s_user_duplicate_titles>
CHEMBL4282_lig3117

> <s_m_subgroup_title>
dock_pv

> <s_m_subgroupid>
dock_pv

> <b_m_subgroup_collapsed>
1

$$$$
CHEMBL4282_lig3617
                    3D
 Schrodinger Suite 2021-1.
 29 31  0  0  1  0            999 V2000
    6.4323   -0.3876   17.6301 Cl  0  0  0  0  0  0
   11.0826    2.0516   19.4287 S   0  0  0  0  0  0
    3.7916    5.1132   15.7814 O   0  0  0  0  0  0
    6.2762    4.0364   16.5875 N   0  0  0  0  0  0
    2.9636    3.0650   15.5086 N   0  0  0  0  0  0
    5.2533    1.8262   16.5950 C   0  0  0  0  0  0
    7.4624    2.1596   17.5910 C   0  0  0  0  0  0
    5.2274    3.2091   16.3385 C   0  0  0  0  0  0
    6.3739    1.3027   17.2518 C   0  0  0  0  0  0
    7.3789    3.5286   17.1993 C   0  0  0  0  0  0
    3.9733    3.8984   15.8379 C   0  0  0  0  0  0
    8.6263    1.7159   18.2743 C   0  0  0  0  0  0
    4.0584    0.9642   16.1857 C   0  0  0  0  0  0
    8.4649    4.3995   17.4705 C   0  0  0  0  0  0
    9.6665    2.6038   18.5412 C   0  0  0  0  0  0
    9.5911    3.9312   18.1381 C   0  0  0  0  0  0
    3.1879    1.6671   15.1390 C   0  0  0  0  0  0
   10.4266    1.7135   21.0854 C   0  0  0  0  0  0
    2.0461    3.4478   15.3213 H   0  0  0  0  0  0
    8.6986    0.6880   18.6041 H   0  0  0  0  0  0
    3.4342    0.7099   17.0313 H   0  0  0  0  0  0
    4.3887    0.0071   15.7861 H   0  0  0  0  0  0
    8.4137    5.4362   17.1746 H   0  0  0  0  0  0
   10.4026    4.6116   18.3575 H   0  0  0  0  0  0
    3.7039    1.6321   14.1842 H   0  0  0  0  0  0
    2.2467    1.1355   14.9860 H   0  0  0  0  0  0
   11.2207    1.3765   21.7511 H   0  0  0  0  0  0
    9.9864    2.6197   21.5052 H   0  0  0  0  0  0
    9.6542    0.9434   21.0366 H   0  0  0  0  0  0
  1  9  1  0  0  0
  2 15  1  0  0  0
  2 18  1  0  0  0
  3 11  2  0  0  0
  4  8  2  0  0  0
  4 10  1  0  0  0
  5 11  1  0  0  0
  5 17  1  0  0  0
  5 19  1  0  0  0
  6  8  1  0  0  0
  6  9  2  0  0  0
  6 13  1  0  0  0
  7  9  1  0  0  0
  7 10  1  0  0  0
  7 12  2  0  0  0
  8 11  1  0  0  0
 10 14  2  0  0  0
 12 15  1  0  0  0
 12 20  1  0  0  0
 13 17  1  0  0  0
 13 21  1  0  0  0
 13 22  1  0  0  0
 14 16  1  0  0  0
 14 23  1  0  0  0
 15 16  2  0  0  0
 16 24  1  0  0  0
 17 25  1  0  0  0
 17 26  1  0  0  0
 18 27  1  0  0  0
 18 28  1  0  0  0
 18 29  1  0  0  0
M  END
> <s_m_entry_id>
2333

> <s_m_entry_name>
dock_pv.72

> <s_m_Source_Path>
/home/csk/Desktop/cluster/DUD-E-result/akt1

> <s_m_Source_File>
dock_pv.maegz

> <i_m_Source_File_Index>
72

> <chembl_id>
CHEMBL1985074

> <chembl_pref_name>
None

> <i_lp_mmshare_version>
53161

> <i_f3d_flags>
0

> <r_lp_tautomer_probability>
1

> <s_lp_Force_Field>
OPLS_2005

> <r_lp_Energy>
19.621299

> <b_lp_Chiralities_Consistent>
1

> <s_lp_Variant>
CHEMBL4282_lig3617-1

> <s_i_glide_gridfile>
glide-grid_3cqw

> <i_i_glide_lignum>
4827

> <i_i_glide_rotatable_bonds>
1

> <r_i_docking_score>
-7.26708907271049

> <r_i_glide_ligand_efficiency>
-0.403727170706138

> <r_i_glide_ligand_efficiency_sa>
-1.05806450721702

> <r_i_glide_ligand_efficiency_ln>
-1.86796777402075

> <r_i_glide_gscore>
-7.26708907271049

> <r_i_glide_lipo>
-1.43808713414529

> <r_i_glide_hbond>
-0.592670582083766

> <r_i_glide_metal>
0

> <r_i_glide_rewards>
-2.86004647107493

> <r_i_glide_evdw>
-33.2984199523926

> <r_i_glide_ecoul>
-4.7424259185791

> <r_i_glide_erotb>
0

> <r_i_glide_esite>
0

> <r_i_glide_emodel>
-53.2195813027911

> <r_i_glide_energy>
-38.0408458709717

> <r_i_glide_einternal>
0.32862776517868

> <i_i_glide_confnum>
1

> <i_i_glide_posenum>
184

> <r_i_glide_eff_state_penalty>
0

> <s_user_duplicate_titles>
CHEMBL4282_lig3617

> <s_m_subgroup_title>
dock_pv

> <s_m_subgroupid>
dock_pv

> <b_m_subgroup_collapsed>
1

$$$$
CHEMBL4282_lig834
                    3D
 Schrodinger Suite 2021-1.
 47 50  0  0  1  0            999 V2000
   13.0754   -0.3890   18.5329 C   0  0  0  0  0  0
   13.0309   -1.7386   18.8921 C   0  0  0  0  0  0
   12.5406   -2.6852   17.9970 C   0  0  0  0  0  0
   12.1042   -2.2931   16.7277 C   0  0  0  0  0  0
   12.1542   -0.9422   16.3678 C   0  0  0  0  0  0
   12.6285    0.0059   17.2698 C   0  0  0  0  0  0
    6.1165    2.1335   16.9542 C   0  0  0  0  0  0
    6.8373    3.3323   16.8984 C   0  0  0  0  0  0
    6.2855    4.4472   16.2511 C   0  0  0  0  0  0
    4.9992    4.4439   15.7139 C   0  0  0  0  0  0
    8.1872    3.4430   17.5259 C   0  0  0  0  0  0
    8.8621    2.1625   18.5107 S   0  0  0  0  0  0
   10.2681    3.1421   18.7810 C   0  0  0  0  0  0
   10.2311    4.3077   18.1922 N   0  0  0  0  0  0
    9.1166    4.4861   17.5145 C   0  0  0  0  0  0
   11.3210    2.7119   19.5478 N   0  0  0  0  0  0
   11.3612    1.5040   20.3656 C   0  0  0  0  0  0
   12.7890    1.0340   20.7147 C   0  0  2  0  0  0
   13.6659    0.6478   19.4906 C   0  0  0  0  0  0
   12.6917   -0.0888   21.6323 N   0  0  0  0  0  0
    3.8543    1.0778   16.1849 C   0  0  0  0  0  0
    4.8483    2.0780   16.3717 C   0  0  0  0  0  0
    4.2945    3.2421   15.7899 C   0  0  0  0  0  0
    3.0304    2.8715   15.3854 N   0  0  0  0  0  0
    2.8024    1.5676   15.5882 N   0  0  0  0  0  0
   11.5777   -3.3490   15.7593 C   0  0  0  0  0  0
   12.5736   -4.1491   15.3857 F   0  0  0  0  0  0
   10.6323   -4.0827   16.3522 F   0  0  0  0  0  0
   11.0517   -2.8087   14.6587 F   0  0  0  0  0  0
   13.3870   -2.0579   19.8610 H   0  0  0  0  0  0
   12.5068   -3.7258   18.2872 H   0  0  0  0  0  0
   11.8311   -0.6163   15.3901 H   0  0  0  0  0  0
   12.6604    1.0467   16.9795 H   0  0  0  0  0  0
    6.5171    1.2541   17.4331 H   0  0  0  0  0  0
    6.8494    5.3648   16.1847 H   0  0  0  0  0  0
    4.5846    5.3283   15.2502 H   0  0  0  0  0  0
    8.9974    5.4279   16.9973 H   0  0  0  0  0  0
   11.9957    3.4019   19.8486 H   0  0  0  0  0  0
   10.8323    0.6958   19.8598 H   0  0  0  0  0  0
   10.8082    1.7167   21.2824 H   0  0  0  0  0  0
   13.2978    1.8374   21.2504 H   0  0  0  0  0  0
   14.6387    0.2883   19.8299 H   0  0  0  0  0  0
   13.8973    1.5533   18.9268 H   0  0  0  0  0  0
   12.1693    0.1902   22.4521 H   0  0  0  0  0  0
   12.1580   -0.8276   21.1972 H   0  0  0  0  0  0
    3.8868    0.0412   16.4837 H   0  0  0  0  0  0
    2.3137    3.4393   14.9526 H   0  0  0  0  0  0
  1 19  1  0  0  0
  1  6  1  0  0  0
  1  2  2  0  0  0
  2  3  1  0  0  0
  2 30  1  0  0  0
  3  4  2  0  0  0
  3 31  1  0  0  0
  4  5  1  0  0  0
  4 26  1  0  0  0
  5  6  2  0  0  0
  5 32  1  0  0  0
  6 33  1  0  0  0
  7  8  1  0  0  0
  7 22  2  0  0  0
  7 34  1  0  0  0
  8  9  2  0  0  0
  8 11  1  0  0  0
  9 10  1  0  0  0
  9 35  1  0  0  0
 10 23  2  0  0  0
 10 36  1  0  0  0
 11 12  1  0  0  0
 11 15  2  0  0  0
 12 13  1  0  0  0
 13 14  2  0  0  0
 13 16  1  0  0  0
 14 15  1  0  0  0
 15 37  1  0  0  0
 16 17  1  0  0  0
 16 38  1  0  0  0
 17 18  1  0  0  0
 17 39  1  0  0  0
 17 40  1  0  0  0
 18 19  1  0  0  0
 18 20  1  0  0  0
 18 41  1  0  0  0
 19 42  1  0  0  0
 19 43  1  0  0  0
 20 44  1  0  0  0
 20 45  1  0  0  0
 21 22  1  0  0  0
 21 25  2  0  0  0
 21 46  1  0  0  0
 22 23  1  0  0  0
 23 24  1  0  0  0
 24 25  1  0  0  0
 24 47  1  0  0  0
 26 27  1  0  0  0
 26 28  1  0  0  0
 26 29  1  0  0  0
M  END
> <s_m_entry_id>
2334

> <s_m_entry_name>
dock_pv.73

> <s_m_Source_Path>
/home/csk/Desktop/cluster/DUD-E-result/akt1

> <s_m_Source_File>
dock_pv.maegz

> <i_m_Source_File_Index>
73

> <chembl_id>
CHEMBL1081829

> <chembl_pref_name>
None

> <i_lp_mmshare_version>
53161

> <i_f3d_flags>
0

> <r_lp_tautomer_probability>
0.980392156862745

> <s_lp_Force_Field>
OPLS_2005

> <r_lp_Energy>
10.285059

> <b_lp_Chiralities_Consistent>
1

> <s_lp_Variant>
CHEMBL4282_lig834-1

> <s_i_glide_gridfile>
glide-grid_3cqw

> <i_i_glide_lignum>
1218

> <i_i_glide_rotatable_bonds>
7

> <r_i_docking_score>
-7.26225258015711

> <r_i_glide_ligand_efficiency>
-0.250422502764038

> <r_i_glide_ligand_efficiency_sa>
-0.769377267908742

> <r_i_glide_ligand_efficiency_ln>
-1.66287168601986

> <r_i_glide_gscore>
-7.26225258015711

> <r_i_glide_lipo>
-3.15370215616017

> <r_i_glide_hbond>
-0.263764922795988

> <r_i_glide_metal>
0

> <r_i_glide_rewards>
-2.15275578479851

> <r_i_glide_evdw>
-43.8794021606445

> <r_i_glide_ecoul>
-0.822704613208771

> <r_i_glide_erotb>
0.680520819206013

> <r_i_glide_esite>
-0.0551747355949105

> <r_i_glide_emodel>
-62.5916381142912

> <r_i_glide_energy>
-44.7021067738533

> <r_i_glide_einternal>
2.97221779823303

> <i_i_glide_confnum>
13

> <i_i_glide_posenum>
180

> <r_i_glide_eff_state_penalty>
0

> <s_user_duplicate_titles>
CHEMBL4282_lig834,CHEMBL4282_lig834,613037

> <s_m_subgroup_title>
dock_pv

> <s_m_subgroupid>
dock_pv

> <b_m_subgroup_collapsed>
1

$$$$
CHEMBL4282_lig3460
                    3D
 Schrodinger Suite 2021-1.
 36 37  0  0  1  0            999 V2000
    3.5459    1.2883   16.1846 O   0  0  0  0  0  0
    3.5047    4.8789   15.7119 N   0  0  0  0  0  0
    9.0180    1.5220   20.0868 N   0  0  0  0  0  0
    3.0310   -3.1225   17.7383 N   0  0  0  0  0  0
    5.8148    4.2173   16.0545 C   0  0  0  0  0  0
    4.0540    2.5565   16.0855 C   0  0  0  0  0  0
    5.4122    2.8878   16.1855 C   0  0  0  0  0  0
    4.8250    5.1709   15.7850 C   0  0  0  0  0  0
    7.2216    4.6370   16.1119 C   0  0  0  0  0  0
    3.1423    3.5843   15.8584 C   0  0  0  0  0  0
    8.4752    3.2830   17.9495 C   0  0  0  0  0  0
    8.2907    4.2475   16.8431 C   0  0  0  0  0  0
    9.7897    2.9377   18.2947 C   0  0  0  0  0  0
    7.4352    2.7321   18.7084 C   0  0  0  0  0  0
    4.3958    0.2265   16.5854 C   0  0  0  0  0  0
   10.0195    2.0630   19.3558 C   0  0  0  0  0  0
    7.7481    1.8660   19.7576 C   0  0  0  0  0  0
    3.4269   -0.8780   16.9849 C   0  0  0  0  0  0
    4.0750   -2.2215   17.2968 C   0  0  0  0  0  0
    2.3268   -3.1884   17.0153 H   0  0  0  0  0  0
    3.4558   -4.0512   17.7852 H   0  0  0  0  0  0
    6.1606    2.1258   16.3385 H   0  0  0  0  0  0
    5.0752    6.2149   15.6692 H   0  0  0  0  0  0
    7.4306    5.4039   15.3851 H   0  0  0  0  0  0
    2.0878    3.3650   15.7855 H   0  0  0  0  0  0
    9.2012    4.7758   16.5921 H   0  0  0  0  0  0
   10.6311    3.3644   17.7768 H   0  0  0  0  0  0
    6.4050    2.9904   18.5344 H   0  0  0  0  0  0
    5.0404   -0.0796   15.7623 H   0  0  0  0  0  0
    5.0311    0.5002   17.4268 H   0  0  0  0  0  0
   11.0240    1.7988   19.6506 H   0  0  0  0  0  0
    6.9696    1.4372   20.3694 H   0  0  0  0  0  0
    2.8231   -0.5631   17.8226 H   0  0  0  0  0  0
    2.7047   -0.9630   16.1859 H   0  0  0  0  0  0
    4.5623   -2.6336   16.4122 H   0  0  0  0  0  0
    4.8331   -2.1224   18.0758 H   0  0  0  0  0  0
  1  6  1  0  0  0
  1 15  1  0  0  0
  2  8  2  0  0  0
  2 10  1  0  0  0
  3 16  2  0  0  0
  3 17  1  0  0  0
  4 19  1  0  0  0
  4 20  1  0  0  0
  4 21  1  0  0  0
  5  7  2  0  0  0
  5  8  1  0  0  0
  5  9  1  0  0  0
  6  7  1  0  0  0
  6 10  2  0  0  0
  7 22  1  0  0  0
  8 23  1  0  0  0
  9 12  2  3  0  0
  9 24  1  0  0  0
 10 25  1  0  0  0
 11 12  1  0  0  0
 11 13  2  0  0  0
 11 14  1  0  0  0
 12 26  1  0  0  0
 13 16  1  0  0  0
 13 27  1  0  0  0
 14 17  2  0  0  0
 14 28  1  0  0  0
 15 18  1  0  0  0
 15 29  1  0  0  0
 15 30  1  0  0  0
 16 31  1  0  0  0
 17 32  1  0  0  0
 18 19  1  0  0  0
 18 33  1  0  0  0
 18 34  1  0  0  0
 19 35  1  0  0  0
 19 36  1  0  0  0
M  END
> <s_m_entry_id>
2335

> <s_m_entry_name>
dock_pv.74

> <s_m_Source_Path>
/home/csk/Desktop/cluster/DUD-E-result/akt1

> <s_m_Source_File>
dock_pv.maegz

> <i_m_Source_File_Index>
74

> <chembl_id>
CHEMBL1972258

> <chembl_pref_name>
None

> <i_lp_mmshare_version>
53161

> <i_f3d_flags>
0

> <r_lp_tautomer_probability>
1

> <s_lp_Force_Field>
OPLS_2005

> <r_lp_Energy>
19.868904

> <b_lp_Chiralities_Consistent>
1

> <s_lp_Variant>
CHEMBL4282_lig3460-2

> <s_i_glide_gridfile>
glide-grid_3cqw

> <i_i_glide_lignum>
4583

> <i_i_glide_rotatable_bonds>
6

> <r_i_docking_score>
-7.25683755283933

> <r_i_glide_ligand_efficiency>
-0.381938818570491

> <r_i_glide_ligand_efficiency_sa>
-1.01916617218412

> <r_i_glide_ligand_efficiency_ln>
-1.83976418222418

> <r_i_glide_gscore>
-7.25683755283933

> <r_i_glide_lipo>
-2.7374293959117

> <r_i_glide_hbond>
-0.72

> <r_i_glide_metal>
0

> <r_i_glide_rewards>
-2.68403283732296

> <r_i_glide_evdw>
-30.7679920196533

> <r_i_glide_ecoul>
-6.18216991424561

> <r_i_glide_erotb>
1.35034976851483

> <r_i_glide_esite>
0

> <r_i_glide_emodel>
-48.6574213733744

> <r_i_glide_energy>
-36.9501619338989

> <r_i_glide_einternal>
2.46203446388245

> <i_i_glide_confnum>
197

> <i_i_glide_posenum>
156

> <r_i_glide_eff_state_penalty>
0

> <s_user_duplicate_titles>
CHEMBL4282_lig3460

> <s_m_subgroup_title>
dock_pv

> <s_m_subgroupid>
dock_pv

> <b_m_subgroup_collapsed>
1

$$$$
CHEMBL4282_lig923
                    3D
 Schrodinger Suite 2021-1.
 31 33  0  0  1  0            999 V2000
    6.0396    4.7149   16.1683 N   0  0  0  0  0  0
    4.7988    5.0993   15.7850 C   0  0  0  0  0  0
    3.6814    4.3413   15.7308 N   0  0  0  0  0  0
    6.2196    3.4323   16.5893 C   0  0  0  0  0  0
    4.9258    1.0596   16.4941 C   0  0  0  0  0  0
    5.1664    2.4880   16.4188 C   0  0  0  0  0  0
    3.9212    3.0551   15.9916 C   0  0  0  0  0  0
    2.9971    2.0466   15.8815 N   0  0  0  0  0  0
    3.5977    0.8535   16.1866 C   0  0  0  0  0  0
    7.4362    3.1847   17.2309 N   0  0  0  0  0  0
    6.0863   -0.1623   16.8262 Cl  0  0  0  0  0  0
    7.6620    2.1151   18.2219 C   0  0  0  0  0  0
    8.5122    2.4834   19.4689 C   0  0  1  0  0  0
    9.8382    3.0928   18.9890 C   0  0  0  0  0  0
    9.5847    4.2647   18.0362 C   0  0  0  0  0  0
    8.6997    3.8525   16.8473 C   0  0  0  0  0  0
    7.8312    3.4318   20.3371 N   0  0  0  0  0  0
    4.6725    6.1437   15.5415 H   0  0  0  0  0  0
    2.0240    2.1376   15.6207 H   0  0  0  0  0  0
    3.0311   -0.0652   16.1801 H   0  0  0  0  0  0
    6.7511    1.6383   18.5818 H   0  0  0  0  0  0
    8.1675    1.2929   17.7166 H   0  0  0  0  0  0
    8.7508    1.5525   19.9862 H   0  0  0  0  0  0
   10.4448    2.3294   18.5005 H   0  0  0  0  0  0
   10.4287    3.4369   19.8410 H   0  0  0  0  0  0
   10.5384    4.6375   17.6665 H   0  0  0  0  0  0
    9.1366    5.1140   18.5555 H   0  0  0  0  0  0
    9.2499    3.1798   16.1897 H   0  0  0  0  0  0
    8.5021    4.7474   16.2609 H   0  0  0  0  0  0
    7.1738    2.9569   20.9404 H   0  0  0  0  0  0
    8.5059    3.9032   20.9395 H   0  0  0  0  0  0
  1  4  1  0  0  0
  1  2  2  0  0  0
  2  3  1  0  0  0
  2 18  1  0  0  0
  3  7  2  0  0  0
  4 10  1  0  0  0
  4  6  2  0  0  0
  5  9  2  0  0  0
  5 11  1  0  0  0
  5  6  1  0  0  0
  6  7  1  0  0  0
  7  8  1  0  0  0
  8  9  1  0  0  0
  8 19  1  0  0  0
  9 20  1  0  0  0
 10 12  1  0  0  0
 10 16  1  0  0  0
 12 13  1  0  0  0
 12 21  1  0  0  0
 12 22  1  0  0  0
 13 14  1  0  0  0
 13 17  1  0  0  0
 13 23  1  0  0  0
 14 15  1  0  0  0
 14 24  1  0  0  0
 14 25  1  0  0  0
 15 16  1  0  0  0
 15 26  1  0  0  0
 15 27  1  0  0  0
 16 28  1  0  0  0
 16 29  1  0  0  0
 17 30  1  0  0  0
 17 31  1  0  0  0
M  END
> <s_m_entry_id>
2336

> <s_m_entry_name>
dock_pv.75

> <s_m_Source_Path>
/home/csk/Desktop/cluster/DUD-E-result/akt1

> <s_m_Source_File>
dock_pv.maegz

> <i_m_Source_File_Index>
75

> <chembl_id>
CHEMBL1173349

> <chembl_pref_name>
None

> <i_lp_mmshare_version>
53161

> <i_f3d_flags>
0

> <r_lp_tautomer_probability>
0.999998369746258

> <s_lp_Force_Field>
OPLS_2005

> <r_lp_Energy>
14.463314

> <b_lp_Chiralities_Consistent>
1

> <s_lp_Variant>
CHEMBL4282_lig923-2

> <s_i_glide_gridfile>
glide-grid_3cqw

> <i_i_glide_lignum>
1319

> <i_i_glide_rotatable_bonds>
1

> <r_i_docking_score>
-7.24480388874919

> <r_i_glide_ligand_efficiency>
-0.426164934632305

> <r_i_glide_ligand_efficiency_sa>
-1.09579004996925

> <r_i_glide_ligand_efficiency_ln>
-1.89000800072425

> <r_i_glide_gscore>
-7.24480388874919

> <r_i_glide_lipo>
-1.2978345015321

> <r_i_glide_hbond>
-0.167546734253957

> <r_i_glide_metal>
0

> <r_i_glide_rewards>
-3.65814107868414

> <r_i_glide_evdw>
-35.0421867370605

> <r_i_glide_ecoul>
-4.30605602264404

> <r_i_glide_erotb>
0.276736165970642

> <r_i_glide_esite>
0

> <r_i_glide_emodel>
-55.2968236644059

> <r_i_glide_energy>
-39.3482427597046

> <r_i_glide_einternal>
0.512498676776886

> <i_i_glide_confnum>
8

> <i_i_glide_posenum>
230

> <r_i_glide_eff_state_penalty>
0

> <s_user_duplicate_titles>
CHEMBL4282_lig923

> <s_m_subgroup_title>
dock_pv

> <s_m_subgroupid>
dock_pv

> <b_m_subgroup_collapsed>
1

$$$$
CHEMBL4282_lig2139
                    3D
 Schrodinger Suite 2021-1.
 41 43  0  0  1  0            999 V2000
   13.9071   -3.5167   16.9740 F   0  0  0  0  0  0
   13.0313   -2.5878   17.4238 C   0  0  0  0  0  0
   12.8403   -1.4128   16.7015 C   0  0  0  0  0  0
   11.9532   -0.4404   17.1591 C   0  0  0  0  0  0
   11.2360   -0.6413   18.3505 C   0  0  0  0  0  0
   10.2675    0.2492   18.8481 N   0  0  0  0  0  0
   10.0250    1.5293   18.4822 C   0  0  0  0  0  0
   10.7740    2.2087   17.7852 O   0  0  0  0  0  0
    8.7321    2.1638   19.0086 C   0  0  0  0  0  0
    7.5446    1.6902   18.1845 C   0  0  0  0  0  0
    6.8239    2.5053   17.4905 N   0  0  0  0  0  0
    5.7669    2.0091   16.7701 C   0  0  0  0  0  0
    5.5297    0.6810   16.6727 C   0  0  0  0  0  0
    6.2310   -0.2211   17.5309 C   0  0  0  0  0  0
    5.8309   -1.3523   17.7850 O   0  0  0  0  0  0
    7.2489    0.3558   18.1850 N   0  0  0  0  0  0
    4.9357    2.9308   16.1709 N   0  0  0  0  0  0
    3.5332    2.6178   15.8374 C   0  0  0  0  0  0
    2.6309    3.7614   16.2962 C   0  0  0  0  0  0
    3.0310    4.8880   15.5217 O   0  0  0  0  0  0
    4.3072    5.3312   15.9196 C   0  0  0  0  0  0
    5.3596    4.2395   15.6332 C   0  0  0  0  0  0
   11.4312   -1.8273   19.0673 C   0  0  0  0  0  0
   12.3275   -2.7947   18.6103 C   0  0  0  0  0  0
   12.5103   -3.9320   19.3192 F   0  0  0  0  0  0
   13.3829   -1.2511   15.7854 H   0  0  0  0  0  0
   11.8271    0.4493   16.5629 H   0  0  0  0  0  0
    9.6684   -0.1405   19.5618 H   0  0  0  0  0  0
    8.5905    1.9130   20.0600 H   0  0  0  0  0  0
    8.8213    3.2506   18.9774 H   0  0  0  0  0  0
    4.7140    0.2785   16.1015 H   0  0  0  0  0  0
    7.6197   -0.2505   18.9054 H   0  0  0  0  0  0
    3.3824    2.2363   14.8284 H   0  0  0  0  0  0
    3.2143    1.7671   16.4402 H   0  0  0  0  0  0
    2.7412    3.9244   17.3711 H   0  0  0  0  0  0
    1.5754    3.5278   16.1851 H   0  0  0  0  0  0
    4.2310    5.5505   16.9842 H   0  0  0  0  0  0
    4.5677    6.2646   15.4210 H   0  0  0  0  0  0
    6.2907    4.5491   16.1087 H   0  0  0  0  0  0
    5.6546    4.1817   14.5860 H   0  0  0  0  0  0
   10.8833   -2.0147   19.9800 H   0  0  0  0  0  0
  1  2  1  0  0  0
  2  3  2  0  0  0
  2 24  1  0  0  0
  3  4  1  0  0  0
  3 26  1  0  0  0
  4  5  2  0  0  0
  4 27  1  0  0  0
  5  6  1  0  0  0
  5 23  1  0  0  0
  6  7  1  0  0  0
  6 28  1  0  0  0
  7  8  2  0  0  0
  7  9  1  0  0  0
  9 10  1  0  0  0
  9 29  1  0  0  0
  9 30  1  0  0  0
 10 11  2  0  0  0
 10 16  1  0  0  0
 11 12  1  0  0  0
 12 13  2  0  0  0
 12 17  1  0  0  0
 13 14  1  0  0  0
 13 31  1  0  0  0
 14 15  2  0  0  0
 14 16  1  0  0  0
 16 32  1  0  0  0
 17 18  1  0  0  0
 17 22  1  0  0  0
 18 19  1  0  0  0
 18 33  1  0  0  0
 18 34  1  0  0  0
 19 20  1  0  0  0
 19 35  1  0  0  0
 19 36  1  0  0  0
 20 21  1  0  0  0
 21 22  1  0  0  0
 21 37  1  0  0  0
 21 38  1  0  0  0
 22 39  1  0  0  0
 22 40  1  0  0  0
 23 24  2  0  0  0
 23 41  1  0  0  0
 24 25  1  0  0  0
M  END
> <s_m_entry_id>
2337

> <s_m_entry_name>
dock_pv.76

> <s_m_Source_Path>
/home/csk/Desktop/cluster/DUD-E-result/akt1

> <s_m_Source_File>
dock_pv.maegz

> <i_m_Source_File_Index>
76

> <chembl_id>
CHEMBL2151924

> <chembl_pref_name>
None

> <i_lp_mmshare_version>
53161

> <i_f3d_flags>
0

> <r_lp_tautomer_probability>
0.994036381586735

> <s_lp_Force_Field>
OPLS_2005

> <r_lp_Energy>
31.53812

> <b_lp_Chiralities_Consistent>
1

> <s_lp_Variant>
CHEMBL4282_lig2139-1

> <s_i_glide_gridfile>
glide-grid_3cqw

> <i_i_glide_lignum>
2869

> <i_i_glide_rotatable_bonds>
5

> <r_i_docking_score>
-7.24247524718346

> <r_i_glide_ligand_efficiency>
-0.289699009887338

> <r_i_glide_ligand_efficiency_sa>
-0.847085042744395

> <r_i_glide_ligand_efficiency_ln>
-1.71668367305163

> <r_i_glide_gscore>
-7.24247524718346

> <r_i_glide_lipo>
-1.80827277703374

> <r_i_glide_hbond>
-0.451148975037571

> <r_i_glide_metal>
0

> <r_i_glide_rewards>
-1.85674593708446

> <r_i_glide_evdw>
-34.6247100830078

> <r_i_glide_ecoul>
-12.191349029541

> <r_i_glide_erotb>
0.621211957130035

> <r_i_glide_esite>
-0.187581656576189

> <r_i_glide_emodel>
-58.5679618116776

> <r_i_glide_energy>
-46.8160591125488

> <r_i_glide_einternal>
7.09775924682617

> <i_i_glide_confnum>
21

> <i_i_glide_posenum>
214

> <r_i_glide_eff_state_penalty>
0

> <s_user_duplicate_titles>
CHEMBL4282_lig2139

> <s_m_subgroup_title>
dock_pv

> <s_m_subgroupid>
dock_pv

> <b_m_subgroup_collapsed>
1

$$$$
CHEMBL4282_lig3514
                    3D
 Schrodinger Suite 2021-1.
 44 47  0  0  1  0            999 V2000
    3.5537    1.0336   16.1413 C   0  0  0  0  0  0
    4.6307    0.2686   16.5850 C   0  0  0  0  0  0
    5.8281    0.8546   16.9830 C   0  0  0  0  0  0
    6.0261    2.2422   16.9347 C   0  0  0  0  0  0
    2.8793    3.4422   15.7502 N   0  0  0  0  0  0
    3.7314    2.4144   16.0972 C   0  0  0  0  0  0
    4.9551    3.0319   16.4518 C   0  0  0  0  0  0
    4.7103    4.4190   16.1850 C   0  0  0  0  0  0
    3.4870    4.6368   15.7874 N   0  0  0  0  0  0
    7.3126    2.8396   17.3870 C   0  0  0  0  0  0
    7.9809    2.3249   18.5068 C   0  0  0  0  0  0
    9.1861    2.8747   18.9310 C   0  0  0  0  0  0
    9.7388    3.9657   18.2479 C   0  0  0  0  0  0
    9.0534    4.5075   17.1598 C   0  0  0  0  0  0
    7.8712    3.9315   16.7157 C   0  0  0  0  0  0
   10.9337    4.5988   18.6427 N   0  0  0  0  0  0
   11.9325    4.0701   19.3849 C   0  0  0  0  0  0
   12.1298    2.8610   19.5117 O   0  0  0  0  0  0
   12.6242    5.0457   20.0068 N   0  0  0  0  0  0
   13.3812    4.9735   21.1901 C   0  0  0  0  0  0
   13.7961    3.7852   21.8147 C   0  0  0  0  0  0
   14.4872    3.8280   23.0292 C   0  0  0  0  0  0
   14.7752    5.0612   23.6202 C   0  0  0  0  0  0
   14.3802    6.2442   22.9969 C   0  0  0  0  0  0
   13.6852    6.2003   21.7899 C   0  0  0  0  0  0
   14.8894    2.5382   23.7201 C   0  0  0  0  0  0
    2.6312    0.5673   15.8289 H   0  0  0  0  0  0
    4.5273   -0.8056   16.6348 H   0  0  0  0  0  0
    6.6232    0.2118   17.3369 H   0  0  0  0  0  0
    1.9149    3.3720   15.4452 H   0  0  0  0  0  0
    5.3961    5.2408   16.2935 H   0  0  0  0  0  0
    7.5601    1.4983   19.0628 H   0  0  0  0  0  0
    9.6649    2.4637   19.8098 H   0  0  0  0  0  0
    9.4304    5.3712   16.6382 H   0  0  0  0  0  0
    7.3949    4.3430   15.8395 H   0  0  0  0  0  0
   11.0282    5.5603   18.3524 H   0  0  0  0  0  0
   12.3903    5.9872   19.7401 H   0  0  0  0  0  0
   13.5756    2.8194   21.3865 H   0  0  0  0  0  0
   15.2981    5.1056   24.5639 H   0  0  0  0  0  0
   14.5949    7.1996   23.4543 H   0  0  0  0  0  0
   13.3667    7.1316   21.3438 H   0  0  0  0  0  0
   14.9846    2.6787   24.7985 H   0  0  0  0  0  0
   15.8335    2.1679   23.3197 H   0  0  0  0  0  0
   14.1259    1.7722   23.5720 H   0  0  0  0  0  0
  1  2  2  0  0  0
  1  6  1  0  0  0
  1 27  1  0  0  0
  2  3  1  0  0  0
  2 28  1  0  0  0
  3  4  2  0  0  0
  3 29  1  0  0  0
  4 10  1  0  0  0
  4  7  1  0  0  0
  5  6  1  0  0  0
  5  9  1  0  0  0
  5 30  1  0  0  0
  6  7  2  0  0  0
  7  8  1  0  0  0
  8  9  2  0  0  0
  8 31  1  0  0  0
 10 15  1  0  0  0
 10 11  2  0  0  0
 11 12  1  0  0  0
 11 32  1  0  0  0
 12 13  2  0  0  0
 12 33  1  0  0  0
 13 14  1  0  0  0
 13 16  1  0  0  0
 14 15  2  0  0  0
 14 34  1  0  0  0
 15 35  1  0  0  0
 16 17  1  0  0  0
 16 36  1  0  0  0
 17 18  2  0  0  0
 17 19  1  0  0  0
 19 20  1  0  0  0
 19 37  1  0  0  0
 20 21  2  0  0  0
 20 25  1  0  0  0
 21 22  1  0  0  0
 21 38  1  0  0  0
 22 23  2  0  0  0
 22 26  1  0  0  0
 23 24  1  0  0  0
 23 39  1  0  0  0
 24 25  2  0  0  0
 24 40  1  0  0  0
 25 41  1  0  0  0
 26 42  1  0  0  0
 26 43  1  0  0  0
 26 44  1  0  0  0
M  END
> <s_m_entry_id>
2338

> <s_m_entry_name>
dock_pv.77

> <s_m_Source_Path>
/home/csk/Desktop/cluster/DUD-E-result/akt1

> <s_m_Source_File>
dock_pv.maegz

> <i_m_Source_File_Index>
77

> <chembl_id>
CHEMBL375284

> <chembl_pref_name>
None

> <i_lp_mmshare_version>
53161

> <i_f3d_flags>
0

> <r_lp_tautomer_probability>
0.980392156862745

> <s_lp_Force_Field>
OPLS_2005

> <r_lp_Energy>
29.475912

> <b_lp_Chiralities_Consistent>
1

> <s_lp_Variant>
CHEMBL4282_lig3514-1

> <s_i_glide_gridfile>
glide-grid_3cqw

> <i_i_glide_lignum>
4655

> <i_i_glide_rotatable_bonds>
5

> <r_i_docking_score>
-7.23395980945659

> <r_i_glide_ligand_efficiency>
-0.278229223440638

> <r_i_glide_ligand_efficiency_sa>
-0.824252979663761

> <r_i_glide_ligand_efficiency_ln>
-1.69887172469271

> <r_i_glide_gscore>
-7.23395980945659

> <r_i_glide_lipo>
-2.21318025204639

> <r_i_glide_hbond>
-0.652698813142321

> <r_i_glide_metal>
0

> <r_i_glide_rewards>
-1.90168731843512

> <r_i_glide_evdw>
-40.2939796447754

> <r_i_glide_ecoul>
-5.4381275177002

> <r_i_glide_erotb>
0.566107827562102

> <r_i_glide_esite>
-0.202083143501063

> <r_i_glide_emodel>
-62.7002989497531

> <r_i_glide_energy>
-45.7321071624756

> <r_i_glide_einternal>
5.73766088485718

> <i_i_glide_confnum>
75

> <i_i_glide_posenum>
144

> <r_i_glide_eff_state_penalty>
0

> <s_user_duplicate_titles>
CHEMBL4282_lig3514

> <s_m_subgroup_title>
dock_pv

> <s_m_subgroupid>
dock_pv

> <b_m_subgroup_collapsed>
1

$$$$
CHEMBL4282_lig648
                    3D
 Schrodinger Suite 2021-1.
 43 46  0  0  1  0            999 V2000
    4.7085    2.8570   16.4631 C   0  0  0  0  0  0
    5.9817    2.2851   16.9953 C   0  0  0  0  0  0
    7.0561    3.1235   17.3183 C   0  0  0  0  0  0
    8.2449    2.6207   17.8738 C   0  0  0  0  0  0
    8.3480    1.2306   18.0851 C   0  0  0  0  0  0
    7.2698    0.3939   17.7850 C   0  0  0  0  0  0
    6.1018    0.9150   17.2373 C   0  0  0  0  0  0
    9.4987    0.6153   18.6074 N   0  0  0  0  0  0
   10.7515    0.7505   18.1181 C   0  0  0  0  0  0
   11.8795    0.0123   18.8796 C   0  0  2  0  0  0
   11.0309    1.4367   17.1304 O   0  0  0  0  0  0
   13.2082   -0.0925   18.0757 C   0  0  0  0  0  0
   13.0293   -0.8687   16.8827 O   0  0  0  0  0  0
   11.4187   -1.3066   19.2413 O   0  0  0  0  0  0
   11.5408   -2.2558   18.2389 C   0  0  0  0  0  0
   12.3526   -2.0526   17.1077 C   0  0  0  0  0  0
   12.4419   -3.0418   16.1304 C   0  0  0  0  0  0
   11.7560   -4.2445   16.2934 C   0  0  0  0  0  0
   10.9772   -4.4612   17.4322 C   0  0  0  0  0  0
   10.8708   -3.4672   18.4075 C   0  0  0  0  0  0
    3.5142    2.2092   16.1628 C   0  0  0  0  0  0
    2.6347    3.1852   15.7858 N   0  0  0  0  0  0
    3.1797    4.4009   15.7886 N   0  0  0  0  0  0
    4.4119    4.2023   16.1824 C   0  0  0  0  0  0
    9.3087    3.4270   18.2412 O   0  0  0  0  0  0
    9.2354    4.8369   18.0592 C   0  0  0  0  0  0
    6.9486    4.1828   17.1623 H   0  0  0  0  0  0
    7.3323   -0.6654   17.9853 H   0  0  0  0  0  0
    5.2804    0.2484   17.0225 H   0  0  0  0  0  0
    9.3408   -0.1073   19.2988 H   0  0  0  0  0  0
   12.0158    0.6040   19.7872 H   0  0  0  0  0  0
   13.9534   -0.5708   18.7132 H   0  0  0  0  0  0
   13.6036    0.8946   17.8298 H   0  0  0  0  0  0
   13.0350   -2.8703   15.2490 H   0  0  0  0  0  0
   11.8296   -5.0110   15.5368 H   0  0  0  0  0  0
   10.4524   -5.3953   17.5579 H   0  0  0  0  0  0
   10.2618   -3.6243   19.2861 H   0  0  0  0  0  0
    3.2086    1.1749   16.2114 H   0  0  0  0  0  0
    1.6699    3.0373   15.4985 H   0  0  0  0  0  0
    5.0905    5.0348   16.2901 H   0  0  0  0  0  0
   10.1695    5.2939   18.3880 H   0  0  0  0  0  0
    9.0968    5.0926   17.0065 H   0  0  0  0  0  0
    8.4271    5.2770   18.6484 H   0  0  0  0  0  0
  1 21  2  0  0  0
  1 24  1  0  0  0
  1  2  1  0  0  0
  2  7  1  0  0  0
  2  3  2  0  0  0
  3  4  1  0  0  0
  3 27  1  0  0  0
  4  5  2  0  0  0
  4 25  1  0  0  0
  5  8  1  0  0  0
  5  6  1  0  0  0
  6  7  2  0  0  0
  6 28  1  0  0  0
  7 29  1  0  0  0
  8  9  1  0  0  0
  8 30  1  0  0  0
  9 10  1  0  0  0
  9 11  2  0  0  0
 10 14  1  0  0  0
 10 12  1  0  0  0
 10 31  1  0  0  0
 12 13  1  0  0  0
 12 32  1  0  0  0
 12 33  1  0  0  0
 13 16  1  0  0  0
 14 15  1  0  0  0
 15 16  2  0  0  0
 15 20  1  0  0  0
 16 17  1  0  0  0
 17 18  2  0  0  0
 17 34  1  0  0  0
 18 19  1  0  0  0
 18 35  1  0  0  0
 19 20  2  0  0  0
 19 36  1  0  0  0
 20 37  1  0  0  0
 21 22  1  0  0  0
 21 38  1  0  0  0
 22 23  1  0  0  0
 22 39  1  0  0  0
 23 24  2  0  0  0
 24 40  1  0  0  0
 25 26  1  0  0  0
 26 41  1  0  0  0
 26 42  1  0  0  0
 26 43  1  0  0  0
M  END
> <s_m_entry_id>
2339

> <s_m_entry_name>
dock_pv.78

> <s_m_Source_Path>
/home/csk/Desktop/cluster/DUD-E-result/akt1

> <s_m_Source_File>
dock_pv.maegz

> <i_m_Source_File_Index>
78

> <chembl_id>
CHEMBL485215

> <chembl_pref_name>
None

> <i_lp_mmshare_version>
53161

> <i_f3d_flags>
0

> <r_lp_tautomer_probability>
0.5

> <s_lp_Force_Field>
OPLS_2005

> <r_lp_Energy>
27.522072

> <b_lp_Chiralities_Consistent>
1

> <s_lp_Variant>
CHEMBL4282_lig648-1

> <s_i_glide_gridfile>
glide-grid_3cqw

> <i_i_glide_lignum>
917

> <i_i_glide_rotatable_bonds>
5

> <r_i_docking_score>
-7.22922164728158

> <r_i_glide_ligand_efficiency>
-0.278046986433907

> <r_i_glide_ligand_efficiency_sa>
-0.823713103248388

> <r_i_glide_ligand_efficiency_ln>
-1.69775898285308

> <r_i_glide_gscore>
-7.22922164728158

> <r_i_glide_lipo>
-1.98103217185792

> <r_i_glide_hbond>
-0.595335606725497

> <r_i_glide_metal>
0

> <r_i_glide_rewards>
-1.9501485794813

> <r_i_glide_evdw>
-42.6823768615723

> <r_i_glide_ecoul>
-6.27191877365112

> <r_i_glide_erotb>
0.43257116420003

> <r_i_glide_esite>
-0.0603697942906083

> <r_i_glide_emodel>
-67.773153804644

> <r_i_glide_energy>
-48.9542956352234

> <r_i_glide_einternal>
6.494957447052

> <i_i_glide_confnum>
32

> <i_i_glide_posenum>
365

> <r_i_glide_eff_state_penalty>
0

> <s_user_duplicate_titles>
CHEMBL4282_lig648

> <s_m_subgroup_title>
dock_pv

> <s_m_subgroupid>
dock_pv

> <b_m_subgroup_collapsed>
1

$$$$
CHEMBL4282_lig3633
                    3D
 Schrodinger Suite 2021-1.
 34 35  0  0  1  0            999 V2000
    5.8679    4.8260   16.1834 Cl  0  0  0  0  0  0
    5.5955   -0.9670   17.3840 O   0  0  0  0  0  0
    3.0310    4.3115   15.7830 O   0  0  0  0  0  0
    2.2313    2.2370   15.3483 O   0  0  0  0  0  0
    9.6070    1.6834   17.5962 O   0  0  0  0  0  0
    7.7389    0.4923   18.1787 N   0  0  0  0  0  0
    9.7018   -0.1616   18.9505 N   0  0  0  0  0  0
   11.9808    0.6877   18.8298 N   0  0  0  0  0  0
   12.7354   -1.3915   20.5706 N   0  0  0  0  0  0
   16.0821   -0.7788   20.9787 N   0  0  0  0  0  0
    6.7043    1.1417   17.4661 C   0  0  0  0  0  0
    5.5844    0.3861   17.0895 C   0  0  0  0  0  0
    4.4755    2.4240   16.2747 C   0  0  0  0  0  0
    5.6476    3.1497   16.5757 C   0  0  0  0  0  0
    4.4895    1.0356   16.4985 C   0  0  0  0  0  0
    6.7272    2.5128   17.1871 C   0  0  0  0  0  0
    3.2017    3.0930   15.7860 C   0  0  0  0  0  0
    9.0606    0.7541   18.1981 C   0  0  0  0  0  0
   11.0630   -0.2178   19.2850 C   0  0  0  0  0  0
   11.4506   -1.2484   20.1481 C   0  0  0  0  0  0
   13.6381   -0.4823   20.1136 C   0  0  0  0  0  0
   13.2672    0.5475   19.2426 C   0  0  0  0  0  0
    4.4173   -1.7540   17.2351 C   0  0  0  0  0  0
   14.9987   -0.6444   20.5914 C   0  0  0  0  0  0
    1.4863    2.7427   14.9839 H   0  0  0  0  0  0
    7.4274   -0.2866   18.7466 H   0  0  0  0  0  0
    9.1169   -0.8753   19.3743 H   0  0  0  0  0  0
    3.6153    0.4521   16.2605 H   0  0  0  0  0  0
    7.5830    3.1089   17.4603 H   0  0  0  0  0  0
   10.7353   -1.9680   20.5172 H   0  0  0  0  0  0
   13.9689    1.2802   18.8788 H   0  0  0  0  0  0
    4.6107   -2.7534   17.6332 H   0  0  0  0  0  0
    3.5673   -1.3455   17.7820 H   0  0  0  0  0  0
    4.1268   -1.8735   16.1911 H   0  0  0  0  0  0
  1 14  1  0  0  0
  2 12  1  0  0  0
  2 23  1  0  0  0
  3 17  2  0  0  0
  4 17  1  0  0  0
  4 25  1  0  0  0
  5 18  2  0  0  0
  6 11  1  0  0  0
  6 18  1  0  0  0
  6 26  1  0  0  0
  7 18  1  0  0  0
  7 19  1  0  0  0
  7 27  1  0  0  0
  8 19  1  0  0  0
  8 22  2  0  0  0
  9 20  1  0  0  0
  9 21  2  0  0  0
 10 24  3  0  0  0
 11 12  1  0  0  0
 11 16  2  0  0  0
 12 15  2  0  0  0
 13 14  2  0  0  0
 13 15  1  0  0  0
 13 17  1  0  0  0
 14 16  1  0  0  0
 15 28  1  0  0  0
 16 29  1  0  0  0
 19 20  2  0  0  0
 20 30  1  0  0  0
 21 22  1  0  0  0
 21 24  1  0  0  0
 22 31  1  0  0  0
 23 32  1  0  0  0
 23 33  1  0  0  0
 23 34  1  0  0  0
M  END
> <s_m_entry_id>
2340

> <s_m_entry_name>
dock_pv.79

> <s_m_Source_Path>
/home/csk/Desktop/cluster/DUD-E-result/akt1

> <s_m_Source_File>
dock_pv.maegz

> <i_m_Source_File_Index>
79

> <chembl_id>
CHEMBL1983006

> <chembl_pref_name>
None

> <i_lp_mmshare_version>
53161

> <i_f3d_flags>
0

> <r_lp_tautomer_probability>
1

> <s_lp_Force_Field>
OPLS_2005

> <r_lp_Energy>
30.19607

> <b_lp_Chiralities_Consistent>
1

> <s_lp_Variant>
CHEMBL4282_lig3633-1

> <s_i_glide_gridfile>
glide-grid_3cqw

> <i_i_glide_lignum>
4850

> <i_i_glide_rotatable_bonds>
7

> <r_i_docking_score>
-7.22881494598962

> <r_i_glide_ligand_efficiency>
-0.301200622749567

> <r_i_glide_ligand_efficiency_sa>
-0.868812936553397

> <r_i_glide_ligand_efficiency_ln>
-1.73018712527876

> <r_i_glide_gscore>
-7.22881494598962

> <r_i_glide_lipo>
-1.30691901005357

> <r_i_glide_hbond>
-0.604670156468447

> <r_i_glide_metal>
0

> <r_i_glide_rewards>
-2.12149791132349

> <r_i_glide_evdw>
-33.6979484558105

> <r_i_glide_ecoul>
-13.9114389419556

> <r_i_glide_erotb>
0.786892590122401

> <r_i_glide_esite>
-0.21100719418265

> <r_i_glide_emodel>
-66.7548860932157

> <r_i_glide_energy>
-47.6093873977661

> <r_i_glide_einternal>
2.28171753883362

> <i_i_glide_confnum>
66

> <i_i_glide_posenum>
345

> <r_i_glide_eff_state_penalty>
0

> <s_user_duplicate_titles>
CHEMBL4282_lig3633

> <s_m_subgroup_title>
dock_pv

> <s_m_subgroupid>
dock_pv

> <b_m_subgroup_collapsed>
1

$$$$
CHEMBL4282_lig967
                    3D
 Schrodinger Suite 2021-1.
 55 59  0  0  1  0            999 V2000
   12.7971   -0.0944   17.8161 C   0  0  0  0  0  0
   12.0050   -0.3220   18.9430 C   0  0  0  0  0  0
   11.0306   -1.3192   18.9189 C   0  0  0  0  0  0
   10.8542   -2.0948   17.7794 C   0  0  0  0  0  0
   11.6490   -1.8705   16.6593 C   0  0  0  0  0  0
   12.6173   -0.8680   16.6706 C   0  0  0  0  0  0
   12.1993    0.5083   20.2089 C   0  0  0  0  0  0
   11.0613    1.5356   20.4492 C   0  0  1  0  0  0
   11.2658    2.2362   21.7287 N   0  0  0  0  0  0
   11.0016    2.6172   19.3234 C   0  0  0  0  0  0
    9.8166    2.9453   18.7295 N   0  0  0  0  0  0
   12.0809    3.1218   18.9858 O   0  0  0  0  0  0
    8.5598    2.3012   19.1350 C   0  0  0  0  0  0
    7.3681    3.1541   18.6619 C   0  0  0  0  0  0
    7.3695    3.4804   17.2307 N   0  0  0  0  0  0
    8.5841    4.2592   16.9581 C   0  0  0  0  0  0
    9.9137    3.6355   17.4300 C   0  0  0  0  0  0
    6.1646    3.7599   16.5858 C   0  0  0  0  0  0
    3.6882    4.5617   15.4793 N   0  0  0  0  0  0
    4.7549    5.3716   15.6732 C   0  0  0  0  0  0
    5.9688    5.0370   16.1749 N   0  0  0  0  0  0
   11.4313   -2.8456   15.2534 Cl  0  0  0  0  0  0
    4.9168    1.4102   16.7237 C   0  0  0  0  0  0
    3.6686    1.1116   16.1904 C   0  0  0  0  0  0
    3.0628    2.2439   15.7069 N   0  0  0  0  0  0
    3.9296    3.2987   15.8405 C   0  0  0  0  0  0
    5.1322    2.8036   16.4312 C   0  0  0  0  0  0
    5.8301    0.4994   17.5041 C   0  0  0  0  0  0
    5.7294   -0.9864   17.3852 C   0  0  0  0  0  0
    6.9343   -0.2338   16.8283 C   0  0  0  0  0  0
   13.5462    0.6842   17.8289 H   0  0  0  0  0  0
   10.4006   -1.4946   19.7803 H   0  0  0  0  0  0
   10.0988   -2.8656   17.7760 H   0  0  0  0  0  0
   13.2251   -0.6940   15.7972 H   0  0  0  0  0  0
   12.2540   -0.1880   21.0469 H   0  0  0  0  0  0
   13.1777    0.9921   20.1931 H   0  0  0  0  0  0
   10.1372    0.9629   20.5195 H   0  0  0  0  0  0
   12.1380    2.7434   21.7162 H   0  0  0  0  0  0
   10.5599    2.9557   21.8725 H   0  0  0  0  0  0
    8.4534    1.3161   18.6852 H   0  0  0  0  0  0
    8.4565    2.2737   20.2214 H   0  0  0  0  0  0
    7.4314    4.1097   19.1878 H   0  0  0  0  0  0
    6.4204    2.7382   18.9918 H   0  0  0  0  0  0
    8.4607    5.1897   17.5154 H   0  0  0  0  0  0
    8.6480    4.5092   15.8986 H   0  0  0  0  0  0
   10.6235    4.4658   17.4854 H   0  0  0  0  0  0
   10.1842    2.8887   16.6822 H   0  0  0  0  0  0
    4.6277    6.4054   15.3855 H   0  0  0  0  0  0
    3.1221    0.1788   16.1879 H   0  0  0  0  0  0
    2.1234    2.2659   15.3322 H   0  0  0  0  0  0
    6.0102    0.8231   18.5249 H   0  0  0  0  0  0
    5.8290   -1.5767   18.2954 H   0  0  0  0  0  0
    4.9935   -1.4084   16.7004 H   0  0  0  0  0  0
    7.0274   -0.1635   15.7476 H   0  0  0  0  0  0
    7.8945   -0.3263   17.3374 H   0  0  0  0  0  0
  1  6  1  0  0  0
  1  2  2  0  0  0
  1 31  1  0  0  0
  2  3  1  0  0  0
  2  7  1  0  0  0
  3  4  2  0  0  0
  3 32  1  0  0  0
  4  5  1  0  0  0
  4 33  1  0  0  0
  5 22  1  0  0  0
  5  6  2  0  0  0
  6 34  1  0  0  0
  7  8  1  0  0  0
  7 35  1  0  0  0
  7 36  1  0  0  0
  8  9  1  0  0  0
  8 10  1  0  0  0
  8 37  1  0  0  0
  9 38  1  0  0  0
  9 39  1  0  0  0
 10 11  1  0  0  0
 10 12  2  0  0  0
 11 17  1  0  0  0
 11 13  1  0  0  0
 13 14  1  0  0  0
 13 40  1  0  0  0
 13 41  1  0  0  0
 14 15  1  0  0  0
 14 42  1  0  0  0
 14 43  1  0  0  0
 15 16  1  0  0  0
 15 18  1  0  0  0
 16 17  1  0  0  0
 16 44  1  0  0  0
 16 45  1  0  0  0
 17 46  1  0  0  0
 17 47  1  0  0  0
 18 27  1  0  0  0
 18 21  2  0  0  0
 19 26  1  0  0  0
 19 20  2  0  0  0
 20 21  1  0  0  0
 20 48  1  0  0  0
 23 24  2  0  0  0
 23 27  1  0  0  0
 23 28  1  0  0  0
 24 25  1  0  0  0
 24 49  1  0  0  0
 25 26  1  0  0  0
 25 50  1  0  0  0
 26 27  2  0  0  0
 28 29  1  0  0  0
 28 30  1  0  0  0
 28 51  1  0  0  0
 29 30  1  0  0  0
 29 52  1  0  0  0
 29 53  1  0  0  0
 30 54  1  0  0  0
 30 55  1  0  0  0
M  END
> <s_m_entry_id>
2341

> <s_m_entry_name>
dock_pv.80

> <s_m_Source_Path>
/home/csk/Desktop/cluster/DUD-E-result/akt1

> <s_m_Source_File>
dock_pv.maegz

> <i_m_Source_File_Index>
80

> <chembl_id>
CHEMBL1258780

> <chembl_pref_name>
None

> <i_lp_mmshare_version>
53161

> <i_f3d_flags>
0

> <r_lp_tautomer_probability>
0.999998369746258

> <s_lp_Force_Field>
OPLS_2005

> <r_lp_Energy>
43.887401

> <b_lp_Chiralities_Consistent>
1

> <s_lp_Variant>
CHEMBL4282_lig967-1

> <s_i_glide_gridfile>
glide-grid_3cqw

> <i_i_glide_lignum>
1363

> <i_i_glide_rotatable_bonds>
6

> <r_i_docking_score>
-7.22326754332612

> <r_i_glide_ligand_efficiency>
-0.240775584777537

> <r_i_glide_ligand_efficiency_sa>
-0.748145722812616

> <r_i_glide_ligand_efficiency_ln>
-1.64120508964726

> <r_i_glide_gscore>
-7.22326754332612

> <r_i_glide_lipo>
-2.39597016453766

> <r_i_glide_hbond>
-0.236483858903816

> <r_i_glide_metal>
0

> <r_i_glide_rewards>
-1.7960351978375

> <r_i_glide_evdw>
-44.4821662902832

> <r_i_glide_ecoul>
-6.81485033035278

> <r_i_glide_erotb>
0.549192160767503

> <r_i_glide_esite>
-0.0976346187475709

> <r_i_glide_emodel>
-64.7981984777843

> <r_i_glide_energy>
-51.297016620636

> <r_i_glide_einternal>
2.61493158340454

> <i_i_glide_confnum>
33

> <i_i_glide_posenum>
366

> <r_i_glide_eff_state_penalty>
0

> <s_user_duplicate_titles>
CHEMBL4282_lig967

> <s_m_subgroup_title>
dock_pv

> <s_m_subgroupid>
dock_pv

> <b_m_subgroup_collapsed>
1

$$$$
CHEMBL4282_lig3340
                    3D
 Schrodinger Suite 2021-1.
 39 42  0  0  1  0            999 V2000
    8.2746    0.8493   18.1673 O   0  0  0  0  0  0
   12.5305    1.4372   17.8950 O   0  0  0  0  0  0
   11.0329   -0.2504   22.0900 O   0  0  0  0  0  0
   12.0454    1.8253   20.0995 N   0  0  0  0  0  0
    9.5461    0.4768   18.6076 N   0  0  0  0  0  0
    3.4820    4.2939   15.7145 N   0  0  0  0  0  0
    2.7483    3.1723   15.7850 N   0  0  0  0  0  0
    8.2898    2.1521   17.7829 C   0  0  0  0  0  0
   10.3066    1.5414   18.4668 C   0  0  0  0  0  0
    7.0461    2.7259   17.1794 C   0  0  0  0  0  0
   11.7054    1.5863   18.8007 C   0  0  0  0  0  0
    9.5659    2.6332   18.0014 C   0  0  0  0  0  0
    4.7402    2.4978   16.4813 C   0  0  0  0  0  0
    4.7245    3.8755   16.1031 C   0  0  0  0  0  0
    5.9042    1.9305   17.0249 C   0  0  0  0  0  0
    7.0403    4.0498   16.7362 C   0  0  0  0  0  0
    5.9003    4.6365   16.1849 C   0  0  0  0  0  0
    3.4292    2.0479   16.1847 C   0  0  0  0  0  0
   11.0636    2.0134   21.2014 C   0  0  0  0  0  0
   13.4717    1.9989   20.4538 C   0  0  0  0  0  0
   11.4087    1.0780   22.3891 C   0  0  2  0  0  0
   13.8103    0.9766   21.5553 C   0  0  0  0  0  0
   12.8958    1.1415   22.7778 C   0  0  0  0  0  0
   11.5833   -0.5612   21.3661 H   0  0  0  0  0  0
    1.7647    3.1765   15.5289 H   0  0  0  0  0  0
    9.9236    3.6353   17.8148 H   0  0  0  0  0  0
    5.9075    0.8979   17.3411 H   0  0  0  0  0  0
    7.9297    4.6559   16.8419 H   0  0  0  0  0  0
    5.9075    5.6691   15.8723 H   0  0  0  0  0  0
    2.9231    1.0982   16.2728 H   0  0  0  0  0  0
   10.0291    1.8241   20.9095 H   0  0  0  0  0  0
   11.0888    3.0393   21.5580 H   0  0  0  0  0  0
   13.5921    3.0118   20.8439 H   0  0  0  0  0  0
   14.1520    1.8963   19.6044 H   0  0  0  0  0  0
   10.8160    1.3823   23.2527 H   0  0  0  0  0  0
   14.8492    1.1072   21.8557 H   0  0  0  0  0  0
   13.7468   -0.0347   21.1519 H   0  0  0  0  0  0
   13.0979    2.0997   23.2575 H   0  0  0  0  0  0
   13.1281    0.3802   23.5223 H   0  0  0  0  0  0
  1  5  1  0  0  0
  1  8  1  0  0  0
  2 11  2  0  0  0
  3 21  1  0  0  0
  3 24  1  0  0  0
  4 11  1  0  0  0
  4 19  1  0  0  0
  4 20  1  0  0  0
  5  9  2  0  0  0
  6  7  1  0  0  0
  6 14  2  0  0  0
  7 25  1  0  0  0
  7 18  1  0  0  0
  8 12  2  0  0  0
  8 10  1  0  0  0
  9 11  1  0  0  0
  9 12  1  0  0  0
 10 16  1  0  0  0
 10 15  2  0  0  0
 12 26  1  0  0  0
 13 15  1  0  0  0
 13 14  1  0  0  0
 13 18  2  0  0  0
 14 17  1  0  0  0
 15 27  1  0  0  0
 16 17  2  0  0  0
 16 28  1  0  0  0
 17 29  1  0  0  0
 18 30  1  0  0  0
 19 21  1  0  0  0
 19 31  1  0  0  0
 19 32  1  0  0  0
 20 22  1  0  0  0
 20 33  1  0  0  0
 20 34  1  0  0  0
 21 23  1  0  0  0
 21 35  1  0  0  0
 22 23  1  0  0  0
 22 36  1  0  0  0
 22 37  1  0  0  0
 23 38  1  0  0  0
 23 39  1  0  0  0
M  END
> <s_m_entry_id>
2342

> <s_m_entry_name>
dock_pv.81

> <s_m_Source_Path>
/home/csk/Desktop/cluster/DUD-E-result/akt1

> <s_m_Source_File>
dock_pv.maegz

> <i_m_Source_File_Index>
81

> <chembl_id>
CHEMBL1997340

> <chembl_pref_name>
None

> <i_lp_mmshare_version>
53161

> <i_f3d_flags>
0

> <r_lp_tautomer_probability>
0.0196078431372549

> <s_lp_Force_Field>
OPLS_2005

> <r_lp_Energy>
46.26802

> <b_lp_Chiralities_Consistent>
1

> <s_lp_Variant>
CHEMBL4282_lig3340-3

> <s_i_glide_gridfile>
glide-grid_3cqw

> <i_i_glide_lignum>
4393

> <i_i_glide_rotatable_bonds>
4

> <r_i_docking_score>
-7.22040980232997

> <r_i_glide_ligand_efficiency>
-0.313930860970868

> <r_i_glide_ligand_efficiency_sa>
-0.892777608538325

> <r_i_glide_ligand_efficiency_ln>
-1.74596056125972

> <r_i_glide_gscore>
-7.22040980232997

> <r_i_glide_lipo>
-1.55227251467481

> <r_i_glide_hbond>
-0.693665461084806

> <r_i_glide_metal>
0

> <r_i_glide_rewards>
-2.25788776841264

> <r_i_glide_evdw>
-35.2583198547363

> <r_i_glide_ecoul>
-7.97420597076416

> <r_i_glide_erotb>
0.399524359473748

> <r_i_glide_esite>
-0.157061529280015

> <r_i_glide_emodel>
-58.4974775669298

> <r_i_glide_energy>
-43.2325258255005

> <r_i_glide_einternal>
6.03514003753662

> <i_i_glide_confnum>
13

> <i_i_glide_posenum>
295

> <r_i_glide_eff_state_penalty>
0

> <s_user_duplicate_titles>
CHEMBL4282_lig3340

> <s_m_subgroup_title>
dock_pv

> <s_m_subgroupid>
dock_pv

> <b_m_subgroup_collapsed>
1

$$$$
CHEMBL4282_lig3612
                    3D
 Schrodinger Suite 2021-1.
 32 34  0  0  1  0            999 V2000
    4.3040   -0.6412   16.9850 I   0  0  0  0  0  0
    9.3122    1.9222   17.3850 O   0  0  0  0  0  0
    8.2310    4.6252   19.3850 O   0  0  0  0  0  0
   10.2937    2.6370   20.7388 O   0  0  0  0  0  0
    9.8310   -0.8074   18.1850 O   0  0  0  0  0  0
    7.0846    2.5440   17.2006 N   0  0  0  0  0  0
    6.6386    1.2902   17.4651 N   0  0  0  0  0  0
    6.1127    4.5837   16.2199 N   0  0  0  0  0  0
    3.7511    4.3394   15.6518 N   0  0  0  0  0  0
    2.6310    2.2895   15.7850 N   0  0  0  0  0  0
    8.4068    2.9620   17.6395 C   0  0  1  0  0  0
    6.0816    3.2989   16.6058 C   0  0  0  0  0  0
    4.9606    2.4406   16.4938 C   0  0  0  0  0  0
    8.5174    3.2592   19.1381 C   0  0  1  0  0  0
    5.4310    1.1829   16.9806 C   0  0  0  0  0  0
    9.9718    2.8583   19.3772 C   0  0  2  0  0  0
   10.1705    1.6328   18.4803 C   0  0  1  0  0  0
    3.7924    3.0239   15.9746 C   0  0  0  0  0  0
    4.9066    5.0370   15.7849 C   0  0  0  0  0  0
    9.7287    0.2782   19.0886 C   0  0  0  0  0  0
    8.5440    4.8435   20.2745 H   0  0  0  0  0  0
   10.2310    3.4966   21.2062 H   0  0  0  0  0  0
    9.3462   -1.5367   18.6020 H   0  0  0  0  0  0
    2.6144    1.3174   16.0501 H   0  0  0  0  0  0
    1.8042    2.7557   15.4245 H   0  0  0  0  0  0
    8.6883    3.8235   17.0296 H   0  0  0  0  0  0
    7.8450    2.5991   19.6925 H   0  0  0  0  0  0
   10.6211    3.6509   18.9966 H   0  0  0  0  0  0
   11.2110    1.5882   18.1561 H   0  0  0  0  0  0
    4.8551    6.0822   15.5213 H   0  0  0  0  0  0
    8.6920    0.3370   19.4230 H   0  0  0  0  0  0
   10.3219    0.0460   19.9737 H   0  0  0  0  0  0
  1 15  1  0  0  0
  2 11  1  0  0  0
  2 17  1  0  0  0
  3 14  1  0  0  0
  3 21  1  0  0  0
  4 16  1  0  0  0
  4 22  1  0  0  0
  5 20  1  0  0  0
  5 23  1  0  0  0
  6  7  1  0  0  0
  6 11  1  0  0  0
  6 12  1  0  0  0
  7 15  2  0  0  0
  8 12  1  0  0  0
  8 19  2  0  0  0
  9 18  2  0  0  0
  9 19  1  0  0  0
 10 18  1  0  0  0
 10 24  1  0  0  0
 10 25  1  0  0  0
 11 14  1  0  0  0
 11 26  1  0  0  0
 12 13  2  0  0  0
 13 15  1  0  0  0
 13 18  1  0  0  0
 14 16  1  0  0  0
 14 27  1  0  0  0
 16 17  1  0  0  0
 16 28  1  0  0  0
 17 20  1  0  0  0
 17 29  1  0  0  0
 19 30  1  0  0  0
 20 31  1  0  0  0
 20 32  1  0  0  0
M  END
> <s_m_entry_id>
2343

> <s_m_entry_name>
dock_pv.82

> <s_m_Source_Path>
/home/csk/Desktop/cluster/DUD-E-result/akt1

> <s_m_Source_File>
dock_pv.maegz

> <i_m_Source_File_Index>
82

> <chembl_id>
CHEMBL2001288

> <chembl_pref_name>
None

> <i_lp_mmshare_version>
53161

> <i_f3d_flags>
0

> <r_lp_tautomer_probability>
1

> <s_lp_Force_Field>
OPLS_2005

> <r_lp_Energy>
34.066756

> <b_lp_Chiralities_Consistent>
1

> <s_lp_Variant>
CHEMBL4282_lig3612-12

> <s_i_glide_gridfile>
glide-grid_3cqw

> <i_i_glide_lignum>
4817

> <i_i_glide_rotatable_bonds>
5

> <r_i_docking_score>
-7.21427262887303

> <r_i_glide_ligand_efficiency>
-0.360713631443652

> <r_i_glide_ligand_efficiency_sa>
-0.979127434758836

> <r_i_glide_ligand_efficiency_ln>
-1.80549449637083

> <r_i_glide_gscore>
-7.21427262887303

> <r_i_glide_lipo>
-0.983349807991976

> <r_i_glide_hbond>
-0.32

> <r_i_glide_metal>
0

> <r_i_glide_rewards>
-2.49012669477036

> <r_i_glide_evdw>
-31.9207191467285

> <r_i_glide_ecoul>
-13.8500356674194

> <r_i_glide_erotb>
0.252745181338646

> <r_i_glide_esite>
0

> <r_i_glide_emodel>
-66.2671550681626

> <r_i_glide_energy>
-45.7707548141479

> <r_i_glide_einternal>
4.78634309768677

> <i_i_glide_confnum>
13

> <i_i_glide_posenum>
195

> <r_i_glide_eff_state_penalty>
0

> <s_user_duplicate_titles>
CHEMBL4282_lig3612

> <s_m_subgroup_title>
dock_pv

> <s_m_subgroupid>
dock_pv

> <b_m_subgroup_collapsed>
1

$$$$
CHEMBL4282_lig3468
                    3D
 Schrodinger Suite 2021-1.
 58 60  0  0  1  0            999 V2000
   11.5825    1.0660   18.5824 O   0  0  0  0  0  0
   10.4799   -5.7063   16.9596 O   0  0  0  0  0  0
   10.3037   -0.5609   19.4769 N   0  0  0  0  0  0
   10.2844    3.5661   18.5854 N   0  0  0  0  0  0
    3.4311    4.6326   15.6509 N   0  0  0  0  0  0
   12.6282    7.4370   20.4154 N   0  0  0  0  0  0
    9.2070    1.3677   18.4208 C   0  0  0  0  0  0
    9.1804    2.7694   18.2212 C   0  0  0  0  0  0
    6.9060    2.6214   17.2869 C   0  0  0  0  0  0
   10.4636    0.6208   18.8469 C   0  0  0  0  0  0
    8.0350    3.3626   17.6660 C   0  0  0  0  0  0
    8.0395    0.6413   18.1459 C   0  0  0  0  0  0
    5.7235    3.2800   16.6254 C   0  0  0  0  0  0
    6.9229    1.2508   17.5760 C   0  0  0  0  0  0
   11.3703   -1.5490   19.6718 C   0  0  2  0  0  0
   11.5300   -2.4329   18.4227 C   0  0  0  0  0  0
    5.8055    4.5759   16.0789 C   0  0  0  0  0  0
    4.4622    2.6608   16.5849 C   0  0  0  0  0  0
   10.9228   -3.6933   18.3165 C   0  0  0  0  0  0
   11.0597   -4.4681   17.1520 C   0  0  0  0  0  0
   12.3143   -1.9720   17.3593 C   0  0  0  0  0  0
   10.2263    5.0168   18.7120 C   0  0  0  0  0  0
    4.6504    5.2160   15.6304 C   0  0  0  0  0  0
    3.3543    3.3585   16.1025 C   0  0  0  0  0  0
   11.8267   -3.9690   16.0991 C   0  0  0  0  0  0
   12.4549   -2.7303   16.2016 C   0  0  0  0  0  0
   11.1666   -2.3231   20.9875 C   0  0  0  0  0  0
   11.5338    5.6013   19.2678 C   0  0  0  0  0  0
    9.8049   -6.3371   18.0434 C   0  0  0  0  0  0
   11.4194    7.0718   19.7008 C   0  0  0  0  0  0
    9.3656   -0.8713   19.7129 H   0  0  0  0  0  0
   10.9713    3.1013   19.1660 H   0  0  0  0  0  0
   12.5509    8.3415   20.8709 H   0  0  0  0  0  0
   12.7389    6.7898   21.1861 H   0  0  0  0  0  0
    8.0292    4.4300   17.5264 H   0  0  0  0  0  0
    7.9975   -0.4275   18.3018 H   0  0  0  0  0  0
    6.0836    0.6191   17.3380 H   0  0  0  0  0  0
   12.3217   -1.0279   19.8133 H   0  0  0  0  0  0
    6.7394    5.1116   16.0342 H   0  0  0  0  0  0
    4.3034    1.6699   16.9792 H   0  0  0  0  0  0
   10.3137   -4.0523   19.1319 H   0  0  0  0  0  0
   12.7993   -1.0076   17.4202 H   0  0  0  0  0  0
    9.9289    5.4995   17.7850 H   0  0  0  0  0  0
    9.4108    5.2588   19.3951 H   0  0  0  0  0  0
    4.6838    6.2304   15.2622 H   0  0  0  0  0  0
    2.3707    2.9080   16.0959 H   0  0  0  0  0  0
   11.9389   -4.5530   15.1973 H   0  0  0  0  0  0
   13.0481   -2.3514   15.3850 H   0  0  0  0  0  0
   11.9763   -3.0329   21.1579 H   0  0  0  0  0  0
   11.1502   -1.6411   21.8387 H   0  0  0  0  0  0
   10.2299   -2.8768   21.0048 H   0  0  0  0  0  0
   11.8325    5.0037   20.1331 H   0  0  0  0  0  0
   12.3319    5.4869   18.5321 H   0  0  0  0  0  0
    9.4472   -7.3152   17.7254 H   0  0  0  0  0  0
   10.4735   -6.4887   18.8934 H   0  0  0  0  0  0
    8.9369   -5.7628   18.3721 H   0  0  0  0  0  0
   11.2849    7.7261   18.8386 H   0  0  0  0  0  0
   10.5646    7.2095   20.3643 H   0  0  0  0  0  0
  1 10  2  0  0  0
  2 20  1  0  0  0
  2 29  1  0  0  0
  3 10  1  0  0  0
  3 15  1  0  0  0
  3 31  1  0  0  0
  4  8  1  0  0  0
  4 22  1  0  0  0
  4 32  1  0  0  0
  5 23  2  0  0  0
  5 24  1  0  0  0
  6 30  1  0  0  0
  6 33  1  0  0  0
  6 34  1  0  0  0
  7  8  1  0  0  0
  7 10  1  0  0  0
  7 12  2  0  0  0
  8 11  2  0  0  0
  9 11  1  0  0  0
  9 13  1  0  0  0
  9 14  2  0  0  0
 11 35  1  0  0  0
 12 14  1  0  0  0
 12 36  1  0  0  0
 13 17  2  0  0  0
 13 18  1  0  0  0
 14 37  1  0  0  0
 15 16  1  0  0  0
 15 27  1  0  0  0
 15 38  1  0  0  0
 16 19  2  0  0  0
 16 21  1  0  0  0
 17 23  1  0  0  0
 17 39  1  0  0  0
 18 24  2  0  0  0
 18 40  1  0  0  0
 19 20  1  0  0  0
 19 41  1  0  0  0
 20 25  2  0  0  0
 21 26  2  0  0  0
 21 42  1  0  0  0
 22 28  1  0  0  0
 22 43  1  0  0  0
 22 44  1  0  0  0
 23 45  1  0  0  0
 24 46  1  0  0  0
 25 26  1  0  0  0
 25 47  1  0  0  0
 26 48  1  0  0  0
 27 49  1  0  0  0
 27 50  1  0  0  0
 27 51  1  0  0  0
 28 30  1  0  0  0
 28 52  1  0  0  0
 28 53  1  0  0  0
 29 54  1  0  0  0
 29 55  1  0  0  0
 29 56  1  0  0  0
 30 57  1  0  0  0
 30 58  1  0  0  0
M  END
> <s_m_entry_id>
2345

> <s_m_entry_name>
dock_pv.84

> <s_m_Source_Path>
/home/csk/Desktop/cluster/DUD-E-result/akt1

> <s_m_Source_File>
dock_pv.maegz

> <i_m_Source_File_Index>
84

> <chembl_id>
CHEMBL2006188

> <chembl_pref_name>
None

> <i_lp_mmshare_version>
53161

> <i_f3d_flags>
0

> <r_lp_tautomer_probability>
1

> <s_lp_Force_Field>
OPLS_2005

> <r_lp_Energy>
27.952804

> <b_lp_Chiralities_Consistent>
1

> <s_lp_Variant>
CHEMBL4282_lig3468-1

> <s_i_glide_gridfile>
glide-grid_3cqw

> <i_i_glide_lignum>
4592

> <i_i_glide_rotatable_bonds>
10

> <r_i_docking_score>
-7.20532329766164

> <r_i_glide_ligand_efficiency>
-0.240177443255388

> <r_i_glide_ligand_efficiency_sa>
-0.74628715803394

> <r_i_glide_ligand_efficiency_ln>
-1.63712796151407

> <r_i_glide_gscore>
-7.20532329766164

> <r_i_glide_lipo>
-2.52466897004476

> <r_i_glide_hbond>
-0.527954755355799

> <r_i_glide_metal>
0

> <r_i_glide_rewards>
-1.63916576091518

> <r_i_glide_evdw>
-47.2564506530762

> <r_i_glide_ecoul>
-6.38860130310059

> <r_i_glide_erotb>
0.960433376537783

> <r_i_glide_esite>
-0.152854459764793

> <r_i_glide_emodel>
-71.7987940380542

> <r_i_glide_energy>
-53.6450519561768

> <r_i_glide_einternal>
10.7333269119263

> <i_i_glide_confnum>
4

> <i_i_glide_posenum>
349

> <r_i_glide_eff_state_penalty>
0

> <s_user_duplicate_titles>
CHEMBL4282_lig3468

> <s_m_subgroup_title>
dock_pv

> <s_m_subgroupid>
dock_pv

> <b_m_subgroup_collapsed>
1

$$$$
CHEMBL4282_lig57
                    3D
 Schrodinger Suite 2021-1.
 46 48  0  0  1  0            999 V2000
    9.0738    2.4090   18.0655 C   0  0  0  0  0  0
    7.8866    1.8034   18.4949 C   0  0  0  0  0  0
    6.6664    2.1790   17.9431 C   0  0  0  0  0  0
    6.6081    3.1911   16.9815 C   0  0  0  0  0  0
    7.7848    3.8350   16.5897 C   0  0  0  0  0  0
    9.0099    3.4441   17.1259 C   0  0  0  0  0  0
    5.2970    3.5876   16.3850 C   0  0  0  0  0  0
   10.4378    1.9452   18.5951 C   0  0  2  0  0  0
   10.8553    0.6346   17.9156 C   0  0  0  0  0  0
   11.8567    0.6407   16.9386 C   0  0  0  0  0  0
   12.2278   -0.5413   16.2987 C   0  0  0  0  0  0
   11.6073   -1.7392   16.6468 C   0  0  0  0  0  0
   10.6311   -1.7621   17.6434 C   0  0  0  0  0  0
   10.2526   -0.5768   18.2680 C   0  0  0  0  0  0
   12.0410   -3.1981   15.8309 Cl  0  0  0  0  0  0
   10.4050    1.8398   20.0621 N   0  0  1  0  0  0
   11.6611    1.8107   20.8273 C   0  0  0  0  0  0
   11.2159    1.7897   22.3016 C   0  0  0  0  0  0
   12.4862    3.0839   20.5544 C   0  0  0  0  0  0
    4.9336    4.8153   15.8021 C   0  0  0  0  0  0
    3.6661    4.8818   15.4680 N   0  0  0  0  0  0
    3.1773    3.6798   15.7774 N   0  0  0  0  0  0
    4.1272    2.8409   16.2899 C   0  0  0  0  0  0
   12.4944    0.5471   20.5366 C   0  0  0  0  0  0
    7.9050    1.0194   19.2396 H   0  0  0  0  0  0
    5.7690    1.6872   18.2869 H   0  0  0  0  0  0
    7.7589    4.6290   15.8563 H   0  0  0  0  0  0
    9.9060    3.9516   16.8045 H   0  0  0  0  0  0
   11.1552    2.7247   18.3427 H   0  0  0  0  0  0
   12.3359    1.5645   16.6576 H   0  0  0  0  0  0
   12.9890   -0.5269   15.5294 H   0  0  0  0  0  0
   10.1590   -2.6910   17.9317 H   0  0  0  0  0  0
    9.4953   -0.5993   19.0394 H   0  0  0  0  0  0
    9.8305    2.5886   20.4343 H   0  0  0  0  0  0
   10.6316    0.8971   22.5326 H   0  0  0  0  0  0
   12.0695    1.8059   22.9841 H   0  0  0  0  0  0
   10.5899    2.6490   22.5535 H   0  0  0  0  0  0
   12.9232    3.0902   19.5575 H   0  0  0  0  0  0
   11.8743    3.9840   20.6412 H   0  0  0  0  0  0
   13.3054    3.1852   21.2688 H   0  0  0  0  0  0
    5.5775    5.6744   15.6977 H   0  0  0  0  0  0
    2.2066    3.4338   15.6138 H   0  0  0  0  0  0
    3.8833    1.8294   16.5851 H   0  0  0  0  0  0
   12.9153    0.5577   19.5334 H   0  0  0  0  0  0
   13.3281    0.4596   21.2316 H   0  0  0  0  0  0
   11.9014   -0.3596   20.6309 H   0  0  0  0  0  0
  1  2  2  0  0  0
  1  6  1  0  0  0
  1  8  1  0  0  0
  2  3  1  0  0  0
  2 25  1  0  0  0
  3  4  2  0  0  0
  3 26  1  0  0  0
  4  5  1  0  0  0
  4  7  1  0  0  0
  5  6  2  0  0  0
  5 27  1  0  0  0
  6 28  1  0  0  0
  7 23  2  0  0  0
  7 20  1  0  0  0
  8  9  1  0  0  0
  8 16  1  0  0  0
  8 29  1  0  0  0
  9 10  2  0  0  0
  9 14  1  0  0  0
 10 11  1  0  0  0
 10 30  1  0  0  0
 11 12  2  0  0  0
 11 31  1  0  0  0
 12 13  1  0  0  0
 12 15  1  0  0  0
 13 14  2  0  0  0
 13 32  1  0  0  0
 14 33  1  0  0  0
 16 17  1  0  0  0
 16 34  1  0  0  0
 17 18  1  0  0  0
 17 19  1  0  0  0
 17 24  1  0  0  0
 18 35  1  0  0  0
 18 36  1  0  0  0
 18 37  1  0  0  0
 19 38  1  0  0  0
 19 39  1  0  0  0
 19 40  1  0  0  0
 20 41  1  0  0  0
 20 21  2  0  0  0
 21 22  1  0  0  0
 22 42  1  0  0  0
 22 23  1  0  0  0
 23 43  1  0  0  0
 24 44  1  0  0  0
 24 45  1  0  0  0
 24 46  1  0  0  0
M  END
> <s_m_entry_id>
2346

> <s_m_entry_name>
dock_pv.85

> <s_m_Source_Path>
/home/csk/Desktop/cluster/DUD-E-result/akt1

> <s_m_Source_File>
dock_pv.maegz

> <i_m_Source_File_Index>
85

> <chembl_id>
CHEMBL3112595

> <chembl_pref_name>
None

> <i_lp_mmshare_version>
53161

> <i_f3d_flags>
0

> <r_lp_tautomer_probability>
0.5

> <s_lp_Force_Field>
OPLS_2005

> <r_lp_Energy>
20.405343

> <b_lp_Chiralities_Consistent>
1

> <s_lp_Variant>
CHEMBL4282_lig57-1

> <s_i_glide_gridfile>
glide-grid_3cqw

> <i_i_glide_lignum>
62

> <i_i_glide_rotatable_bonds>
5

> <r_i_docking_score>
-7.20064530807775

> <r_i_glide_ligand_efficiency>
-0.300026887836573

> <r_i_glide_ligand_efficiency_sa>
-0.865427299209141

> <r_i_glide_ligand_efficiency_ln>
-1.72344483830599

> <r_i_glide_gscore>
-7.20064530807775

> <r_i_glide_lipo>
-2.43869379642917

> <r_i_glide_hbond>
-0.440081794757472

> <r_i_glide_metal>
0

> <r_i_glide_rewards>
-2.03685354545454

> <r_i_glide_evdw>
-43.380443572998

> <r_i_glide_ecoul>
-3.83254337310791

> <r_i_glide_erotb>
0.458887513179522

> <r_i_glide_esite>
0

> <r_i_glide_emodel>
-67.5711840036438

> <r_i_glide_energy>
-47.212986946106

> <r_i_glide_einternal>
2.26532745361328

> <i_i_glide_confnum>
13

> <i_i_glide_posenum>
272

> <r_i_glide_eff_state_penalty>
0

> <s_user_duplicate_titles>
CHEMBL4282_lig57

> <s_m_subgroup_title>
dock_pv

> <s_m_subgroupid>
dock_pv

> <b_m_subgroup_collapsed>
1

$$$$
CHEMBL4282_lig379
                    3D
 Schrodinger Suite 2021-1.
 52 55  0  0  1  0            999 V2000
    6.2771    3.0944   16.9911 C   0  0  0  0  0  0
    7.0499    2.0424   17.5035 C   0  0  0  0  0  0
    6.5583    0.7300   17.3828 C   0  0  0  0  0  0
    5.3322    0.4393   16.7869 C   0  0  0  0  0  0
    5.0308    2.8373   16.4132 C   0  0  0  0  0  0
    4.5489    1.5000   16.3199 C   0  0  0  0  0  0
    3.2970    1.4382   15.7841 N   0  0  0  0  0  0
    3.0099    2.7253   15.5358 N   0  0  0  0  0  0
    4.0035    3.6255   15.8421 C   0  0  0  0  0  0
    3.8941    5.1087   15.6008 C   0  0  0  0  0  0
    8.3821    2.3140   18.1450 C   0  0  0  0  0  0
    9.0681    3.5285   17.9665 C   0  0  0  0  0  0
   10.2754    3.8059   18.5168 N   0  0  0  0  0  0
   10.8793    2.8348   19.2445 C   0  0  0  0  0  0
   10.3116    1.5811   19.4612 C   0  0  0  0  0  0
    9.0283    1.3528   18.9428 C   0  0  0  0  0  0
   11.0703    0.6365   20.1250 O   0  0  0  0  0  0
   10.6561   -0.7302   20.0952 C   0  0  0  0  0  0
   11.8796   -1.6467   20.2955 C   0  0  2  0  0  0
   12.8839   -1.6385   19.1058 C   0  0  0  0  0  0
   11.4293   -2.9975   20.5981 N   0  0  0  0  0  0
   12.3637   -2.1413   17.7473 C   0  0  0  0  0  0
   12.1395   -1.2840   16.6441 C   0  0  0  0  0  0
   11.6723   -1.8172   15.4357 C   0  0  0  0  0  0
   11.4311   -3.1819   15.3080 C   0  0  0  0  0  0
   11.6650   -4.0323   16.3845 C   0  0  0  0  0  0
   12.1376   -3.5166   17.5887 C   0  0  0  0  0  0
   12.4004    0.2128   16.7113 C   0  0  0  0  0  0
   11.4311   -5.3569   16.2580 F   0  0  0  0  0  0
    6.6069    4.1203   17.0680 H   0  0  0  0  0  0
    7.1299   -0.1101   17.7455 H   0  0  0  0  0  0
    4.9805   -0.5781   16.7259 H   0  0  0  0  0  0
    2.1158    2.9936   15.1388 H   0  0  0  0  0  0
    3.8311    5.6640   16.5398 H   0  0  0  0  0  0
    4.7764    5.4834   15.0806 H   0  0  0  0  0  0
    3.0334    5.3655   14.9875 H   0  0  0  0  0  0
    8.6741    4.3331   17.3645 H   0  0  0  0  0  0
   11.8546    3.0721   19.6420 H   0  0  0  0  0  0
    8.5412    0.4149   19.1565 H   0  0  0  0  0  0
   10.1843   -1.0003   19.1510 H   0  0  0  0  0  0
    9.9118   -0.8788   20.8804 H   0  0  0  0  0  0
   12.4146   -1.2956   21.1800 H   0  0  0  0  0  0
   13.7451   -2.2490   19.3702 H   0  0  0  0  0  0
   13.2937   -0.6331   19.0079 H   0  0  0  0  0  0
   10.8024   -2.9762   21.3930 H   0  0  0  0  0  0
   10.8575   -3.3240   19.8297 H   0  0  0  0  0  0
   11.4944   -1.1763   14.5855 H   0  0  0  0  0  0
   11.0683   -3.5813   14.3731 H   0  0  0  0  0  0
   12.3260   -4.1964   18.4063 H   0  0  0  0  0  0
   13.4299    0.4168   17.0015 H   0  0  0  0  0  0
   12.2245    0.7099   15.7550 H   0  0  0  0  0  0
   11.7507    0.6734   17.4524 H   0  0  0  0  0  0
  1  2  2  0  0  0
  1 30  1  0  0  0
  1  5  1  0  0  0
  2  3  1  0  0  0
  2 11  1  0  0  0
  3  4  2  0  0  0
  3 31  1  0  0  0
  4  6  1  0  0  0
  4 32  1  0  0  0
  5  6  1  0  0  0
  5  9  2  0  0  0
  6  7  2  0  0  0
  7  8  1  0  0  0
  8 33  1  0  0  0
  8  9  1  0  0  0
  9 10  1  0  0  0
 10 34  1  0  0  0
 10 35  1  0  0  0
 10 36  1  0  0  0
 11 16  1  0  0  0
 11 12  2  0  0  0
 12 13  1  0  0  0
 12 37  1  0  0  0
 13 14  2  0  0  0
 14 15  1  0  0  0
 14 38  1  0  0  0
 15 16  2  0  0  0
 15 17  1  0  0  0
 16 39  1  0  0  0
 17 18  1  0  0  0
 18 19  1  0  0  0
 18 40  1  0  0  0
 18 41  1  0  0  0
 19 20  1  0  0  0
 19 21  1  0  0  0
 19 42  1  0  0  0
 20 22  1  0  0  0
 20 43  1  0  0  0
 20 44  1  0  0  0
 21 45  1  0  0  0
 21 46  1  0  0  0
 22 23  2  0  0  0
 22 27  1  0  0  0
 23 24  1  0  0  0
 23 28  1  0  0  0
 24 25  2  0  0  0
 24 47  1  0  0  0
 25 26  1  0  0  0
 25 48  1  0  0  0
 26 27  2  0  0  0
 26 29  1  0  0  0
 27 49  1  0  0  0
 28 50  1  0  0  0
 28 51  1  0  0  0
 28 52  1  0  0  0
M  END
> <s_m_entry_id>
2347

> <s_m_entry_name>
dock_pv.86

> <s_m_Source_Path>
/home/csk/Desktop/cluster/DUD-E-result/akt1

> <s_m_Source_File>
dock_pv.maegz

> <i_m_Source_File_Index>
86

> <chembl_id>
CHEMBL227368

> <chembl_pref_name>
None

> <i_lp_mmshare_version>
53161

> <i_f3d_flags>
0

> <r_lp_tautomer_probability>
0.0196078431372549

> <s_lp_Force_Field>
OPLS_2005

> <r_lp_Energy>
42.244532

> <b_lp_Chiralities_Consistent>
1

> <s_lp_Variant>
CHEMBL4282_lig379-2

> <s_i_glide_gridfile>
glide-grid_3cqw

> <i_i_glide_lignum>
494

> <i_i_glide_rotatable_bonds>
6

> <r_i_docking_score>
-7.19865670568626

> <r_i_glide_ligand_efficiency>
-0.248229541575388

> <r_i_glide_ligand_efficiency_sa>
-0.762639796358339

> <r_i_glide_ligand_efficiency_ln>
-1.64830984341827

> <r_i_glide_gscore>
-7.19865670568626

> <r_i_glide_lipo>
-3.23863437334796

> <r_i_glide_hbond>
-0.32

> <r_i_glide_metal>
0

> <r_i_glide_rewards>
-1.72906158243504

> <r_i_glide_evdw>
-49.0260238647461

> <r_i_glide_ecoul>
-1.51524710655212

> <r_i_glide_erotb>
0.76762750931686

> <r_i_glide_esite>
0

> <r_i_glide_emodel>
-71.5227032495346

> <r_i_glide_energy>
-50.5412709712982

> <r_i_glide_einternal>
2.87154793739319

> <i_i_glide_confnum>
4

> <i_i_glide_posenum>
162

> <r_i_glide_eff_state_penalty>
0

> <s_user_duplicate_titles>
CHEMBL4282_lig379,381975

> <s_m_subgroup_title>
dock_pv

> <s_m_subgroupid>
dock_pv

> <b_m_subgroup_collapsed>
1

$$$$
CHEMBL4282_lig897
                    3D
 Schrodinger Suite 2021-1.
 51 54  0  0  1  0            999 V2000
    9.1973    4.4362   18.4735 C   0  0  2  0  0  0
    7.0610    0.7846   17.7859 N   0  0  0  0  0  0
    6.2314   -0.2675   17.6023 C   0  0  0  0  0  0
    5.0219   -0.2845   16.9847 N   0  0  0  0  0  0
    6.6390    1.9760   17.3007 C   0  0  0  0  0  0
    4.6820    3.1723   15.9860 C   0  0  0  0  0  0
    5.4146    2.1145   16.6274 C   0  0  0  0  0  0
    4.6494    0.9225   16.5367 C   0  0  0  0  0  0
    3.4623    1.2551   15.9326 N   0  0  0  0  0  0
    3.4746    2.5932   15.6200 C   0  0  0  0  0  0
    7.4969    3.0577   17.4336 N   0  0  0  0  0  0
    7.8480    3.7166   18.6906 C   0  0  0  0  0  0
    8.4578    3.4457   16.4187 C   0  0  0  0  0  0
    9.2219    4.6171   16.9676 C   0  0  0  0  0  0
   10.4125    3.6291   19.0358 C   0  0  0  0  0  0
   10.5417    2.2478   18.5475 N   0  0  0  0  0  0
    9.2211    5.7581   19.0630 N   0  0  0  0  0  0
   11.6962    1.6587   18.1850 C   0  0  0  0  0  0
   12.7852    2.2366   18.1863 O   0  0  0  0  0  0
   11.5937    0.2430   17.6802 C   0  0  0  0  0  0
   10.6771   -0.6639   18.2310 C   0  0  0  0  0  0
   10.6293   -1.9741   17.7631 C   0  0  0  0  0  0
   11.4700   -2.3819   16.7342 C   0  0  0  0  0  0
   12.3825   -1.4895   16.1820 C   0  0  0  0  0  0
   12.4483   -0.1833   16.6558 C   0  0  0  0  0  0
   11.3765   -3.9978   16.1310 Cl  0  0  0  0  0  0
    5.1759    4.5914   15.7728 C   0  0  0  0  0  0
    4.0551    5.6208   15.6962 C   0  0  0  0  0  0
    6.5587   -1.1956   18.0463 H   0  0  0  0  0  0
    2.6802    0.6467   15.7378 H   0  0  0  0  0  0
    2.6165    3.0289   15.1298 H   0  0  0  0  0  0
    7.9541    2.9953   19.5042 H   0  0  0  0  0  0
    7.0518    4.4317   18.9129 H   0  0  0  0  0  0
    7.9366    3.7567   15.5140 H   0  0  0  0  0  0
    9.1431    2.6369   16.1850 H   0  0  0  0  0  0
    8.7448    5.5365   16.6353 H   0  0  0  0  0  0
   10.2310    4.6370   16.5856 H   0  0  0  0  0  0
   10.3387    3.5505   20.1214 H   0  0  0  0  0  0
   11.3255    4.1997   18.8509 H   0  0  0  0  0  0
    9.6951    1.6965   18.5370 H   0  0  0  0  0  0
    8.3121    6.1861   18.9966 H   0  0  0  0  0  0
    9.4257    5.6542   20.0587 H   0  0  0  0  0  0
   10.0077   -0.3762   19.0314 H   0  0  0  0  0  0
    9.9194   -2.6680   18.1871 H   0  0  0  0  0  0
   13.0313   -1.8108   15.3848 H   0  0  0  0  0  0
   13.1638    0.4985   16.2175 H   0  0  0  0  0  0
    5.8327    4.8944   16.5847 H   0  0  0  0  0  0
    5.7823    4.6381   14.8683 H   0  0  0  0  0  0
    4.4453    6.6368   15.6275 H   0  0  0  0  0  0
    3.4311    5.4368   14.8287 H   0  0  0  0  0  0
    3.4319    5.5568   16.5841 H   0  0  0  0  0  0
  1 15  1  0  0  0
  1 17  1  0  0  0
  1 12  1  0  0  0
  1 14  1  0  0  0
  2  3  2  0  0  0
  2  5  1  0  0  0
  3  4  1  0  0  0
  3 29  1  0  0  0
  4  8  2  0  0  0
  5  7  2  0  0  0
  5 11  1  0  0  0
  6  7  1  0  0  0
  6 10  2  0  0  0
  6 27  1  0  0  0
  7  8  1  0  0  0
  8  9  1  0  0  0
  9 10  1  0  0  0
  9 30  1  0  0  0
 10 31  1  0  0  0
 11 12  1  0  0  0
 11 13  1  0  0  0
 12 32  1  0  0  0
 12 33  1  0  0  0
 13 14  1  0  0  0
 13 34  1  0  0  0
 13 35  1  0  0  0
 14 36  1  0  0  0
 14 37  1  0  0  0
 15 16  1  0  0  0
 15 38  1  0  0  0
 15 39  1  0  0  0
 16 18  1  0  0  0
 16 40  1  0  0  0
 17 41  1  0  0  0
 17 42  1  0  0  0
 18 19  2  0  0  0
 18 20  1  0  0  0
 20 21  2  0  0  0
 20 25  1  0  0  0
 21 22  1  0  0  0
 21 43  1  0  0  0
 22 23  2  0  0  0
 22 44  1  0  0  0
 23 24  1  0  0  0
 23 26  1  0  0  0
 24 25  2  0  0  0
 24 45  1  0  0  0
 25 46  1  0  0  0
 27 28  1  0  0  0
 27 47  1  0  0  0
 27 48  1  0  0  0
 28 49  1  0  0  0
 28 50  1  0  0  0
 28 51  1  0  0  0
M  END
> <s_m_entry_id>
2348

> <s_m_entry_name>
dock_pv.87

> <s_m_Source_Path>
/home/csk/Desktop/cluster/DUD-E-result/akt1

> <s_m_Source_File>
dock_pv.maegz

> <i_m_Source_File_Index>
87

> <chembl_id>
CHEMBL1170446

> <chembl_pref_name>
None

> <i_lp_mmshare_version>
53161

> <i_f3d_flags>
0

> <r_lp_tautomer_probability>
0.999998369746258

> <s_lp_Force_Field>
OPLS_2005

> <r_lp_Energy>
34.729446

> <b_lp_Chiralities_Consistent>
1

> <s_lp_Variant>
CHEMBL4282_lig897-1

> <s_i_glide_gridfile>
glide-grid_3cqw

> <i_i_glide_lignum>
1283

> <i_i_glide_rotatable_bonds>
6

> <r_i_docking_score>
-7.19436889745283

> <r_i_glide_ligand_efficiency>
-0.256941746337601

> <r_i_glide_ligand_efficiency_sa>
-0.780226472476609

> <r_i_glide_ligand_efficiency_ln>
-1.66067157738171

> <r_i_glide_gscore>
-7.19436889745283

> <r_i_glide_lipo>
-3.1390994400611

> <r_i_glide_hbond>
-0.16

> <r_i_glide_metal>
0

> <r_i_glide_rewards>
-1.29558138039716

> <r_i_glide_evdw>
-43.5198211669922

> <r_i_glide_ecoul>
-5.39251899719238

> <r_i_glide_erotb>
0.492459187290872

> <r_i_glide_esite>
-0.107278356356973

> <r_i_glide_emodel>
-61.2971718216772

> <r_i_glide_energy>
-48.9123401641846

> <r_i_glide_einternal>
12.7734270095825

> <i_i_glide_confnum>
8

> <i_i_glide_posenum>
130

> <r_i_glide_eff_state_penalty>
0

> <s_user_duplicate_titles>
CHEMBL4282_lig897,649400

> <s_m_subgroup_title>
dock_pv

> <s_m_subgroupid>
dock_pv

> <b_m_subgroup_collapsed>
1

$$$$
CHEMBL4282_lig1376
                    3D
 Schrodinger Suite 2021-1.
 46 48  0  0  1  0            999 V2000
    8.9937    2.2118   18.0738 C   0  0  0  0  0  0
    7.8126    1.5122   18.3398 C   0  0  0  0  0  0
    6.6043    1.9219   17.7872 C   0  0  0  0  0  0
    6.5517    3.0477   16.9630 C   0  0  0  0  0  0
    7.7246    3.7661   16.7108 C   0  0  0  0  0  0
    8.9374    3.3529   17.2598 C   0  0  0  0  0  0
    5.2445    3.4865   16.3792 C   0  0  0  0  0  0
   10.3027    1.7042   18.7019 C   0  0  1  0  0  0
   10.8376    0.4704   17.9488 C   0  0  0  0  0  0
   11.8308    0.5598   16.9640 C   0  0  0  0  0  0
   12.2669   -0.5825   16.2941 C   0  0  0  0  0  0
   11.7228   -1.8225   16.6211 C   0  0  0  0  0  0
   10.7605   -1.9272   17.6199 C   0  0  0  0  0  0
   10.3188   -0.7838   18.2737 C   0  0  0  0  0  0
   12.2311   -3.2427   15.7849 Cl  0  0  0  0  0  0
   11.2903    2.7812   18.8536 N   0  0  2  0  0  0
   12.4514    2.3995   19.6539 C   0  0  0  0  0  0
   13.4072    3.5962   19.8552 C   0  0  0  0  0  0
    4.0622    2.7693   16.2481 C   0  0  0  0  0  0
    3.1240    3.6509   15.7844 N   0  0  0  0  0  0
    3.6326    4.8579   15.5354 N   0  0  0  0  0  0
    4.8995    4.7472   15.8585 C   0  0  0  0  0  0
   14.6895    3.1466   20.5757 C   0  0  0  0  0  0
   12.7457    4.7668   20.6125 C   0  0  0  0  0  0
    7.8233    0.6437   18.9847 H   0  0  0  0  0  0
    5.7105    1.3673   18.0223 H   0  0  0  0  0  0
    7.7061    4.6437   16.0801 H   0  0  0  0  0  0
    9.8281    3.9222   17.0394 H   0  0  0  0  0  0
   10.0584    1.3991   19.7224 H   0  0  0  0  0  0
   12.2527    1.5179   16.7035 H   0  0  0  0  0  0
   13.0198   -0.5039   15.5238 H   0  0  0  0  0  0
   10.3455   -2.8878   17.8901 H   0  0  0  0  0  0
    9.5664   -0.8783   19.0419 H   0  0  0  0  0  0
   10.8379    3.5515   19.3331 H   0  0  0  0  0  0
   12.1024    2.0779   20.6370 H   0  0  0  0  0  0
   12.9937    1.5469   19.2441 H   0  0  0  0  0  0
   13.7027    3.9563   18.8688 H   0  0  0  0  0  0
    3.7918    1.7564   16.5008 H   0  0  0  0  0  0
    2.1473    3.4356   15.6160 H   0  0  0  0  0  0
    5.5621    5.5964   15.7855 H   0  0  0  0  0  0
   14.4711    2.7486   21.5673 H   0  0  0  0  0  0
   15.2128    2.3729   20.0118 H   0  0  0  0  0  0
   15.3823    3.9782   20.7041 H   0  0  0  0  0  0
   12.4217    4.4597   21.6074 H   0  0  0  0  0  0
   13.4311    5.6040   20.7388 H   0  0  0  0  0  0
   11.8729    5.1514   20.0865 H   0  0  0  0  0  0
  1  2  2  0  0  0
  1  6  1  0  0  0
  1  8  1  0  0  0
  2  3  1  0  0  0
  2 25  1  0  0  0
  3  4  2  0  0  0
  3 26  1  0  0  0
  4  5  1  0  0  0
  4  7  1  0  0  0
  5  6  2  0  0  0
  5 27  1  0  0  0
  6 28  1  0  0  0
  7 19  2  0  0  0
  7 22  1  0  0  0
  8  9  1  0  0  0
  8 16  1  0  0  0
  8 29  1  0  0  0
  9 10  2  0  0  0
  9 14  1  0  0  0
 10 11  1  0  0  0
 10 30  1  0  0  0
 11 12  2  0  0  0
 11 31  1  0  0  0
 12 13  1  0  0  0
 12 15  1  0  0  0
 13 14  2  0  0  0
 13 32  1  0  0  0
 14 33  1  0  0  0
 16 17  1  0  0  0
 16 34  1  0  0  0
 17 18  1  0  0  0
 17 35  1  0  0  0
 17 36  1  0  0  0
 18 23  1  0  0  0
 18 24  1  0  0  0
 18 37  1  0  0  0
 19 20  1  0  0  0
 19 38  1  0  0  0
 20 21  1  0  0  0
 20 39  1  0  0  0
 21 22  2  0  0  0
 22 40  1  0  0  0
 23 41  1  0  0  0
 23 42  1  0  0  0
 23 43  1  0  0  0
 24 44  1  0  0  0
 24 45  1  0  0  0
 24 46  1  0  0  0
M  END
> <s_m_entry_id>
2349

> <s_m_entry_name>
dock_pv.88

> <s_m_Source_Path>
/home/csk/Desktop/cluster/DUD-E-result/akt1

> <s_m_Source_File>
dock_pv.maegz

> <i_m_Source_File_Index>
88

> <chembl_id>
CHEMBL3113144

> <chembl_pref_name>
None

> <i_lp_mmshare_version>
53161

> <i_f3d_flags>
0

> <r_lp_tautomer_probability>
0.5

> <s_lp_Force_Field>
OPLS_2005

> <r_lp_Energy>
18.731037

> <b_lp_Chiralities_Consistent>
1

> <s_lp_Variant>
CHEMBL4282_lig1376-2

> <s_i_glide_gridfile>
glide-grid_3cqw

> <i_i_glide_lignum>
1908

> <i_i_glide_rotatable_bonds>
6

> <r_i_docking_score>
-7.18547485190829

> <r_i_glide_ligand_efficiency>
-0.299394785496179

> <r_i_glide_ligand_efficiency_sa>
-0.863604000553425

> <r_i_glide_ligand_efficiency_ln>
-1.71981385201777

> <r_i_glide_gscore>
-7.18547485190829

> <r_i_glide_lipo>
-2.37133416130623

> <r_i_glide_hbond>
-0.483092788173228

> <r_i_glide_metal>
0

> <r_i_glide_rewards>
-2.04518687878788

> <r_i_glide_evdw>
-41.6986427307129

> <r_i_glide_ecoul>
-5.16358852386475

> <r_i_glide_erotb>
0.573609391474402

> <r_i_glide_esite>
0

> <r_i_glide_emodel>
-67.5630731513241

> <r_i_glide_energy>
-46.8622312545776

> <r_i_glide_einternal>
0.780241966247559

> <i_i_glide_confnum>
12

> <i_i_glide_posenum>
325

> <r_i_glide_eff_state_penalty>
0

> <s_user_duplicate_titles>
CHEMBL4282_lig1376

> <s_m_subgroup_title>
dock_pv

> <s_m_subgroupid>
dock_pv

> <b_m_subgroup_collapsed>
1

$$$$
CHEMBL4282_lig993
                    3D
 Schrodinger Suite 2021-1.
 52 55  0  0  1  0            999 V2000
    3.9905    4.1110   15.6361 N   0  0  0  0  0  0
    5.0498    4.9474   15.7066 C   0  0  0  0  0  0
    6.2768    4.6370   16.1850 N   0  0  0  0  0  0
    6.4478    3.3838   16.6889 C   0  0  0  0  0  0
    4.2041    2.8385   16.0566 C   0  0  0  0  0  0
    5.4248    2.4147   16.6123 C   0  0  0  0  0  0
    5.3988    0.9794   17.1193 C   0  0  1  0  0  0
    3.8331    0.2539   16.5850 S   0  0  0  0  0  0
    3.1178    1.7901   15.9760 C   0  0  0  0  0  0
    7.6572    3.1695   17.3402 N   0  0  0  0  0  0
    7.7369    2.5966   18.7001 C   0  0  0  0  0  0
    8.6609    3.3553   19.6779 C   0  0  0  0  0  0
    9.9438    3.5793   19.0022 N   0  0  0  0  0  0
    9.8308    4.4050   17.7998 C   0  0  0  0  0  0
    8.9466    3.6353   16.7975 C   0  0  0  0  0  0
   11.1198    2.9793   19.3409 C   0  0  0  0  0  0
   12.1847    3.2267   18.7646 O   0  0  0  0  0  0
   11.1539    1.9189   20.4830 C   0  0  1  0  0  0
   12.1921    0.7857   20.2707 C   0  0  0  0  0  0
   11.9745   -0.0201   18.9918 C   0  0  0  0  0  0
   10.9438   -0.9601   18.9319 C   0  0  0  0  0  0
   10.7702   -1.7290   17.7851 C   0  0  0  0  0  0
   11.6194   -1.5486   16.6944 C   0  0  0  0  0  0
   12.6309   -0.5919   16.7371 C   0  0  0  0  0  0
   12.8142    0.1672   17.8904 C   0  0  0  0  0  0
   11.4310    2.6371   21.7397 N   0  0  0  0  0  0
   11.4310   -2.5272   15.2867 Cl  0  0  0  0  0  0
    6.5205    0.0547   16.6429 C   0  0  0  0  0  0
    4.8997    5.9641   15.3769 H   0  0  0  0  0  0
    5.4309    1.0329   18.2027 H   0  0  0  0  0  0
    2.2542    2.0557   16.5853 H   0  0  0  0  0  0
    2.7760    1.6364   14.9521 H   0  0  0  0  0  0
    6.7419    2.5367   19.1419 H   0  0  0  0  0  0
    8.1139    1.5798   18.6035 H   0  0  0  0  0  0
    8.7374    2.8835   20.6567 H   0  0  0  0  0  0
    8.2245    4.3321   19.8923 H   0  0  0  0  0  0
    9.3631    5.3565   18.0566 H   0  0  0  0  0  0
   10.7985    4.6643   17.3850 H   0  0  0  0  0  0
    8.8045    4.2357   15.8980 H   0  0  0  0  0  0
    9.4726    2.7328   16.4838 H   0  0  0  0  0  0
   10.1841    1.4268   20.5483 H   0  0  0  0  0  0
   12.1558    0.0851   21.1062 H   0  0  0  0  0  0
   13.2087    1.1839   20.2919 H   0  0  0  0  0  0
   10.2838   -1.1102   19.7764 H   0  0  0  0  0  0
    9.9838   -2.4681   17.7609 H   0  0  0  0  0  0
   13.2786   -0.4481   15.8851 H   0  0  0  0  0  0
   13.6056    0.9023   17.9288 H   0  0  0  0  0  0
   10.9204    3.5321   21.7857 H   0  0  0  0  0  0
   11.1416    2.1168   22.5536 H   0  0  0  0  0  0
    7.4943    0.3845   16.9852 H   0  0  0  0  0  0
    6.3765   -0.9366   17.0720 H   0  0  0  0  0  0
    6.5435   -0.0381   15.5564 H   0  0  0  0  0  0
  1  2  2  0  0  0
  1  5  1  0  0  0
  2  3  1  0  0  0
  2 29  1  0  0  0
  3  4  2  0  0  0
  4 10  1  0  0  0
  4  6  1  0  0  0
  5  9  1  0  0  0
  5  6  2  0  0  0
  6  7  1  0  0  0
  7  8  1  0  0  0
  7 28  1  0  0  0
  7 30  1  0  0  0
  8  9  1  0  0  0
  9 31  1  0  0  0
  9 32  1  0  0  0
 10 11  1  0  0  0
 10 15  1  0  0  0
 11 12  1  0  0  0
 11 33  1  0  0  0
 11 34  1  0  0  0
 12 13  1  0  0  0
 12 35  1  0  0  0
 12 36  1  0  0  0
 13 14  1  0  0  0
 13 16  1  0  0  0
 14 15  1  0  0  0
 14 37  1  0  0  0
 14 38  1  0  0  0
 15 39  1  0  0  0
 15 40  1  0  0  0
 16 17  2  0  0  0
 16 18  1  0  0  0
 18 19  1  0  0  0
 18 26  1  0  0  0
 18 41  1  0  0  0
 19 20  1  0  0  0
 19 42  1  0  0  0
 19 43  1  0  0  0
 20 21  2  0  0  0
 20 25  1  0  0  0
 21 22  1  0  0  0
 21 44  1  0  0  0
 22 23  2  0  0  0
 22 45  1  0  0  0
 23 24  1  0  0  0
 23 27  1  0  0  0
 24 25  2  0  0  0
 24 46  1  0  0  0
 25 47  1  0  0  0
 26 48  1  0  0  0
 26 49  1  0  0  0
 28 50  1  0  0  0
 28 51  1  0  0  0
 28 52  1  0  0  0
M  END
> <s_m_entry_id>
2350

> <s_m_entry_name>
dock_pv.89

> <s_m_Source_Path>
/home/csk/Desktop/cluster/DUD-E-result/akt1

> <s_m_Source_File>
dock_pv.maegz

> <i_m_Source_File_Index>
89

> <chembl_id>
CHEMBL1632371

> <chembl_pref_name>
None

> <i_lp_mmshare_version>
53161

> <i_f3d_flags>
0

> <r_lp_tautomer_probability>
1

> <s_lp_Force_Field>
OPLS_2005

> <r_lp_Energy>
40.328917

> <b_lp_Chiralities_Consistent>
1

> <s_lp_Variant>
CHEMBL4282_lig993-2

> <s_i_glide_gridfile>
glide-grid_3cqw

> <i_i_glide_lignum>
1394

> <i_i_glide_rotatable_bonds>
5

> <r_i_docking_score>
-7.15536729330705

> <r_i_glide_ligand_efficiency>
-0.255548831903823

> <r_i_glide_ligand_efficiency_sa>
-0.77599676387293

> <r_i_glide_ligand_efficiency_ln>
-1.65166886200801

> <r_i_glide_gscore>
-7.15536729330705

> <r_i_glide_lipo>
-2.87417045006735

> <r_i_glide_hbond>
-0.16

> <r_i_glide_metal>
0

> <r_i_glide_rewards>
-1.29422825537036

> <r_i_glide_evdw>
-43.1184196472168

> <r_i_glide_ecoul>
-6.52452611923218

> <r_i_glide_erotb>
0.452691502936067

> <r_i_glide_esite>
-0.145060190559746

> <r_i_glide_emodel>
-68.0259944267317

> <r_i_glide_energy>
-49.642945766449

> <r_i_glide_einternal>
3.70675778388977

> <i_i_glide_confnum>
10

> <i_i_glide_posenum>
141

> <r_i_glide_eff_state_penalty>
0

> <s_user_duplicate_titles>
CHEMBL4282_lig993,CHEMBL4282_lig995

> <s_m_subgroup_title>
dock_pv

> <s_m_subgroupid>
dock_pv

> <b_m_subgroup_collapsed>
1

$$$$
CHEMBL4282_lig2356
                    3D
 Schrodinger Suite 2021-1.
 51 54  0  0  1  0            999 V2000
   12.6917   -1.2971   16.4184 C   0  0  0  0  0  0
   12.4932    0.1684   16.8262 C   0  0  0  0  0  0
   11.9777    0.3205   18.2871 C   0  0  1  0  0  0
   12.9869    1.0115   19.2081 C   0  0  0  0  0  0
   12.5201    2.4322   19.2126 C   0  0  0  0  0  0
   13.1649    3.5774   19.6796 C   0  0  0  0  0  0
   12.5365    4.8158   19.5615 C   0  0  0  0  0  0
   11.2708    4.9044   18.9850 C   0  0  0  0  0  0
   10.5995    3.7496   18.5849 C   0  0  0  0  0  0
   11.1996    2.4941   18.7607 C   0  0  0  0  0  0
   10.7939    1.2060   18.3466 N   0  0  0  0  0  0
    9.5545    0.6573   18.1833 C   0  0  0  0  0  0
    9.4402   -0.4770   17.7058 O   0  0  0  0  0  0
    8.2674    1.3864   18.6540 C   0  0  0  0  0  0
    7.0327    1.0936   17.7990 C   0  0  0  0  0  0
    6.4242    2.0146   17.1310 N   0  0  0  0  0  0
    5.2974    1.6839   16.4206 C   0  0  0  0  0  0
    4.8413    0.4119   16.3524 C   0  0  0  0  0  0
    5.4318   -0.6028   17.1641 C   0  0  0  0  0  0
    4.9436   -1.7060   17.3850 O   0  0  0  0  0  0
    6.5521   -0.1840   17.7846 N   0  0  0  0  0  0
    4.6300    2.7103   15.7851 N   0  0  0  0  0  0
    5.2002    4.0188   15.3916 C   0  0  0  0  0  0
    4.4220    5.1489   16.0690 C   0  0  0  0  0  0
    3.0354    5.0368   15.7846 O   0  0  0  0  0  0
    2.5029    3.8380   16.3226 C   0  0  0  0  0  0
    3.1665    2.6705   15.5918 C   0  0  0  0  0  0
   13.0308   -1.3707   15.3865 H   0  0  0  0  0  0
   13.4317   -1.7886   17.0506 H   0  0  0  0  0  0
   11.7586   -1.8565   16.4968 H   0  0  0  0  0  0
   11.8099    0.6304   16.1152 H   0  0  0  0  0  0
   13.4323    0.6996   16.6891 H   0  0  0  0  0  0
   11.7678   -0.6704   18.6972 H   0  0  0  0  0  0
   14.0249    0.8554   18.9099 H   0  0  0  0  0  0
   12.9116    0.6024   20.2169 H   0  0  0  0  0  0
   14.1564    3.5253   20.1046 H   0  0  0  0  0  0
   13.0291    5.7126   19.9058 H   0  0  0  0  0  0
   10.8027    5.8701   18.8619 H   0  0  0  0  0  0
    9.6483    3.8846   18.0988 H   0  0  0  0  0  0
    8.0737    1.0375   19.6684 H   0  0  0  0  0  0
    8.3795    2.4554   18.7524 H   0  0  0  0  0  0
    3.9716    0.1371   15.7853 H   0  0  0  0  0  0
    6.9652   -0.8440   18.4317 H   0  0  0  0  0  0
    6.2149    4.0807   15.7855 H   0  0  0  0  0  0
    5.4309    4.1755   14.3413 H   0  0  0  0  0  0
    4.8072    6.1286   15.7851 H   0  0  0  0  0  0
    4.5677    5.0370   17.1309 H   0  0  0  0  0  0
    1.4300    3.8120   16.1851 H   0  0  0  0  0  0
    2.6540    3.7718   17.4024 H   0  0  0  0  0  0
    2.8379    2.4428   14.5850 H   0  0  0  0  0  0
    2.7559    1.8014   16.1042 H   0  0  0  0  0  0
  1  2  1  0  0  0
  1 28  1  0  0  0
  1 29  1  0  0  0
  1 30  1  0  0  0
  2  3  1  0  0  0
  2 31  1  0  0  0
  2 32  1  0  0  0
  3  4  1  0  0  0
  3 11  1  0  0  0
  3 33  1  0  0  0
  4  5  1  0  0  0
  4 34  1  0  0  0
  4 35  1  0  0  0
  5  6  2  0  0  0
  5 10  1  0  0  0
  6  7  1  0  0  0
  6 36  1  0  0  0
  7  8  2  0  0  0
  7 37  1  0  0  0
  8  9  1  0  0  0
  8 38  1  0  0  0
  9 10  2  0  0  0
  9 39  1  0  0  0
 10 11  1  0  0  0
 11 12  1  0  0  0
 12 13  2  0  0  0
 12 14  1  0  0  0
 14 15  1  0  0  0
 14 40  1  0  0  0
 14 41  1  0  0  0
 15 16  2  0  0  0
 15 21  1  0  0  0
 16 17  1  0  0  0
 17 18  2  0  0  0
 17 22  1  0  0  0
 18 19  1  0  0  0
 18 42  1  0  0  0
 19 20  2  0  0  0
 19 21  1  0  0  0
 21 43  1  0  0  0
 22 23  1  0  0  0
 22 27  1  0  0  0
 23 24  1  0  0  0
 23 44  1  0  0  0
 23 45  1  0  0  0
 24 25  1  0  0  0
 24 46  1  0  0  0
 24 47  1  0  0  0
 25 26  1  0  0  0
 26 27  1  0  0  0
 26 48  1  0  0  0
 26 49  1  0  0  0
 27 50  1  0  0  0
 27 51  1  0  0  0
M  END
> <s_m_entry_id>
2352

> <s_m_entry_name>
dock_pv.91

> <s_m_Source_Path>
/home/csk/Desktop/cluster/DUD-E-result/akt1

> <s_m_Source_File>
dock_pv.maegz

> <i_m_Source_File_Index>
91

> <chembl_id>
CHEMBL3959404

> <chembl_pref_name>
None

> <i_lp_mmshare_version>
53161

> <i_f3d_flags>
0

> <r_lp_tautomer_probability>
0.994036381586735

> <s_lp_Force_Field>
OPLS_2005

> <r_lp_Energy>
55.061487

> <b_lp_Chiralities_Consistent>
1

> <s_lp_Variant>
CHEMBL4282_lig2356-2

> <s_i_glide_gridfile>
glide-grid_3cqw

> <i_i_glide_lignum>
3151

> <i_i_glide_rotatable_bonds>
5

> <r_i_docking_score>
-7.13371340725513

> <r_i_glide_ligand_efficiency>
-0.264211607676116

> <r_i_glide_ligand_efficiency_sa>
-0.79263482215755

> <r_i_glide_ligand_efficiency_ln>
-1.66061087275188

> <r_i_glide_gscore>
-7.13371340725513

> <r_i_glide_lipo>
-2.16194889283511

> <r_i_glide_hbond>
-0.366847179624342

> <r_i_glide_metal>
0

> <r_i_glide_rewards>
-1.79629776101692

> <r_i_glide_evdw>
-32.7192153930664

> <r_i_glide_ecoul>
-10.3694152832031

> <r_i_glide_erotb>
0.567841742997243

> <r_i_glide_esite>
-0.185088254642216

> <r_i_glide_emodel>
-51.5932818557781

> <r_i_glide_energy>
-43.0886306762695

> <r_i_glide_einternal>
9.30140399932861

> <i_i_glide_confnum>
13

> <i_i_glide_posenum>
112

> <r_i_glide_eff_state_penalty>
0

> <s_user_duplicate_titles>
CHEMBL4282_lig2356

> <s_m_subgroup_title>
dock_pv

> <s_m_subgroupid>
dock_pv

> <b_m_subgroup_collapsed>
1

$$$$
CHEMBL4282_lig2227
                    3D
 Schrodinger Suite 2021-1.
 45 48  0  0  1  0            999 V2000
    2.5494    1.4398   15.2328 F   0  0  0  0  0  0
    3.7165    1.7811   15.8171 C   0  0  0  0  0  0
    4.1426    3.1069   15.7850 C   0  0  0  0  0  0
    5.3724    3.4600   16.3375 C   0  0  0  0  0  0
    6.1816    2.4802   16.9373 C   0  0  0  0  0  0
    7.4448    2.5880   17.5700 N   0  0  0  0  0  0
    7.7057    1.3323   18.2931 C   0  0  0  0  0  0
    6.6786    0.3309   17.7851 C   0  0  0  0  0  0
    5.7043    1.1766   17.0410 C   0  0  0  0  0  0
    4.4882    0.8158   16.4656 C   0  0  0  0  0  0
    4.0415   -0.4555   16.5850 F   0  0  0  0  0  0
    8.2669    3.6851   17.5253 C   0  0  0  0  0  0
    7.9905    4.6370   16.7953 O   0  0  0  0  0  0
    9.5826    3.8975   18.3218 C   0  0  0  0  0  0
   10.3108    2.7143   18.9325 C   0  0  0  0  0  0
   10.9264    1.8464   18.1989 N   0  0  0  0  0  0
   11.5272    0.7605   18.7873 C   0  0  0  0  0  0
   11.5173    0.6088   20.1355 C   0  0  0  0  0  0
   10.8421    1.5590   20.9833 C   0  0  0  0  0  0
   10.7574    1.4371   22.1976 O   0  0  0  0  0  0
   10.2943    2.5787   20.2897 N   0  0  0  0  0  0
   12.1332   -0.1514   17.9215 N   0  0  0  0  0  0
   12.3824    0.0498   16.4799 C   0  0  0  0  0  0
   11.8603   -1.1556   15.6635 C   0  0  0  0  0  0
   12.5294   -2.3385   16.0849 O   0  0  0  0  0  0
   12.2679   -2.6066   17.4581 C   0  0  0  0  0  0
   12.7556   -1.4273   18.3300 C   0  0  0  0  0  0
    3.5162    3.8610   15.3350 H   0  0  0  0  0  0
    5.6671    4.4967   16.2889 H   0  0  0  0  0  0
    8.6899    0.8915   18.1705 H   0  0  0  0  0  0
    7.5174    1.5253   19.3517 H   0  0  0  0  0  0
    6.2386   -0.2615   18.5839 H   0  0  0  0  0  0
    7.1545   -0.3690   17.0983 H   0  0  0  0  0  0
   10.2649    4.3954   17.6378 H   0  0  0  0  0  0
    9.3723    4.6430   19.0898 H   0  0  0  0  0  0
   11.9868   -0.2144   20.6375 H   0  0  0  0  0  0
    9.8851    3.3001   20.8758 H   0  0  0  0  0  0
   11.8166    0.9136   16.1335 H   0  0  0  0  0  0
   13.3977    0.3849   16.2675 H   0  0  0  0  0  0
   12.0351   -1.0033   14.5990 H   0  0  0  0  0  0
   10.7800   -1.2654   15.7791 H   0  0  0  0  0  0
   12.7818   -3.5224   17.7512 H   0  0  0  0  0  0
   11.2059   -2.7991   17.6245 H   0  0  0  0  0  0
   13.8310   -1.3369   18.4700 H   0  0  0  0  0  0
   12.4413   -1.6905   19.3371 H   0  0  0  0  0  0
  1  2  1  0  0  0
  2  3  2  0  0  0
  2 10  1  0  0  0
  3  4  1  0  0  0
  3 28  1  0  0  0
  4  5  2  0  0  0
  4 29  1  0  0  0
  5  6  1  0  0  0
  5  9  1  0  0  0
  6  7  1  0  0  0
  6 12  1  0  0  0
  7  8  1  0  0  0
  7 30  1  0  0  0
  7 31  1  0  0  0
  8  9  1  0  0  0
  8 32  1  0  0  0
  8 33  1  0  0  0
  9 10  2  0  0  0
 10 11  1  0  0  0
 12 13  2  0  0  0
 12 14  1  0  0  0
 14 15  1  0  0  0
 14 34  1  0  0  0
 14 35  1  0  0  0
 15 16  2  0  0  0
 15 21  1  0  0  0
 16 17  1  0  0  0
 17 18  2  0  0  0
 17 22  1  0  0  0
 18 19  1  0  0  0
 18 36  1  0  0  0
 19 20  2  0  0  0
 19 21  1  0  0  0
 21 37  1  0  0  0
 22 23  1  0  0  0
 22 27  1  0  0  0
 23 24  1  0  0  0
 23 38  1  0  0  0
 23 39  1  0  0  0
 24 25  1  0  0  0
 24 40  1  0  0  0
 24 41  1  0  0  0
 25 26  1  0  0  0
 26 27  1  0  0  0
 26 42  1  0  0  0
 26 43  1  0  0  0
 27 44  1  0  0  0
 27 45  1  0  0  0
M  END
> <s_m_entry_id>
2353

> <s_m_entry_name>
dock_pv.92

> <s_m_Source_Path>
/home/csk/Desktop/cluster/DUD-E-result/akt1

> <s_m_Source_File>
dock_pv.maegz

> <i_m_Source_File_Index>
92

> <chembl_id>
CHEMBL3696300

> <chembl_pref_name>
None

> <i_lp_mmshare_version>
53161

> <i_f3d_flags>
0

> <r_lp_tautomer_probability>
0.994036381586735

> <s_lp_Force_Field>
OPLS_2005

> <r_lp_Energy>
57.323204

> <b_lp_Chiralities_Consistent>
1

> <s_lp_Variant>
CHEMBL4282_lig2227-1

> <s_i_glide_gridfile>
glide-grid_3cqw

> <i_i_glide_lignum>
2959

> <i_i_glide_rotatable_bonds>
4

> <r_i_docking_score>
-7.12813859350026

> <r_i_glide_ligand_efficiency>
-0.264005133092602

> <r_i_glide_ligand_efficiency_sa>
-0.792015398407689

> <r_i_glide_ligand_efficiency_ln>
-1.65931314801773

> <r_i_glide_gscore>
-7.12813859350026

> <r_i_glide_lipo>
-2.1741090320985

> <r_i_glide_hbond>
-0.162624000382613

> <r_i_glide_metal>
0

> <r_i_glide_rewards>
-2.14934930411172

> <r_i_glide_evdw>
-43.041202545166

> <r_i_glide_ecoul>
-6.0522346496582

> <r_i_glide_erotb>
0.546629232099513

> <r_i_glide_esite>
-0.128790164299913

> <r_i_glide_emodel>
-71.4138323775572

> <r_i_glide_energy>
-49.0934371948242

> <r_i_glide_einternal>
0.764218151569366

> <i_i_glide_confnum>
18

> <i_i_glide_posenum>
192

> <r_i_glide_eff_state_penalty>
0

> <s_user_duplicate_titles>
CHEMBL4282_lig2227

> <s_m_subgroup_title>
dock_pv

> <s_m_subgroupid>
dock_pv

> <b_m_subgroup_collapsed>
1

$$$$
CHEMBL4282_lig3479
                    3D
 Schrodinger Suite 2021-1.
 44 46  0  0  1  0            999 V2000
   13.8309    3.5228   18.9080 O   0  0  0  0  0  0
   10.4680    1.6553   17.3846 O   0  0  0  0  0  0
   11.2535   -3.2520   16.9312 O   0  0  0  0  0  0
    7.5791    4.6134   16.6726 O   0  0  0  0  0  0
    3.0311    4.3012   15.3852 O   0  0  0  0  0  0
   12.4206    0.3837   19.1587 N   0  0  0  0  0  0
   13.2560   -0.5915   19.5285 N   0  0  0  0  0  0
   12.6289   -1.7811   19.2210 N   0  0  0  0  0  0
   13.8458    2.1699   18.5891 N   0  0  0  0  0  0
   12.7940    3.8363   19.7850 N   0  0  0  0  0  0
    8.9456    0.2022   18.3178 N   0  0  0  0  0  0
    7.7769    0.6893   17.7854 N   0  0  0  0  0  0
   11.0925    2.6369   20.8037 N   0  0  0  0  0  0
   11.2443   -0.1309   18.6479 C   0  0  0  0  0  0
   12.8274    1.6953   19.2552 C   0  0  0  0  0  0
   11.4651   -1.5158   18.6506 C   0  0  0  0  0  0
   10.1973    0.6493   18.0446 C   0  0  0  0  0  0
   12.1854    2.6973   19.9889 C   0  0  0  0  0  0
   10.6323   -2.6504   18.0698 C   0  0  0  0  0  0
    6.3891    2.5215   17.0883 C   0  0  0  0  0  0
    7.4461    1.9243   17.9330 C   0  0  0  0  0  0
    6.4489    3.8401   16.5851 C   0  0  0  0  0  0
    5.2376    1.7663   16.8076 C   0  0  0  0  0  0
    5.3339    4.4142   15.9768 C   0  0  0  0  0  0
    4.1604    3.6841   15.8361 C   0  0  0  0  0  0
    4.1299    2.3398   16.1851 C   0  0  0  0  0  0
    8.0448    2.8461   19.0087 C   0  0  0  0  0  0
   11.5209   -2.3862   15.8314 C   0  0  0  0  0  0
    8.3002    4.1600   17.1166 H   0  0  0  0  0  0
    2.2781    3.7067   15.3035 H   0  0  0  0  0  0
    8.8651   -0.7505   18.6520 H   0  0  0  0  0  0
   10.5922    1.7844   20.9982 H   0  0  0  0  0  0
   10.7134    3.4984   21.2170 H   0  0  0  0  0  0
   10.4810   -3.4305   18.8165 H   0  0  0  0  0  0
    9.6340   -2.3252   17.7853 H   0  0  0  0  0  0
    5.1598    0.7425   17.1470 H   0  0  0  0  0  0
    5.3676    5.4447   15.6558 H   0  0  0  0  0  0
    3.2303    1.7569   16.0522 H   0  0  0  0  0  0
    8.9529    3.3355   18.6585 H   0  0  0  0  0  0
    7.3568    3.6384   19.3016 H   0  0  0  0  0  0
    8.3062    2.2941   19.9118 H   0  0  0  0  0  0
   11.8758   -2.9746   14.9852 H   0  0  0  0  0  0
   10.6288   -1.8477   15.5119 H   0  0  0  0  0  0
   12.2975   -1.6585   16.0711 H   0  0  0  0  0  0
  1  9  1  0  0  0
  1 10  1  0  0  0
  2 17  2  0  0  0
  3 19  1  0  0  0
  3 28  1  0  0  0
  4 22  1  0  0  0
  4 29  1  0  0  0
  5 25  1  0  0  0
  5 30  1  0  0  0
  6  7  1  0  0  0
  6 14  1  0  0  0
  6 15  1  0  0  0
  7  8  2  0  0  0
  8 16  1  0  0  0
  9 15  2  0  0  0
 10 18  2  0  0  0
 11 12  1  0  0  0
 11 17  1  0  0  0
 11 31  1  0  0  0
 12 21  2  3  0  0
 13 18  1  0  0  0
 13 32  1  0  0  0
 13 33  1  0  0  0
 14 16  2  0  0  0
 14 17  1  0  0  0
 15 18  1  0  0  0
 16 19  1  0  0  0
 19 34  1  0  0  0
 19 35  1  0  0  0
 20 21  1  0  0  0
 20 22  1  0  0  0
 20 23  2  0  0  0
 21 27  1  0  0  0
 22 24  2  0  0  0
 23 26  1  0  0  0
 23 36  1  0  0  0
 24 25  1  0  0  0
 24 37  1  0  0  0
 25 26  2  0  0  0
 26 38  1  0  0  0
 27 39  1  0  0  0
 27 40  1  0  0  0
 27 41  1  0  0  0
 28 42  1  0  0  0
 28 43  1  0  0  0
 28 44  1  0  0  0
M  END
> <s_m_entry_id>
2354

> <s_m_entry_name>
dock_pv.93

> <s_m_Source_Path>
/home/csk/Desktop/cluster/DUD-E-result/akt1

> <s_m_Source_File>
dock_pv.maegz

> <i_m_Source_File_Index>
93

> <chembl_id>
CHEMBL1991180

> <chembl_pref_name>
None

> <i_lp_mmshare_version>
53161

> <i_f3d_flags>
0

> <r_lp_tautomer_probability>
1

> <s_lp_Force_Field>
OPLS_2005

> <r_lp_Energy>
26.389985

> <b_lp_Chiralities_Consistent>
1

> <s_lp_Variant>
CHEMBL4282_lig3479-1

> <s_i_glide_gridfile>
glide-grid_3cqw

> <i_i_glide_lignum>
4610

> <i_i_glide_rotatable_bonds>
9

> <r_i_docking_score>
-7.12505456845826

> <r_i_glide_ligand_efficiency>
-0.254466234587795

> <r_i_glide_ligand_efficiency_sa>
-0.772709360805748

> <r_i_glide_ligand_efficiency_ln>
-1.64467179509263

> <r_i_glide_gscore>
-7.12505456845826

> <r_i_glide_lipo>
-1.84324968467027

> <r_i_glide_hbond>
-0.668007851350363

> <r_i_glide_metal>
0

> <r_i_glide_rewards>
-1.37693420916218

> <r_i_glide_evdw>
-41.2677192687988

> <r_i_glide_ecoul>
-11.3113880157471

> <r_i_glide_erotb>
0.775151592977611

> <r_i_glide_esite>
-0.251920250451059

> <r_i_glide_emodel>
-70.5200272377565

> <r_i_glide_energy>
-52.5791072845459

> <r_i_glide_einternal>
8.29135990142822

> <i_i_glide_confnum>
13

> <i_i_glide_posenum>
289

> <r_i_glide_eff_state_penalty>
0

> <s_user_duplicate_titles>
CHEMBL4282_lig3479

> <s_m_subgroup_title>
dock_pv

> <s_m_subgroupid>
dock_pv

> <b_m_subgroup_collapsed>
1

$$$$
CHEMBL4282_lig3612
                    3D
 Schrodinger Suite 2021-1.
 32 34  0  0  1  0            999 V2000
    4.1532   -0.6158   16.9850 I   0  0  0  0  0  0
    9.1490    1.7484   17.9623 O   0  0  0  0  0  0
    9.4061    4.7323   18.8242 O   0  0  0  0  0  0
    7.6413    2.6127   20.9849 O   0  0  0  0  0  0
   10.4119   -0.5859   19.1819 O   0  0  0  0  0  0
    7.0458    2.4773   17.2119 N   0  0  0  0  0  0
    6.5870    1.2110   17.3850 N   0  0  0  0  0  0
    6.1393    4.5502   16.2426 N   0  0  0  0  0  0
    3.7784    4.3747   15.6462 N   0  0  0  0  0  0
    2.6012    2.3547   15.7846 N   0  0  0  0  0  0
    8.3769    2.8768   17.6710 C   0  0  1  0  0  0
    6.0701    3.2621   16.6115 C   0  0  0  0  0  0
    4.9312    2.4346   16.4740 C   0  0  0  0  0  0
    8.3996    3.7394   18.9423 C   0  0  1  0  0  0
    5.3633    1.1557   16.9379 C   0  0  0  0  0  0
    8.6995    2.7103   20.0453 C   0  0  2  0  0  0
    9.0002    1.3787   19.3314 C   0  0  2  0  0  0
    3.7813    3.0578   15.9664 C   0  0  0  0  0  0
    4.9542    5.0371   15.7850 C   0  0  0  0  0  0
   10.2753    0.6722   19.8200 C   0  0  0  0  0  0
    9.6384    5.0367   19.7129 H   0  0  0  0  0  0
    7.9056    3.0372   21.8149 H   0  0  0  0  0  0
    9.6410   -1.1328   19.3931 H   0  0  0  0  0  0
    2.5621    1.3827   16.0483 H   0  0  0  0  0  0
    1.7839    2.8396   15.4255 H   0  0  0  0  0  0
    8.8068    3.4034   16.8170 H   0  0  0  0  0  0
    7.4308    4.2191   19.0816 H   0  0  0  0  0  0
    9.5905    3.0334   20.5889 H   0  0  0  0  0  0
    8.1608    0.6888   19.4360 H   0  0  0  0  0  0
    4.9338    6.0851   15.5292 H   0  0  0  0  0  0
   10.2155    0.5021   20.8955 H   0  0  0  0  0  0
   11.1594    1.2855   19.6409 H   0  0  0  0  0  0
  1 15  1  0  0  0
  2 11  1  0  0  0
  2 17  1  0  0  0
  3 14  1  0  0  0
  3 21  1  0  0  0
  4 16  1  0  0  0
  4 22  1  0  0  0
  5 20  1  0  0  0
  5 23  1  0  0  0
  6  7  1  0  0  0
  6 11  1  0  0  0
  6 12  1  0  0  0
  7 15  2  0  0  0
  8 12  1  0  0  0
  8 19  2  0  0  0
  9 18  2  0  0  0
  9 19  1  0  0  0
 10 18  1  0  0  0
 10 24  1  0  0  0
 10 25  1  0  0  0
 11 14  1  0  0  0
 11 26  1  0  0  0
 12 13  2  0  0  0
 13 15  1  0  0  0
 13 18  1  0  0  0
 14 16  1  0  0  0
 14 27  1  0  0  0
 16 17  1  0  0  0
 16 28  1  0  0  0
 17 20  1  0  0  0
 17 29  1  0  0  0
 19 30  1  0  0  0
 20 31  1  0  0  0
 20 32  1  0  0  0
M  END
> <s_m_entry_id>
2355

> <s_m_entry_name>
dock_pv.94

> <s_m_Source_Path>
/home/csk/Desktop/cluster/DUD-E-result/akt1

> <s_m_Source_File>
dock_pv.maegz

> <i_m_Source_File_Index>
94

> <chembl_id>
CHEMBL2001288

> <chembl_pref_name>
None

> <i_lp_mmshare_version>
53161

> <i_f3d_flags>
0

> <r_lp_tautomer_probability>
1

> <s_lp_Force_Field>
OPLS_2005

> <r_lp_Energy>
28.66804

> <b_lp_Chiralities_Consistent>
1

> <s_lp_Variant>
CHEMBL4282_lig3612-4

> <s_i_glide_gridfile>
glide-grid_3cqw

> <i_i_glide_lignum>
4809

> <i_i_glide_rotatable_bonds>
5

> <r_i_docking_score>
-7.11038324693086

> <r_i_glide_ligand_efficiency>
-0.355519162346543

> <r_i_glide_ligand_efficiency_sa>
-0.965027476346866

> <r_i_glide_ligand_efficiency_ln>
-1.77949441057185

> <r_i_glide_gscore>
-7.11038324693086

> <r_i_glide_lipo>
-0.99954360529213

> <r_i_glide_hbond>
-0.32

> <r_i_glide_metal>
0

> <r_i_glide_rewards>
-2.48001346525032

> <r_i_glide_evdw>
-35.4208068847656

> <r_i_glide_ecoul>
-11.9502067565918

> <r_i_glide_erotb>
0.252745181338646

> <r_i_glide_esite>
0

> <r_i_glide_emodel>
-65.8309256315524

> <r_i_glide_energy>
-47.3710136413574

> <r_i_glide_einternal>
9.05166149139404

> <i_i_glide_confnum>
24

> <i_i_glide_posenum>
261

> <r_i_glide_eff_state_penalty>
0

> <s_user_duplicate_titles>
CHEMBL4282_lig3612

> <s_m_subgroup_title>
dock_pv

> <s_m_subgroupid>
dock_pv

> <b_m_subgroup_collapsed>
1

$$$$
CHEMBL4282_lig3335
                    3D
 Schrodinger Suite 2021-1.
 40 43  0  0  1  0            999 V2000
   14.0844   -3.3621   16.5849 F   0  0  0  0  0  0
   12.7687   -3.1522   16.6291 C   0  0  0  0  0  0
   12.2883   -3.1466   15.3855 F   0  0  0  0  0  0
   12.1986   -4.1644   17.2781 F   0  0  0  0  0  0
   12.4861   -1.8262   17.3299 C   0  0  0  0  0  0
   12.5296   -0.6294   16.6135 C   0  0  0  0  0  0
   12.2183    0.5727   17.2417 C   0  0  0  0  0  0
   11.8495    0.6091   18.5923 C   0  0  0  0  0  0
   11.4188    1.9601   19.1778 C   0  0  0  0  0  0
   10.1672    2.4389   18.6029 N   0  0  0  0  0  0
    9.0031    1.7470   18.3850 C   0  0  0  0  0  0
    8.1658    2.6415   17.7263 C   0  0  0  0  0  0
    8.7883    3.8099   17.6275 N   0  0  0  0  0  0
   10.0488    3.7016   18.1848 N   0  0  0  0  0  0
    6.7964    2.4003   17.1692 C   0  0  0  0  0  0
    6.2869    1.0966   17.1121 C   0  0  0  0  0  0
    5.0270    0.8181   16.5865 C   0  0  0  0  0  0
    4.2279    1.8917   16.1781 C   0  0  0  0  0  0
    2.9439    1.8366   15.7220 N   0  0  0  0  0  0
    2.6311    3.1276   15.5431 N   0  0  0  0  0  0
    3.6449    4.0205   15.7851 C   0  0  0  0  0  0
    4.7280    3.2281   16.2353 C   0  0  0  0  0  0
    6.0292    3.4707   16.6921 C   0  0  0  0  0  0
   11.8315   -0.5913   19.3365 C   0  0  0  0  0  0
   12.1509   -1.7938   18.6886 C   0  0  0  0  0  0
   11.4503   -0.6223   20.8233 C   0  0  0  0  0  0
   12.3207    0.1033   21.5257 F   0  0  0  0  0  0
   10.2307   -0.1164   20.9883 F   0  0  0  0  0  0
   11.4497   -1.8562   21.3336 F   0  0  0  0  0  0
   12.7838   -0.6274   15.5627 H   0  0  0  0  0  0
   12.2277    1.4802   16.6583 H   0  0  0  0  0  0
   11.2936    1.9550   20.2584 H   0  0  0  0  0  0
   12.2039    2.6929   18.9824 H   0  0  0  0  0  0
    8.8968    0.7109   18.6762 H   0  0  0  0  0  0
    6.8807    0.2714   17.4779 H   0  0  0  0  0  0
    4.6532   -0.1948   16.5529 H   0  0  0  0  0  0
    1.7054    3.3928   15.2051 H   0  0  0  0  0  0
    3.5008    5.0813   15.6478 H   0  0  0  0  0  0
    6.4070    4.4813   16.7390 H   0  0  0  0  0  0
   12.1213   -2.7225   19.2426 H   0  0  0  0  0  0
  1  2  1  0  0  0
  2  3  1  0  0  0
  2  4  1  0  0  0
  2  5  1  0  0  0
  5  6  2  0  0  0
  5 25  1  0  0  0
  6  7  1  0  0  0
  6 30  1  0  0  0
  7  8  2  0  0  0
  7 31  1  0  0  0
  8  9  1  0  0  0
  8 24  1  0  0  0
  9 10  1  0  0  0
  9 32  1  0  0  0
  9 33  1  0  0  0
 10 11  1  0  0  0
 10 14  1  0  0  0
 11 12  2  0  0  0
 11 34  1  0  0  0
 12 13  1  0  0  0
 12 15  1  0  0  0
 13 14  2  0  0  0
 15 16  1  0  0  0
 15 23  2  0  0  0
 16 17  2  0  0  0
 16 35  1  0  0  0
 17 18  1  0  0  0
 17 36  1  0  0  0
 18 19  2  0  0  0
 18 22  1  0  0  0
 19 20  1  0  0  0
 20 37  1  0  0  0
 20 21  1  0  0  0
 21 22  2  0  0  0
 21 38  1  0  0  0
 22 23  1  0  0  0
 23 39  1  0  0  0
 24 25  2  0  0  0
 24 26  1  0  0  0
 25 40  1  0  0  0
 26 27  1  0  0  0
 26 28  1  0  0  0
 26 29  1  0  0  0
M  END
> <s_m_entry_id>
2356

> <s_m_entry_name>
dock_pv.95

> <s_m_Source_Path>
/home/csk/Desktop/cluster/DUD-E-result/akt1

> <s_m_Source_File>
dock_pv.maegz

> <i_m_Source_File_Index>
95

> <chembl_id>
CHEMBL1964413

> <chembl_pref_name>
None

> <i_lp_mmshare_version>
53161

> <i_f3d_flags>
0

> <r_lp_tautomer_probability>
0.0196078431372549

> <s_lp_Force_Field>
OPLS_2005

> <r_lp_Energy>
30.026056

> <b_lp_Chiralities_Consistent>
1

> <s_lp_Variant>
CHEMBL4282_lig3335-2

> <s_i_glide_gridfile>
glide-grid_3cqw

> <i_i_glide_lignum>
4385

> <i_i_glide_rotatable_bonds>
5

> <r_i_docking_score>
-7.10939915534613

> <r_i_glide_ligand_efficiency>
-0.245151695011936

> <r_i_glide_ligand_efficiency_sa>
-0.753183676585177

> <r_i_glide_ligand_efficiency_ln>
-1.62787212776657

> <r_i_glide_gscore>
-7.10939915534613

> <r_i_glide_lipo>
-2.48323682412475

> <r_i_glide_hbond>
-0.32

> <r_i_glide_metal>
0

> <r_i_glide_rewards>
-2.04161848367011

> <r_i_glide_evdw>
-41.8000907897949

> <r_i_glide_ecoul>
-2.52960515022278

> <r_i_glide_erotb>
0.349498636873117

> <r_i_glide_esite>
-0.144597172401222

> <r_i_glide_emodel>
-62.1783779523081

> <r_i_glide_energy>
-44.3296959400177

> <r_i_glide_einternal>
3.73315405845642

> <i_i_glide_confnum>
2

> <i_i_glide_posenum>
3

> <r_i_glide_eff_state_penalty>
0

> <s_user_duplicate_titles>
CHEMBL4282_lig3335

> <s_m_subgroup_title>
dock_pv

> <s_m_subgroupid>
dock_pv

> <b_m_subgroup_collapsed>
1

$$$$
CHEMBL4282_lig921
                    3D
 Schrodinger Suite 2021-1.
 36 38  0  0  1  0            999 V2000
    9.0569    2.3843   19.0460 C   0  0  1  0  0  0
    6.4338    4.4530   16.3707 N   0  0  0  0  0  0
    5.4147    5.1592   15.8300 C   0  0  0  0  0  0
    4.1582    4.7509   15.5854 N   0  0  0  0  0  0
    6.2205    3.1429   16.6781 C   0  0  0  0  0  0
    4.3680    1.2107   16.2295 C   0  0  0  0  0  0
    4.9919    2.5249   16.2913 C   0  0  0  0  0  0
    4.0113    3.4454   15.7850 C   0  0  0  0  0  0
    2.8746    2.7584   15.4834 N   0  0  0  0  0  0
    3.1298    1.4380   15.6753 C   0  0  0  0  0  0
    7.2859    2.5113   17.3572 N   0  0  0  0  0  0
    8.4654    3.2121   17.8966 C   0  0  0  0  0  0
    7.3136    1.1847   17.9684 C   0  0  0  0  0  0
    8.6707    0.9768   18.6240 C   0  0  0  0  0  0
   10.4951    2.6195   19.2676 N   0  0  0  0  0  0
   11.5690    2.1634   18.5972 C   0  0  0  0  0  0
   11.5316    1.4370   17.6022 O   0  0  0  0  0  0
   12.9248    2.6094   19.1343 C   0  0  0  0  0  0
    4.8697   -0.1679   16.5796 C   0  0  0  0  0  0
    8.4962    2.6202   19.9544 H   0  0  0  0  0  0
    5.5533    6.2261   15.7927 H   0  0  0  0  0  0
    2.0074    3.1093   15.0955 H   0  0  0  0  0  0
    2.3912    0.7230   15.3779 H   0  0  0  0  0  0
    8.2398    4.2035   18.2912 H   0  0  0  0  0  0
    9.2148    3.2953   17.1069 H   0  0  0  0  0  0
    7.2110    0.4310   17.1921 H   0  0  0  0  0  0
    6.5145    1.0761   18.7039 H   0  0  0  0  0  0
    9.3464    0.5162   17.9067 H   0  0  0  0  0  0
    8.6442    0.2931   19.4732 H   0  0  0  0  0  0
   10.6763    3.2744   20.0191 H   0  0  0  0  0  0
   13.6505    1.7986   19.0544 H   0  0  0  0  0  0
   12.8613    2.9064   20.1837 H   0  0  0  0  0  0
   13.2918    3.4568   18.5553 H   0  0  0  0  0  0
    4.0789   -0.9147   16.4919 H   0  0  0  0  0  0
    5.6547   -0.4643   15.8916 H   0  0  0  0  0  0
    5.2415   -0.2856   17.5908 H   0  0  0  0  0  0
  1 12  1  0  0  0
  1 14  1  0  0  0
  1 15  1  0  0  0
  1 20  1  0  0  0
  2  5  1  0  0  0
  2  3  2  0  0  0
  3  4  1  0  0  0
  3 21  1  0  0  0
  4  8  2  0  0  0
  5 11  1  0  0  0
  5  7  2  0  0  0
  6 10  2  0  0  0
  6  7  1  0  0  0
  6 19  1  0  0  0
  7  8  1  0  0  0
  8  9  1  0  0  0
  9 10  1  0  0  0
  9 22  1  0  0  0
 10 23  1  0  0  0
 11 12  1  0  0  0
 11 13  1  0  0  0
 12 24  1  0  0  0
 12 25  1  0  0  0
 13 14  1  0  0  0
 13 26  1  0  0  0
 13 27  1  0  0  0
 14 28  1  0  0  0
 14 29  1  0  0  0
 15 16  1  0  0  0
 15 30  1  0  0  0
 16 17  2  0  0  0
 16 18  1  0  0  0
 18 31  1  0  0  0
 18 32  1  0  0  0
 18 33  1  0  0  0
 19 34  1  0  0  0
 19 35  1  0  0  0
 19 36  1  0  0  0
M  END
> <s_m_entry_id>
2357

> <s_m_entry_name>
dock_pv.96

> <s_m_Source_Path>
/home/csk/Desktop/cluster/DUD-E-result/akt1

> <s_m_Source_File>
dock_pv.maegz

> <i_m_Source_File_Index>
96

> <chembl_id>
CHEMBL1173351

> <chembl_pref_name>
None

> <i_lp_mmshare_version>
53161

> <i_f3d_flags>
0

> <r_lp_tautomer_probability>
0.999998369746258

> <s_lp_Force_Field>
OPLS_2005

> <r_lp_Energy>
24.848282

> <b_lp_Chiralities_Consistent>
1

> <s_lp_Variant>
CHEMBL4282_lig921-1

> <s_i_glide_gridfile>
glide-grid_3cqw

> <i_i_glide_lignum>
1316

> <i_i_glide_rotatable_bonds>
3

> <r_i_docking_score>
-7.10915456062113

> <r_i_glide_ligand_efficiency>
-0.374166029506375

> <r_i_glide_ligand_efficiency_sa>
-0.998425249050621

> <r_i_glide_ligand_efficiency_ln>
-1.80232337175703

> <r_i_glide_gscore>
-7.10915456062113

> <r_i_glide_lipo>
-1.44653103295575

> <r_i_glide_hbond>
-0.32

> <r_i_glide_metal>
0

> <r_i_glide_rewards>
-3.35729131601949

> <r_i_glide_evdw>
-28.9181003570557

> <r_i_glide_ecoul>
-6.55632829666138

> <r_i_glide_erotb>
0.525915800417172

> <r_i_glide_esite>
-0.0818937497110721

> <r_i_glide_emodel>
-50.9487327957693

> <r_i_glide_energy>
-35.474428653717

> <r_i_glide_einternal>
0.802855551242828

> <i_i_glide_confnum>
6

> <i_i_glide_posenum>
273

> <r_i_glide_eff_state_penalty>
0

> <s_user_duplicate_titles>
CHEMBL4282_lig921

> <s_m_subgroup_title>
dock_pv

> <s_m_subgroupid>
dock_pv

> <b_m_subgroup_collapsed>
1

$$$$
CHEMBL4282_lig3612
                    3D
 Schrodinger Suite 2021-1.
 32 34  0  0  1  0            999 V2000
    3.7591   -0.8311   16.9850 I   0  0  0  0  0  0
    8.4661    3.7381   17.4500 O   0  0  0  0  0  0
    9.0281    0.7445   19.1600 O   0  0  0  0  0  0
   10.5135    2.9286   20.1850 O   0  0  0  0  0  0
    8.6310    6.1190   19.3850 O   0  0  0  0  0  0
    6.7712    2.1266   17.1959 N   0  0  0  0  0  0
    6.2762    0.8742   17.3297 N   0  0  0  0  0  0
    5.9458    4.2500   16.2413 N   0  0  0  0  0  0
    3.5852    4.1851   15.6480 N   0  0  0  0  0  0
    2.3100    2.2370   15.7850 N   0  0  0  0  0  0
    8.1293    2.4003   17.6395 C   0  0  2  0  0  0
    5.8310    2.9606   16.5955 C   0  0  0  0  0  0
    4.6577    2.1839   16.4495 C   0  0  0  0  0  0
    8.4304    2.0380   19.1003 C   0  0  2  0  0  0
    5.0430    0.8824   16.9000 C   0  0  0  0  0  0
    9.2914    3.2332   19.5394 C   0  0  2  0  0  0
    9.5479    4.0871   18.2915 C   0  0  2  0  0  0
    3.5306    2.8676   15.9598 C   0  0  0  0  0  0
    4.7880    4.7938   15.7850 C   0  0  0  0  0  0
    9.5754    5.6216   18.4647 C   0  0  0  0  0  0
    8.4149    0.1318   19.5925 H   0  0  0  0  0  0
   10.6310    3.6035   20.8747 H   0  0  0  0  0  0
    8.9292    5.8633   20.2714 H   0  0  0  0  0  0
    2.2152    1.2641   16.0279 H   0  0  0  0  0  0
    1.5315    2.7744   15.4117 H   0  0  0  0  0  0
    8.7879    1.8370   16.9850 H   0  0  0  0  0  0
    7.4956    2.0426   19.6673 H   0  0  0  0  0  0
    8.6643    3.7884   20.2370 H   0  0  0  0  0  0
   10.4511    3.7799   17.7656 H   0  0  0  0  0  0
    4.8235    5.8404   15.5239 H   0  0  0  0  0  0
    9.4310    6.1087   17.5012 H   0  0  0  0  0  0
   10.5598    5.9231   18.8251 H   0  0  0  0  0  0
  1 15  1  0  0  0
  2 11  1  0  0  0
  2 17  1  0  0  0
  3 14  1  0  0  0
  3 21  1  0  0  0
  4 16  1  0  0  0
  4 22  1  0  0  0
  5 20  1  0  0  0
  5 23  1  0  0  0
  6  7  1  0  0  0
  6 11  1  0  0  0
  6 12  1  0  0  0
  7 15  2  0  0  0
  8 12  1  0  0  0
  8 19  2  0  0  0
  9 18  2  0  0  0
  9 19  1  0  0  0
 10 18  1  0  0  0
 10 24  1  0  0  0
 10 25  1  0  0  0
 11 14  1  0  0  0
 11 26  1  0  0  0
 12 13  2  0  0  0
 13 15  1  0  0  0
 13 18  1  0  0  0
 14 16  1  0  0  0
 14 27  1  0  0  0
 16 17  1  0  0  0
 16 28  1  0  0  0
 17 20  1  0  0  0
 17 29  1  0  0  0
 19 30  1  0  0  0
 20 31  1  0  0  0
 20 32  1  0  0  0
M  END
> <s_m_entry_id>
2358

> <s_m_entry_name>
dock_pv.97

> <s_m_Source_Path>
/home/csk/Desktop/cluster/DUD-E-result/akt1

> <s_m_Source_File>
dock_pv.maegz

> <i_m_Source_File_Index>
97

> <chembl_id>
CHEMBL2001288

> <chembl_pref_name>
None

> <i_lp_mmshare_version>
53161

> <i_f3d_flags>
0

> <r_lp_tautomer_probability>
1

> <s_lp_Force_Field>
OPLS_2005

> <r_lp_Energy>
30.536128

> <b_lp_Chiralities_Consistent>
1

> <s_lp_Variant>
CHEMBL4282_lig3612-1

> <s_i_glide_gridfile>
glide-grid_3cqw

> <i_i_glide_lignum>
4806

> <i_i_glide_rotatable_bonds>
5

> <r_i_docking_score>
-7.10876767198671

> <r_i_glide_ligand_efficiency>
-0.355438383599335

> <r_i_glide_ligand_efficiency_sa>
-0.964808209092619

> <r_i_glide_ligand_efficiency_ln>
-1.77909008544855

> <r_i_glide_gscore>
-7.10876767198671

> <r_i_glide_lipo>
-0.998271203605278

> <r_i_glide_hbond>
-0.32

> <r_i_glide_metal>
0

> <r_i_glide_rewards>
-2.37467766389549

> <r_i_glide_evdw>
-31.7415390014648

> <r_i_glide_ecoul>
-13.8765802383423

> <r_i_glide_erotb>
0.252745181338646

> <r_i_glide_esite>
0

> <r_i_glide_emodel>
-64.0576995620947

> <r_i_glide_energy>
-45.6181192398071

> <r_i_glide_einternal>
5.70934867858887

> <i_i_glide_confnum>
9

> <i_i_glide_posenum>
200

> <r_i_glide_eff_state_penalty>
0

> <s_user_duplicate_titles>
CHEMBL4282_lig3612

> <s_m_subgroup_title>
dock_pv

> <s_m_subgroupid>
dock_pv

> <b_m_subgroup_collapsed>
1

$$$$
CHEMBL4282_lig3743
                    3D
 Schrodinger Suite 2021-1.
 45 47  0  0  1  0            999 V2000
   10.2304    3.9567   17.8121 F   0  0  0  0  0  0
   11.7188    1.7899   18.4263 O   0  0  0  0  0  0
   10.2314   -1.5934   21.6591 O   0  0  0  0  0  0
   10.6179    0.0624   19.3842 N   0  0  0  0  0  0
    3.0325    4.2371   15.7632 N   0  0  0  0  0  0
    9.3261    1.7598   18.2174 C   0  0  0  0  0  0
    6.8528    2.7185   17.1570 C   0  0  0  0  0  0
    9.1993    3.0820   17.7537 C   0  0  0  0  0  0
   10.6603    1.2237   18.7024 C   0  0  0  0  0  0
    7.9936    3.5350   17.2196 C   0  0  0  0  0  0
    5.5512    3.2228   16.5850 C   0  0  0  0  0  0
    8.1820    0.9454   18.1857 C   0  0  0  0  0  0
    6.9720    1.4232   17.6885 C   0  0  0  0  0  0
   11.7554   -0.6893   19.9353 C   0  0  2  0  0  0
    5.3883    4.5594   16.1759 C   0  0  0  0  0  0
    4.4218    2.3924   16.4638 C   0  0  0  0  0  0
   12.8513   -1.0775   18.8971 C   0  0  0  0  0  0
   12.3568   -1.8455   17.6725 C   0  0  0  0  0  0
    4.1336    5.0264   15.7854 C   0  0  0  0  0  0
    3.1946    2.9305   16.0683 C   0  0  0  0  0  0
   11.2796   -1.9130   20.7599 C   0  0  0  0  0  0
   11.9921   -1.1540   16.5115 C   0  0  0  0  0  0
   12.2732   -3.2415   17.7002 C   0  0  0  0  0  0
   11.5250   -1.8495   15.3992 C   0  0  0  0  0  0
   11.8097   -3.9380   16.5862 C   0  0  0  0  0  0
   11.4335   -3.2367   15.4424 C   0  0  0  0  0  0
    9.3942   -1.7745   21.2098 H   0  0  0  0  0  0
    9.7064   -0.2780   19.6542 H   0  0  0  0  0  0
    7.9823    4.5530   16.8681 H   0  0  0  0  0  0
    8.2038   -0.0734   18.5484 H   0  0  0  0  0  0
    6.1369    0.7416   17.7205 H   0  0  0  0  0  0
   12.2329   -0.0203   20.6557 H   0  0  0  0  0  0
    6.1973    5.2738   16.1866 H   0  0  0  0  0  0
    4.4503    1.3455   16.7187 H   0  0  0  0  0  0
   13.6368   -1.6584   19.3823 H   0  0  0  0  0  0
   13.3645   -0.1819   18.5430 H   0  0  0  0  0  0
    3.9953    6.0613   15.5067 H   0  0  0  0  0  0
    2.3066    2.3149   16.0134 H   0  0  0  0  0  0
   10.9167   -2.7145   20.1160 H   0  0  0  0  0  0
   12.1016   -2.3066   21.3585 H   0  0  0  0  0  0
   12.0619   -0.0761   16.4698 H   0  0  0  0  0  0
   12.5610   -3.7842   18.5908 H   0  0  0  0  0  0
   11.2350   -1.3218   14.5035 H   0  0  0  0  0  0
   11.7398   -5.0170   16.6131 H   0  0  0  0  0  0
   11.0687   -3.7634   14.5765 H   0  0  0  0  0  0
  1  8  1  0  0  0
  2  9  2  0  0  0
  3 21  1  0  0  0
  3 27  1  0  0  0
  4  9  1  0  0  0
  4 14  1  0  0  0
  4 28  1  0  0  0
  5 19  2  0  0  0
  5 20  1  0  0  0
  6  8  1  0  0  0
  6  9  1  0  0  0
  6 12  2  0  0  0
  7 10  1  0  0  0
  7 11  1  0  0  0
  7 13  2  0  0  0
  8 10  2  0  0  0
 10 29  1  0  0  0
 11 15  2  0  0  0
 11 16  1  0  0  0
 12 13  1  0  0  0
 12 30  1  0  0  0
 13 31  1  0  0  0
 14 17  1  0  0  0
 14 21  1  0  0  0
 14 32  1  0  0  0
 15 19  1  0  0  0
 15 33  1  0  0  0
 16 20  2  0  0  0
 16 34  1  0  0  0
 17 18  1  0  0  0
 17 35  1  0  0  0
 17 36  1  0  0  0
 18 22  2  0  0  0
 18 23  1  0  0  0
 19 37  1  0  0  0
 20 38  1  0  0  0
 21 39  1  0  0  0
 21 40  1  0  0  0
 22 24  1  0  0  0
 22 41  1  0  0  0
 23 25  2  0  0  0
 23 42  1  0  0  0
 24 26  2  0  0  0
 24 43  1  0  0  0
 25 26  1  0  0  0
 25 44  1  0  0  0
 26 45  1  0  0  0
M  END
> <s_m_entry_id>
2359

> <s_m_entry_name>
dock_pv.98

> <s_m_Source_Path>
/home/csk/Desktop/cluster/DUD-E-result/akt1

> <s_m_Source_File>
dock_pv.maegz

> <i_m_Source_File_Index>
98

> <chembl_id>
CHEMBL1969755

> <chembl_pref_name>
None

> <i_lp_mmshare_version>
53161

> <i_f3d_flags>
0

> <r_lp_tautomer_probability>
1

> <s_lp_Force_Field>
OPLS_2005

> <r_lp_Energy>
18.404922

> <b_lp_Chiralities_Consistent>
1

> <s_lp_Variant>
CHEMBL4282_lig3743-1

> <s_i_glide_gridfile>
glide-grid_3cqw

> <i_i_glide_lignum>
5017

> <i_i_glide_rotatable_bonds>
8

> <r_i_docking_score>
-7.10679556112554

> <r_i_glide_ligand_efficiency>
-0.273338290812521

> <r_i_glide_ligand_efficiency_sa>
-0.809763610997854

> <r_i_glide_ligand_efficiency_ln>
-1.66900761823209

> <r_i_glide_gscore>
-7.10679556112554

> <r_i_glide_lipo>
-2.92193090581158

> <r_i_glide_hbond>
-0.67470139566851

> <r_i_glide_metal>
0

> <r_i_glide_rewards>
-1.73315159106923

> <r_i_glide_evdw>
-42.0676498413086

> <r_i_glide_ecoul>
-3.67390441894531

> <r_i_glide_erotb>
0.931505338256756

> <r_i_glide_esite>
-0.0540488519257464

> <r_i_glide_emodel>
-64.3017081967537

> <r_i_glide_energy>
-45.7415542602539

> <r_i_glide_einternal>
3.20041966438293

> <i_i_glide_confnum>
26

> <i_i_glide_posenum>
55

> <r_i_glide_eff_state_penalty>
0

> <s_user_duplicate_titles>
CHEMBL4282_lig3743

> <s_m_subgroup_title>
dock_pv

> <s_m_subgroupid>
dock_pv

> <b_m_subgroup_collapsed>
1

$$$$
CHEMBL4282_lig2151
                    3D
 Schrodinger Suite 2021-1.
 44 46  0  0  1  0            999 V2000
    2.2366    2.2370   15.3850 O   0  0  0  0  0  0
    3.3295    2.9465   15.7882 C   0  0  0  0  0  0
    3.3579    4.1764   15.7796 O   0  0  0  0  0  0
    4.4796    2.1038   16.2857 C   0  0  0  0  0  0
    4.3915    0.7043   16.3095 C   0  0  0  0  0  0
    5.4042   -0.0664   16.8767 C   0  0  0  0  0  0
    6.5235    0.5472   17.4257 C   0  0  0  0  0  0
    6.6547    1.9346   17.3828 C   0  0  0  0  0  0
    7.8092    2.4626   17.9777 N   0  0  0  0  0  0
    8.4788    3.5973   17.6671 C   0  0  0  0  0  0
    8.1484    4.3541   16.7525 O   0  0  0  0  0  0
    9.7726    3.9216   18.4474 C   0  0  0  0  0  0
   10.4924    2.7159   19.0534 C   0  0  0  0  0  0
   10.9695    1.7673   18.3160 N   0  0  0  0  0  0
   11.5722    0.6809   18.9035 C   0  0  0  0  0  0
   11.6727    0.5916   20.2540 C   0  0  0  0  0  0
   11.0944    1.5995   21.1086 C   0  0  0  0  0  0
   11.0383    1.5019   22.3266 O   0  0  0  0  0  0
   10.5806    2.6364   20.4125 N   0  0  0  0  0  0
   12.0882   -0.2871   18.0361 N   0  0  0  0  0  0
   12.7176   -1.5530   18.4660 C   0  0  0  0  0  0
   12.2431   -2.7485   17.6065 C   0  0  0  0  0  0
   12.5161   -2.5049   16.2323 O   0  0  0  0  0  0
   11.8418   -1.3342   15.7862 C   0  0  0  0  0  0
   12.3367   -0.1063   16.5906 C   0  0  0  0  0  0
    5.6355    2.7120   16.8073 C   0  0  0  0  0  0
    1.5358    2.8297   15.0732 H   0  0  0  0  0  0
    3.5143    0.1966   15.9322 H   0  0  0  0  0  0
    5.2953   -1.1395   16.9273 H   0  0  0  0  0  0
    7.2821   -0.0619   17.8974 H   0  0  0  0  0  0
    8.2366    1.8572   18.6634 H   0  0  0  0  0  0
   10.4620    4.4426   17.7844 H   0  0  0  0  0  0
    9.5129    4.6432   19.2244 H   0  0  0  0  0  0
   12.1566   -0.2256   20.7522 H   0  0  0  0  0  0
   10.2307    3.3917   20.9953 H   0  0  0  0  0  0
   13.7982   -1.4590   18.6000 H   0  0  0  0  0  0
   12.3941   -1.7994   19.4764 H   0  0  0  0  0  0
   11.1783   -2.9433   17.7635 H   0  0  0  0  0  0
   12.7585   -3.6565   17.9201 H   0  0  0  0  0  0
   10.7590   -1.4422   15.8654 H   0  0  0  0  0  0
   12.0465   -1.1897   14.7257 H   0  0  0  0  0  0
   11.7640    0.7467   16.2254 H   0  0  0  0  0  0
   13.3536    0.2278   16.3800 H   0  0  0  0  0  0
    5.7154    3.7886   16.8189 H   0  0  0  0  0  0
  1  2  1  0  0  0
  1 27  1  0  0  0
  2  3  2  0  0  0
  2  4  1  0  0  0
  4  5  2  0  0  0
  4 26  1  0  0  0
  5  6  1  0  0  0
  5 28  1  0  0  0
  6  7  2  0  0  0
  6 29  1  0  0  0
  7  8  1  0  0  0
  7 30  1  0  0  0
  8  9  1  0  0  0
  8 26  2  0  0  0
  9 10  1  0  0  0
  9 31  1  0  0  0
 10 11  2  0  0  0
 10 12  1  0  0  0
 12 13  1  0  0  0
 12 32  1  0  0  0
 12 33  1  0  0  0
 13 14  2  0  0  0
 13 19  1  0  0  0
 14 15  1  0  0  0
 15 16  2  0  0  0
 15 20  1  0  0  0
 16 17  1  0  0  0
 16 34  1  0  0  0
 17 18  2  0  0  0
 17 19  1  0  0  0
 19 35  1  0  0  0
 20 21  1  0  0  0
 20 25  1  0  0  0
 21 22  1  0  0  0
 21 36  1  0  0  0
 21 37  1  0  0  0
 22 23  1  0  0  0
 22 38  1  0  0  0
 22 39  1  0  0  0
 23 24  1  0  0  0
 24 25  1  0  0  0
 24 40  1  0  0  0
 24 41  1  0  0  0
 25 42  1  0  0  0
 25 43  1  0  0  0
 26 44  1  0  0  0
M  END
> <s_m_entry_id>
2360

> <s_m_entry_name>
dock_pv.99

> <s_m_Source_Path>
/home/csk/Desktop/cluster/DUD-E-result/akt1

> <s_m_Source_File>
dock_pv.maegz

> <i_m_Source_File_Index>
99

> <chembl_id>
CHEMBL3696243

> <chembl_pref_name>
None

> <i_lp_mmshare_version>
53161

> <i_f3d_flags>
0

> <r_lp_tautomer_probability>
0.994036381586735

> <s_lp_Force_Field>
OPLS_2005

> <r_lp_Energy>
34.690761

> <b_lp_Chiralities_Consistent>
1

> <s_lp_Variant>
CHEMBL4282_lig2151-1

> <s_i_glide_gridfile>
glide-grid_3cqw

> <i_i_glide_lignum>
2881

> <i_i_glide_rotatable_bonds>
7

> <r_i_docking_score>
-7.10656452988779

> <r_i_glide_ligand_efficiency>
-0.273329404995684

> <r_i_glide_ligand_efficiency_sa>
-0.809737286800439

> <r_i_glide_ligand_efficiency_ln>
-1.66895336130398

> <r_i_glide_gscore>
-7.10656452988779

> <r_i_glide_lipo>
-1.56932741649279

> <r_i_glide_hbond>
-0.238139137976071

> <r_i_glide_metal>
0

> <r_i_glide_rewards>
-1.72190275826254

> <r_i_glide_evdw>
-46.1247787475586

> <r_i_glide_ecoul>
-13.5167865753174

> <r_i_glide_erotb>
0.894984822195723

> <r_i_glide_esite>
-0.13842311567657

> <r_i_glide_emodel>
-82.2978613880335

> <r_i_glide_energy>
-59.641565322876

> <r_i_glide_einternal>
6.17312908172607

> <i_i_glide_confnum>
108

> <i_i_glide_posenum>
111

> <r_i_glide_eff_state_penalty>
0

> <s_user_duplicate_titles>
CHEMBL4282_lig2151

> <s_m_subgroup_title>
dock_pv

> <s_m_subgroupid>
dock_pv

> <b_m_subgroup_collapsed>
1

$$$$
CHEMBL4282_lig1389
                    3D
 Schrodinger Suite 2021-1.
 46 48  0  0  1  0            999 V2000
    9.2964    3.3630   18.9478 N   0  0  0  0  0  0
    4.9024    2.4909   16.2666 C   0  0  0  0  0  0
    3.7097    3.0455   15.7871 C   0  0  0  0  0  0
    3.5457    4.3743   15.5799 N   0  0  0  0  0  0
    4.6387    5.1440   15.7790 C   0  0  0  0  0  0
    5.8518    4.7070   16.1868 N   0  0  0  0  0  0
    5.9536    3.3925   16.5211 C   0  0  0  0  0  0
    7.1587    2.9892   17.0769 N   0  0  0  0  0  0
    8.4737    3.5035   16.6557 C   0  0  0  0  0  0
    9.2528    4.2390   17.7694 C   0  0  0  0  0  0
    7.9752    3.0000   19.4822 C   0  0  0  0  0  0
    7.1907    2.2789   18.3647 C   0  0  0  0  0  0
    2.6304    2.2338   15.4668 N   0  0  0  0  0  0
   10.4752    2.8338   19.3856 C   0  0  0  0  0  0
   11.5563    3.0905   18.8380 O   0  0  0  0  0  0
   10.4681    1.8363   20.5891 C   0  0  2  0  0  0
   11.7974    1.8179   21.2354 N   0  0  0  0  0  0
    9.9777    0.4028   20.2196 C   0  0  0  0  0  0
   10.8813   -0.4111   19.2879 C   0  0  0  0  0  0
   11.5082   -1.5580   19.7848 C   0  0  0  0  0  0
   12.3009   -2.3397   18.9497 C   0  0  0  0  0  0
   12.4626   -1.9798   17.6149 C   0  0  0  0  0  0
   11.8359   -0.8413   17.1052 C   0  0  0  0  0  0
   11.0394   -0.0617   17.9418 C   0  0  0  0  0  0
    5.0777    0.5991   16.5283 Br  0  0  0  0  0  0
   13.4332   -2.9632   16.5845 Cl  0  0  0  0  0  0
    4.5450    6.2002   15.5784 H   0  0  0  0  0  0
    9.0504    2.6383   16.3283 H   0  0  0  0  0  0
    8.3695    4.1615   15.7903 H   0  0  0  0  0  0
    8.7328    5.1590   18.0370 H   0  0  0  0  0  0
   10.2376    4.5486   17.4238 H   0  0  0  0  0  0
    7.9930    2.3867   20.3801 H   0  0  0  0  0  0
    7.4515    3.9163   19.7612 H   0  0  0  0  0  0
    7.6330    1.3030   18.1623 H   0  0  0  0  0  0
    6.1765    2.0958   18.7240 H   0  0  0  0  0  0
    2.6700    1.2596   15.7245 H   0  0  0  0  0  0
    1.7590    2.6683   15.1837 H   0  0  0  0  0  0
    9.7938    2.2482   21.3414 H   0  0  0  0  0  0
   12.4806    1.4624   20.5833 H   0  0  0  0  0  0
   12.0697    2.7711   21.4484 H   0  0  0  0  0  0
    8.9793    0.4295   19.7859 H   0  0  0  0  0  0
    9.8175   -0.1546   21.1416 H   0  0  0  0  0  0
   11.3730   -1.8516   20.8153 H   0  0  0  0  0  0
   12.7789   -3.2284   19.3377 H   0  0  0  0  0  0
   11.9568   -0.5692   16.0658 H   0  0  0  0  0  0
   10.5402    0.8053   17.5362 H   0  0  0  0  0  0
  1 10  1  0  0  0
  1 11  1  0  0  0
  1 14  1  0  0  0
  2  3  2  0  0  0
  2  7  1  0  0  0
  2 25  1  0  0  0
  3  4  1  0  0  0
  3 13  1  0  0  0
  4  5  2  0  0  0
  5  6  1  0  0  0
  5 27  1  0  0  0
  6  7  2  0  0  0
  7  8  1  0  0  0
  8  9  1  0  0  0
  8 12  1  0  0  0
  9 10  1  0  0  0
  9 28  1  0  0  0
  9 29  1  0  0  0
 10 30  1  0  0  0
 10 31  1  0  0  0
 11 12  1  0  0  0
 11 32  1  0  0  0
 11 33  1  0  0  0
 12 34  1  0  0  0
 12 35  1  0  0  0
 13 36  1  0  0  0
 13 37  1  0  0  0
 14 15  2  0  0  0
 14 16  1  0  0  0
 16 17  1  0  0  0
 16 18  1  0  0  0
 16 38  1  0  0  0
 17 39  1  0  0  0
 17 40  1  0  0  0
 18 19  1  0  0  0
 18 41  1  0  0  0
 18 42  1  0  0  0
 19 20  2  0  0  0
 19 24  1  0  0  0
 20 21  1  0  0  0
 20 43  1  0  0  0
 21 22  2  0  0  0
 21 44  1  0  0  0
 22 23  1  0  0  0
 22 26  1  0  0  0
 23 24  2  0  0  0
 23 45  1  0  0  0
 24 46  1  0  0  0
M  END
> <s_m_entry_id>
2361

> <s_m_entry_name>
dock_pv.100

> <s_m_Source_Path>
/home/csk/Desktop/cluster/DUD-E-result/akt1

> <s_m_Source_File>
dock_pv.maegz

> <i_m_Source_File_Index>
100

> <chembl_id>
CHEMBL3127379

> <chembl_pref_name>
None

> <i_lp_mmshare_version>
53161

> <i_f3d_flags>
0

> <r_lp_tautomer_probability>
0.999999968260001

> <s_lp_Force_Field>
OPLS_2005

> <r_lp_Energy>
42.492644

> <b_lp_Chiralities_Consistent>
1

> <s_lp_Variant>
CHEMBL4282_lig1389-1

> <s_i_glide_gridfile>
glide-grid_3cqw

> <i_i_glide_lignum>
1943

> <i_i_glide_rotatable_bonds>
5

> <r_i_docking_score>
-7.10444245262291

> <r_i_glide_ligand_efficiency>
-0.273247786639343

> <r_i_glide_ligand_efficiency_sa>
-0.809495492740931

> <r_i_glide_ligand_efficiency_ln>
-1.66845499842143

> <r_i_glide_gscore>
-7.10444245262291

> <r_i_glide_lipo>
-1.86769512078064

> <r_i_glide_hbond>
-0.430584547975529

> <r_i_glide_metal>
0

> <r_i_glide_rewards>
-1.76564473654958

> <r_i_glide_evdw>
-45.4887504577637

> <r_i_glide_ecoul>
-6.19818305969238

> <r_i_glide_erotb>
0.289033988333169

> <r_i_glide_esite>
-0.125387053808294

> <r_i_glide_emodel>
-71.7736823400056

> <r_i_glide_energy>
-51.6869335174561

> <r_i_glide_einternal>
3.82801914215088

> <i_i_glide_confnum>
15

> <i_i_glide_posenum>
275

> <r_i_glide_eff_state_penalty>
0

> <s_user_duplicate_titles>
CHEMBL4282_lig1389

> <s_m_subgroup_title>
dock_pv

> <s_m_subgroupid>
dock_pv

> <b_m_subgroup_collapsed>
1

$$$$
CHEMBL4282_lig1374
                    3D
 Schrodinger Suite 2021-1.
 50 53  0  0  1  0            999 V2000
    9.0395    2.3973   17.9936 C   0  0  0  0  0  0
    7.8734    1.6906   18.3239 C   0  0  0  0  0  0
    6.6471    2.0584   17.7698 C   0  0  0  0  0  0
    6.5635    3.1474   16.8961 C   0  0  0  0  0  0
    7.7252    3.8651   16.5845 C   0  0  0  0  0  0
    8.9530    3.4921   17.1277 C   0  0  0  0  0  0
    5.2447    3.5562   16.3137 C   0  0  0  0  0  0
   10.3964    2.0043   18.5870 C   0  0  2  0  0  0
   10.9124    0.6730   18.0116 C   0  0  0  0  0  0
   11.8328    0.6892   16.9581 C   0  0  0  0  0  0
   12.2888   -0.5009   16.4007 C   0  0  0  0  0  0
   11.8396   -1.7192   16.9079 C   0  0  0  0  0  0
   10.9499   -1.7493   17.9810 C   0  0  0  0  0  0
   10.4878   -0.5564   18.5317 C   0  0  0  0  0  0
   12.3934   -3.1938   16.1993 Cl  0  0  0  0  0  0
   10.3339    2.0188   20.0526 N   0  0  1  0  0  0
   11.6065    1.8446   20.7459 C   0  0  0  0  0  0
    4.0820    2.8046   16.1920 C   0  0  0  0  0  0
    3.1198    3.6657   15.7377 N   0  0  0  0  0  0
    3.5980    4.8841   15.4769 N   0  0  0  0  0  0
    4.8707    4.8081   15.7873 C   0  0  0  0  0  0
   12.6426    2.9754   20.5069 C   0  0  0  0  0  0
   13.9547    2.7410   21.2819 C   0  0  0  0  0  0
   13.6963    2.5453   22.7877 C   0  0  0  0  0  0
   12.6764    1.4193   23.0408 C   0  0  0  0  0  0
   11.3682    1.6507   22.2576 C   0  0  0  0  0  0
    7.9185    0.8530   19.0047 H   0  0  0  0  0  0
    5.7631    1.5013   18.0474 H   0  0  0  0  0  0
    7.6824    4.7120   15.9140 H   0  0  0  0  0  0
    9.8308    4.0672   16.8709 H   0  0  0  0  0  0
   11.0971    2.7910   18.3073 H   0  0  0  0  0  0
   12.1874    1.6283   16.5626 H   0  0  0  0  0  0
   12.9815   -0.4816   15.5730 H   0  0  0  0  0  0
   10.6029   -2.6893   18.3872 H   0  0  0  0  0  0
    9.7879   -0.5814   19.3601 H   0  0  0  0  0  0
    9.9169    2.8906   20.3673 H   0  0  0  0  0  0
   12.0695    0.9197   20.3964 H   0  0  0  0  0  0
    3.8385    1.7854   16.4519 H   0  0  0  0  0  0
    2.1439    3.4321   15.5841 H   0  0  0  0  0  0
    5.5121    5.6739   15.7119 H   0  0  0  0  0  0
   12.2150    3.9320   20.8175 H   0  0  0  0  0  0
   12.8820    3.0731   19.4489 H   0  0  0  0  0  0
   14.6307    3.5849   21.1253 H   0  0  0  0  0  0
   14.4658    1.8642   20.8777 H   0  0  0  0  0  0
   13.3208    3.4774   23.2128 H   0  0  0  0  0  0
   14.6332    2.3297   23.3017 H   0  0  0  0  0  0
   12.4625    1.3512   24.1090 H   0  0  0  0  0  0
   13.1139    0.4606   22.7533 H   0  0  0  0  0  0
   10.6957    0.8088   22.4242 H   0  0  0  0  0  0
   10.8660    2.5335   22.6613 H   0  0  0  0  0  0
  1  2  2  0  0  0
  1  6  1  0  0  0
  1  8  1  0  0  0
  2  3  1  0  0  0
  2 27  1  0  0  0
  3  4  2  0  0  0
  3 28  1  0  0  0
  4  5  1  0  0  0
  4  7  1  0  0  0
  5  6  2  0  0  0
  5 29  1  0  0  0
  6 30  1  0  0  0
  7 18  2  0  0  0
  7 21  1  0  0  0
  8  9  1  0  0  0
  8 16  1  0  0  0
  8 31  1  0  0  0
  9 10  2  0  0  0
  9 14  1  0  0  0
 10 11  1  0  0  0
 10 32  1  0  0  0
 11 12  2  0  0  0
 11 33  1  0  0  0
 12 13  1  0  0  0
 12 15  1  0  0  0
 13 14  2  0  0  0
 13 34  1  0  0  0
 14 35  1  0  0  0
 16 17  1  0  0  0
 16 36  1  0  0  0
 17 22  1  0  0  0
 17 26  1  0  0  0
 17 37  1  0  0  0
 18 19  1  0  0  0
 18 38  1  0  0  0
 19 20  1  0  0  0
 19 39  1  0  0  0
 20 21  2  0  0  0
 21 40  1  0  0  0
 22 23  1  0  0  0
 22 41  1  0  0  0
 22 42  1  0  0  0
 23 24  1  0  0  0
 23 43  1  0  0  0
 23 44  1  0  0  0
 24 25  1  0  0  0
 24 45  1  0  0  0
 24 46  1  0  0  0
 25 26  1  0  0  0
 25 47  1  0  0  0
 25 48  1  0  0  0
 26 49  1  0  0  0
 26 50  1  0  0  0
M  END
> <s_m_entry_id>
2362

> <s_m_entry_name>
dock_pv.101

> <s_m_Source_Path>
/home/csk/Desktop/cluster/DUD-E-result/akt1

> <s_m_Source_File>
dock_pv.maegz

> <i_m_Source_File_Index>
101

> <chembl_id>
CHEMBL3113146

> <chembl_pref_name>
None

> <i_lp_mmshare_version>
53161

> <i_f3d_flags>
0

> <r_lp_tautomer_probability>
0.5

> <s_lp_Force_Field>
OPLS_2005

> <r_lp_Energy>
24.09701

> <b_lp_Chiralities_Consistent>
1

> <s_lp_Variant>
CHEMBL4282_lig1374-1

> <s_i_glide_gridfile>
glide-grid_3cqw

> <i_i_glide_lignum>
1903

> <i_i_glide_rotatable_bonds>
5

> <r_i_docking_score>
-7.10377652393792

> <r_i_glide_ligand_efficiency>
-0.273222173997612

> <r_i_glide_ligand_efficiency_sa>
-0.809419615390585

> <r_i_glide_ligand_efficiency_ln>
-1.66829860725485

> <r_i_glide_gscore>
-7.10377652393792

> <r_i_glide_lipo>
-2.39268969474116

> <r_i_glide_hbond>
-0.51266908166024

> <r_i_glide_metal>
0

> <r_i_glide_rewards>
-1.86765996969697

> <r_i_glide_evdw>
-45.304271697998

> <r_i_glide_ecoul>
-3.79040002822876

> <r_i_glide_erotb>
0.503015811294662

> <r_i_glide_esite>
0

> <r_i_glide_emodel>
-68.9940330508009

> <r_i_glide_energy>
-49.0946717262268

> <r_i_glide_einternal>
3.62537789344788

> <i_i_glide_confnum>
31

> <i_i_glide_posenum>
97

> <r_i_glide_eff_state_penalty>
0

> <s_user_duplicate_titles>
CHEMBL4282_lig1374

> <s_m_subgroup_title>
dock_pv

> <s_m_subgroupid>
dock_pv

> <b_m_subgroup_collapsed>
1

$$$$
CHEMBL4282_lig2324
                    3D
 Schrodinger Suite 2021-1.
 45 48  0  0  1  0            999 V2000
   10.8077   -5.2577   16.7547 C   0  0  0  0  0  0
   10.7078   -4.1891   17.6940 O   0  0  0  0  0  0
   11.1936   -2.9379   17.3595 C   0  0  0  0  0  0
   11.0722   -1.9119   18.2968 C   0  0  0  0  0  0
   11.5286   -0.6186   17.9920 C   0  0  0  0  0  0
   12.1205   -0.4197   16.7327 C   0  0  0  0  0  0
   12.2071   -1.4922   15.8428 C   0  0  0  0  0  0
   11.7560   -2.7380   16.1335 N   0  0  0  0  0  0
   11.3616    0.4989   18.9669 C   0  0  0  0  0  0
   11.3247    0.3035   20.3117 C   0  0  0  0  0  0
   10.9898    1.3919   21.2052 C   0  0  0  0  0  0
   11.0315    1.2959   22.4252 O   0  0  0  0  0  0
   10.6251    2.5148   20.5439 N   0  0  0  0  0  0
   10.6421    2.6755   19.1849 C   0  0  0  0  0  0
   11.0680    1.7234   18.4197 N   0  0  0  0  0  0
   10.1074    3.9679   18.5942 C   0  0  0  0  0  0
    8.7840    3.9626   17.7685 C   0  0  0  0  0  0
    8.6308    4.9889   17.1080 O   0  0  0  0  0  0
    7.8327    2.9684   17.7406 N   0  0  0  0  0  0
    8.0253    1.6182   18.2861 C   0  0  0  0  0  0
    6.7720    0.8200   17.9825 C   0  0  0  0  0  0
    5.9986    1.7297   17.0822 C   0  0  0  0  0  0
    4.7635    1.5110   16.4747 C   0  0  0  0  0  0
    4.1639    0.3017   16.5690 F   0  0  0  0  0  0
    4.1207    2.5564   15.8156 C   0  0  0  0  0  0
    4.7069    3.8217   15.7824 C   0  0  0  0  0  0
    5.9619    4.0315   16.3523 C   0  0  0  0  0  0
    6.6292    2.9716   16.9864 C   0  0  0  0  0  0
   10.4123   -6.1714   17.1959 H   0  0  0  0  0  0
   10.2312   -5.0448   15.8547 H   0  0  0  0  0  0
   11.8429   -5.4458   16.4705 H   0  0  0  0  0  0
   10.5916   -2.1245   19.2424 H   0  0  0  0  0  0
   12.4891    0.5525   16.4399 H   0  0  0  0  0  0
   12.6318   -1.3623   14.8628 H   0  0  0  0  0  0
   11.4951   -0.6631   20.7530 H   0  0  0  0  0  0
   10.3581    3.2944   21.1402 H   0  0  0  0  0  0
   10.8838    4.3902   17.9586 H   0  0  0  0  0  0
    9.9715    4.7070   19.3825 H   0  0  0  0  0  0
    8.8104    1.1634   17.6798 H   0  0  0  0  0  0
    8.2928    1.5671   19.3429 H   0  0  0  0  0  0
    6.2301    0.6503   18.9143 H   0  0  0  0  0  0
    6.9996   -0.1648   17.5726 H   0  0  0  0  0  0
    3.1495    2.3979   15.3681 H   0  0  0  0  0  0
    4.1941    4.6411   15.3033 H   0  0  0  0  0  0
    6.3761    5.0258   16.3123 H   0  0  0  0  0  0
  1  2  1  0  0  0
  1 29  1  0  0  0
  1 30  1  0  0  0
  1 31  1  0  0  0
  2  3  1  0  0  0
  3  4  2  0  0  0
  3  8  1  0  0  0
  4  5  1  0  0  0
  4 32  1  0  0  0
  5  6  2  0  0  0
  5  9  1  0  0  0
  6  7  1  0  0  0
  6 33  1  0  0  0
  7  8  2  0  0  0
  7 34  1  0  0  0
  9 10  2  0  0  0
  9 15  1  0  0  0
 10 11  1  0  0  0
 10 35  1  0  0  0
 11 12  2  0  0  0
 11 13  1  0  0  0
 13 14  1  0  0  0
 13 36  1  0  0  0
 14 15  2  0  0  0
 14 16  1  0  0  0
 16 17  1  0  0  0
 16 37  1  0  0  0
 16 38  1  0  0  0
 17 18  2  0  0  0
 17 19  1  0  0  0
 19 20  1  0  0  0
 19 28  1  0  0  0
 20 21  1  0  0  0
 20 39  1  0  0  0
 20 40  1  0  0  0
 21 22  1  0  0  0
 21 41  1  0  0  0
 21 42  1  0  0  0
 22 23  2  0  0  0
 22 28  1  0  0  0
 23 24  1  0  0  0
 23 25  1  0  0  0
 25 26  2  0  0  0
 25 43  1  0  0  0
 26 27  1  0  0  0
 26 44  1  0  0  0
 27 28  2  0  0  0
 27 45  1  0  0  0
M  END
> <s_m_entry_id>
2363

> <s_m_entry_name>
dock_pv.102

> <s_m_Source_Path>
/home/csk/Desktop/cluster/DUD-E-result/akt1

> <s_m_Source_File>
dock_pv.maegz

> <i_m_Source_File_Index>
102

> <chembl_id>
CHEMBL3938410

> <chembl_pref_name>
None

> <i_lp_mmshare_version>
53161

> <i_f3d_flags>
0

> <r_lp_tautomer_probability>
0.839158042097895

> <s_lp_Force_Field>
OPLS_2005

> <r_lp_Energy>
43.526137

> <b_lp_Chiralities_Consistent>
1

> <s_lp_Variant>
CHEMBL4282_lig2324-1

> <s_i_glide_gridfile>
glide-grid_3cqw

> <i_i_glide_lignum>
3090

> <i_i_glide_rotatable_bonds>
5

> <r_i_docking_score>
-7.09171393096482

> <r_i_glide_ligand_efficiency>
-0.253275497534458

> <r_i_glide_ligand_efficiency_sa>
-0.769093581805198

> <r_i_glide_ligand_efficiency_ln>
-1.6369757970355

> <r_i_glide_gscore>
-7.09171393096482

> <r_i_glide_lipo>
-2.21872085198171

> <r_i_glide_hbond>
-0.16

> <r_i_glide_metal>
0

> <r_i_glide_rewards>
-1.7851267527085

> <r_i_glide_evdw>
-45.4110221862793

> <r_i_glide_ecoul>
-7.01692295074463

> <r_i_glide_erotb>
0.536338615774318

> <r_i_glide_esite>
-0.141115390123274

> <r_i_glide_emodel>
-75.953136165176

> <r_i_glide_energy>
-52.4279451370239

> <r_i_glide_einternal>
3.20074081420898

> <i_i_glide_confnum>
12

> <i_i_glide_posenum>
252

> <r_i_glide_eff_state_penalty>
0

> <s_user_duplicate_titles>
CHEMBL4282_lig2324

> <s_m_subgroup_title>
dock_pv

> <s_m_subgroupid>
dock_pv

> <b_m_subgroup_collapsed>
1

$$$$
CHEMBL4282_lig3180
                    3D
 Schrodinger Suite 2021-1.
 51 54  0  0  1  0            999 V2000
   13.7652    2.3415   18.9788 C   0  0  0  0  0  0
   13.8182    3.7342   19.2245 O   0  0  0  0  0  0
   12.7655    4.2689   20.0225 C   0  0  0  0  0  0
   11.3887    4.3369   19.3240 C   0  0  0  0  0  0
   10.6161    3.0806   19.2140 N   0  0  0  0  0  0
   10.4464    2.3541   20.4839 C   0  0  0  0  0  0
    9.8772    2.8306   18.0995 C   0  0  0  0  0  0
    9.8302    3.5696   17.1186 O   0  0  0  0  0  0
    9.1324    1.6123   18.0364 C   0  0  0  0  0  0
    7.7653    1.4040   17.7856 C   0  0  0  0  0  0
    7.5448    0.0997   17.7800 N   0  0  0  0  0  0
    8.7442   -0.5628   17.7904 N   0  0  0  0  0  0
    9.6888    0.3459   18.0048 N   0  0  0  0  0  0
   11.1022   -0.0629   18.0220 C   0  0  0  0  0  0
   11.4006   -1.4918   17.5579 C   0  0  0  0  0  0
   11.9376   -1.7253   16.2878 C   0  0  0  0  0  0
   12.1467   -3.0325   15.8541 C   0  0  0  0  0  0
   11.8170   -4.0998   16.6859 C   0  0  0  0  0  0
   11.2917   -3.8736   17.9556 C   0  0  0  0  0  0
   11.0859   -2.5687   18.3930 C   0  0  0  0  0  0
    6.6701    2.3330   17.3027 C   0  0  0  0  0  0
    6.8667    3.6969   17.0314 C   0  0  0  0  0  0
    5.9182    4.4892   16.4003 C   0  0  0  0  0  0
    4.6573    3.9488   16.1845 C   0  0  0  0  0  0
    3.5489    4.6109   15.7540 N   0  0  0  0  0  0
    2.6287    3.6401   15.7654 N   0  0  0  0  0  0
    3.0585    2.3940   16.1265 C   0  0  0  0  0  0
    4.4122    2.5748   16.4696 C   0  0  0  0  0  0
    5.4276    1.7674   16.9839 C   0  0  0  0  0  0
   14.7252    2.0101   18.5841 H   0  0  0  0  0  0
   13.0072    2.1232   18.2313 H   0  0  0  0  0  0
   13.5629    1.7663   19.8832 H   0  0  0  0  0  0
   12.7123    3.7716   20.9917 H   0  0  0  0  0  0
   13.0521    5.2925   20.2636 H   0  0  0  0  0  0
   10.7846    5.1199   19.7833 H   0  0  0  0  0  0
   11.5879    4.7157   18.3196 H   0  0  0  0  0  0
    9.7686    1.5025   20.4293 H   0  0  0  0  0  0
   11.4021    1.9841   20.8519 H   0  0  0  0  0  0
   10.0407    3.0300   21.2362 H   0  0  0  0  0  0
   11.6463    0.6327   17.3852 H   0  0  0  0  0  0
   11.4769    0.0753   19.0365 H   0  0  0  0  0  0
   12.1758   -0.9020   15.6295 H   0  0  0  0  0  0
   12.5522   -3.2212   14.8724 H   0  0  0  0  0  0
   11.9610   -5.1132   16.3416 H   0  0  0  0  0  0
   11.0310   -4.7044   18.5955 H   0  0  0  0  0  0
   10.6439   -2.3954   19.3656 H   0  0  0  0  0  0
    7.7442    4.2296   17.3212 H   0  0  0  0  0  0
    6.1183    5.5269   16.1853 H   0  0  0  0  0  0
    1.6773    3.8190   15.4598 H   0  0  0  0  0  0
    2.3779    1.5585   16.1386 H   0  0  0  0  0  0
    5.2216    0.7239   17.1706 H   0  0  0  0  0  0
  1  2  1  0  0  0
  1 30  1  0  0  0
  1 31  1  0  0  0
  1 32  1  0  0  0
  2  3  1  0  0  0
  3  4  1  0  0  0
  3 33  1  0  0  0
  3 34  1  0  0  0
  4  5  1  0  0  0
  4 35  1  0  0  0
  4 36  1  0  0  0
  5  6  1  0  0  0
  5  7  1  0  0  0
  6 37  1  0  0  0
  6 38  1  0  0  0
  6 39  1  0  0  0
  7  8  2  0  0  0
  7  9  1  0  0  0
  9 10  2  0  0  0
  9 13  1  0  0  0
 10 11  1  0  0  0
 10 21  1  0  0  0
 11 12  2  0  0  0
 12 13  1  0  0  0
 13 14  1  0  0  0
 14 15  1  0  0  0
 14 40  1  0  0  0
 14 41  1  0  0  0
 15 16  2  0  0  0
 15 20  1  0  0  0
 16 17  1  0  0  0
 16 42  1  0  0  0
 17 18  2  0  0  0
 17 43  1  0  0  0
 18 19  1  0  0  0
 18 44  1  0  0  0
 19 20  2  0  0  0
 19 45  1  0  0  0
 20 46  1  0  0  0
 21 22  1  0  0  0
 21 29  2  0  0  0
 22 23  2  0  0  0
 22 47  1  0  0  0
 23 24  1  0  0  0
 23 48  1  0  0  0
 24 25  2  0  0  0
 24 28  1  0  0  0
 25 26  1  0  0  0
 26 49  1  0  0  0
 26 27  1  0  0  0
 27 28  2  0  0  0
 27 50  1  0  0  0
 28 29  1  0  0  0
 29 51  1  0  0  0
M  END
> <s_m_entry_id>
2364

> <s_m_entry_name>
dock_pv.103

> <s_m_Source_Path>
/home/csk/Desktop/cluster/DUD-E-result/akt1

> <s_m_Source_File>
dock_pv.maegz

> <i_m_Source_File_Index>
103

> <chembl_id>
CHEMBL1986970

> <chembl_pref_name>
None

> <i_lp_mmshare_version>
53161

> <i_f3d_flags>
0

> <r_lp_tautomer_probability>
0.0196078431372549

> <s_lp_Force_Field>
OPLS_2005

> <r_lp_Energy>
40.035317

> <b_lp_Chiralities_Consistent>
1

> <s_lp_Variant>
CHEMBL4282_lig3180-2

> <s_i_glide_gridfile>
glide-grid_3cqw

> <i_i_glide_lignum>
4138

> <i_i_glide_rotatable_bonds>
8

> <r_i_docking_score>
-7.08291062939492

> <r_i_glide_ligand_efficiency>
-0.244238297565342

> <r_i_glide_ligand_efficiency_sa>
-0.75037743024462

> <r_i_glide_ligand_efficiency_ln>
-1.6218069270148

> <r_i_glide_gscore>
-7.08291062939492

> <r_i_glide_lipo>
-2.26480352295997

> <r_i_glide_hbond>
-0.540575905699314

> <r_i_glide_metal>
0

> <r_i_glide_rewards>
-1.6903969601235

> <r_i_glide_evdw>
-39.5696716308594

> <r_i_glide_ecoul>
-6.29168844223022

> <r_i_glide_erotb>
0.626938893465649

> <r_i_glide_esite>
-0.291836286200287

> <r_i_glide_emodel>
-59.7646912043674

> <r_i_glide_energy>
-45.8613600730896

> <r_i_glide_einternal>
7.84918546676636

> <i_i_glide_confnum>
76

> <i_i_glide_posenum>
138

> <r_i_glide_eff_state_penalty>
0

> <s_user_duplicate_titles>
CHEMBL4282_lig3180

> <s_m_subgroup_title>
dock_pv

> <s_m_subgroupid>
dock_pv

> <b_m_subgroup_collapsed>
1

$$$$
CHEMBL4282_lig3767
                    3D
 Schrodinger Suite 2021-1.
 36 40  0  0  1  0            999 V2000
   11.8163   -0.4849   17.7810 N   0  0  0  0  0  0
    8.3583    2.1778   17.7839 N   0  0  0  0  0  0
   12.4285    0.0334   16.6966 N   0  0  0  0  0  0
    9.2819    3.1531   17.8352 N   0  0  0  0  0  0
   12.6299   -0.9760   15.7850 N   0  0  0  0  0  0
   10.4627    2.5912   18.2763 N   0  0  0  0  0  0
    3.3125    3.3203   15.7723 N   0  0  0  0  0  0
    3.4223    4.6369   15.5202 N   0  0  0  0  0  0
   11.6054   -1.8446   17.6110 C   0  0  0  0  0  0
    7.0565    2.4025   17.2510 C   0  0  0  0  0  0
   10.2697    1.2996   18.4594 C   0  0  0  0  0  0
   12.1210   -2.1207   16.3208 C   0  0  0  0  0  0
    5.3998    3.8743   16.2841 C   0  0  0  0  0  0
   11.4054    0.3876   18.8745 C   0  0  0  0  0  0
    8.9432    0.9982   18.1885 C   0  0  0  0  0  0
    4.5037    2.7828   16.2151 C   0  0  0  0  0  0
    6.6890    3.6788   16.7916 C   0  0  0  0  0  0
    6.1525    1.3350   17.1298 C   0  0  0  0  0  0
   11.0311   -2.8442   18.4037 C   0  0  0  0  0  0
    4.8752    1.4894   16.5849 C   0  0  0  0  0  0
   12.0463   -3.4185   15.7924 C   0  0  0  0  0  0
    4.6521    4.9794   15.7852 C   0  0  0  0  0  0
   10.9820   -4.1303   17.8591 C   0  0  0  0  0  0
   11.4697   -4.4132   16.5827 C   0  0  0  0  0  0
    2.4289    2.8497   15.6253 H   0  0  0  0  0  0
   11.1072   -0.2383   19.7164 H   0  0  0  0  0  0
   12.2796    0.9488   19.2110 H   0  0  0  0  0  0
    8.4071    0.0634   18.2284 H   0  0  0  0  0  0
    7.3710    4.5146   16.8533 H   0  0  0  0  0  0
    6.4231    0.3486   17.4722 H   0  0  0  0  0  0
   10.6319   -2.6400   19.3880 H   0  0  0  0  0  0
    4.1877    0.6584   16.5259 H   0  0  0  0  0  0
   12.4197   -3.6442   14.8069 H   0  0  0  0  0  0
    4.9770    6.0023   15.6831 H   0  0  0  0  0  0
   10.5496   -4.9289   18.4450 H   0  0  0  0  0  0
   11.4065   -5.4241   16.2042 H   0  0  0  0  0  0
  1  3  1  0  0  0
  1  9  1  0  0  0
  1 14  1  0  0  0
  2  4  1  0  0  0
  2 10  1  0  0  0
  2 15  1  0  0  0
  3  5  2  0  0  0
  4  6  2  0  0  0
  5 12  1  0  0  0
  6 11  1  0  0  0
  7  8  1  0  0  0
  7 16  1  0  0  0
  7 25  1  0  0  0
  8 22  2  0  0  0
  9 12  1  0  0  0
  9 19  2  0  0  0
 10 17  1  0  0  0
 10 18  2  0  0  0
 11 14  1  0  0  0
 11 15  2  0  0  0
 12 21  2  0  0  0
 13 16  1  0  0  0
 13 17  2  0  0  0
 13 22  1  0  0  0
 14 26  1  0  0  0
 14 27  1  0  0  0
 15 28  1  0  0  0
 16 20  2  0  0  0
 17 29  1  0  0  0
 18 20  1  0  0  0
 18 30  1  0  0  0
 19 23  1  0  0  0
 19 31  1  0  0  0
 20 32  1  0  0  0
 21 24  1  0  0  0
 21 33  1  0  0  0
 22 34  1  0  0  0
 23 24  2  0  0  0
 23 35  1  0  0  0
 24 36  1  0  0  0
M  END
> <s_m_entry_id>
2365

> <s_m_entry_name>
dock_pv.104

> <s_m_Source_Path>
/home/csk/Desktop/cluster/DUD-E-result/akt1

> <s_m_Source_File>
dock_pv.maegz

> <i_m_Source_File_Index>
104

> <chembl_id>
CHEMBL1966069

> <chembl_pref_name>
None

> <i_lp_mmshare_version>
53161

> <i_f3d_flags>
0

> <r_lp_tautomer_probability>
1

> <s_lp_Force_Field>
OPLS_2005

> <r_lp_Energy>
13.587688

> <b_lp_Chiralities_Consistent>
1

> <s_lp_Variant>
CHEMBL4282_lig3767-1

> <s_i_glide_gridfile>
glide-grid_3cqw

> <i_i_glide_lignum>
5051

> <i_i_glide_rotatable_bonds>
3

> <r_i_docking_score>
-7.08143661017809

> <r_i_glide_ligand_efficiency>
-0.29505985875742

> <r_i_glide_ligand_efficiency_sa>
-0.851099908114095

> <r_i_glide_ligand_efficiency_ln>
-1.6949127267679

> <r_i_glide_gscore>
-7.08143661017809

> <r_i_glide_lipo>
-2.32469587778196

> <r_i_glide_hbond>
-0.32

> <r_i_glide_metal>
0

> <r_i_glide_rewards>
-2.2314418575129

> <r_i_glide_evdw>
-45.4654350280762

> <r_i_glide_ecoul>
-3.10889077186584

> <r_i_glide_erotb>
0.558127239613655

> <r_i_glide_esite>
-0.0238207473132013

> <r_i_glide_emodel>
-67.5939920753644

> <r_i_glide_energy>
-48.574325799942

> <r_i_glide_einternal>
1.23038971424103

> <i_i_glide_confnum>
19

> <i_i_glide_posenum>
373

> <r_i_glide_eff_state_penalty>
0

> <s_user_duplicate_titles>
CHEMBL4282_lig3767

> <s_m_subgroup_title>
dock_pv

> <s_m_subgroupid>
dock_pv

> <b_m_subgroup_collapsed>
1

$$$$
CHEMBL4282_lig1021
                    3D
 Schrodinger Suite 2021-1.
 27 29  0  0  1  0            999 V2000
    6.8634    1.2358   17.4202 C   0  0  0  0  0  0
    6.8816    2.6285   17.2422 C   0  0  0  0  0  0
    7.9700    3.3733   17.7380 C   0  0  0  0  0  0
    7.9008    0.5515   18.0475 C   0  0  0  0  0  0
    8.9879    1.2797   18.5403 C   0  0  0  0  0  0
    8.9991    2.6835   18.3867 C   0  0  0  0  0  0
   10.1606    3.1063   19.0051 N   0  0  0  0  0  0
   10.8777    2.0750   19.4932 N   0  0  0  0  0  0
   10.2062    0.9858   19.2265 C   0  0  0  0  0  0
   10.6264   -0.2626   19.5871 N   0  0  0  0  0  0
    5.7265    3.3246   16.5852 C   0  0  0  0  0  0
    5.8189    4.6279   16.0791 C   0  0  0  0  0  0
    4.6325    5.2563   15.7005 C   0  0  0  0  0  0
    3.4309    4.6334   15.7447 N   0  0  0  0  0  0
    3.4419    3.3486   16.1684 C   0  0  0  0  0  0
    4.5326    2.6644   16.5849 N   0  0  0  0  0  0
    2.2310    2.6745   16.1849 N   0  0  0  0  0  0
    6.0246    0.6559   17.0639 H   0  0  0  0  0  0
    8.0054    4.4488   17.6642 H   0  0  0  0  0  0
    7.8574   -0.5183   18.1744 H   0  0  0  0  0  0
   10.4694    4.0567   19.1621 H   0  0  0  0  0  0
    9.9382   -0.9825   19.7846 H   0  0  0  0  0  0
   11.5165   -0.3827   20.0461 H   0  0  0  0  0  0
    6.7593    5.1479   16.0283 H   0  0  0  0  0  0
    4.6313    6.2859   15.3848 H   0  0  0  0  0  0
    2.2163    1.7176   16.4984 H   0  0  0  0  0  0
    1.4488    3.0677   15.6672 H   0  0  0  0  0  0
  1  4  1  0  0  0
  1  2  2  0  0  0
  1 18  1  0  0  0
  2  3  1  0  0  0
  2 11  1  0  0  0
  3  6  2  0  0  0
  3 19  1  0  0  0
  4  5  2  0  0  0
  4 20  1  0  0  0
  5  9  1  0  0  0
  5  6  1  0  0  0
  6  7  1  0  0  0
  7  8  1  0  0  0
  7 21  1  0  0  0
  8  9  2  0  0  0
  9 10  1  0  0  0
 10 22  1  0  0  0
 10 23  1  0  0  0
 11 12  2  0  0  0
 11 16  1  0  0  0
 12 13  1  0  0  0
 12 24  1  0  0  0
 13 14  2  0  0  0
 13 25  1  0  0  0
 14 15  1  0  0  0
 15 16  2  0  0  0
 15 17  1  0  0  0
 17 26  1  0  0  0
 17 27  1  0  0  0
M  END
> <s_m_entry_id>
2366

> <s_m_entry_name>
dock_pv.105

> <s_m_Source_Path>
/home/csk/Desktop/cluster/DUD-E-result/akt1

> <s_m_Source_File>
dock_pv.maegz

> <i_m_Source_File_Index>
105

> <chembl_id>
CHEMBL1688215

> <chembl_pref_name>
None

> <i_lp_mmshare_version>
53161

> <i_f3d_flags>
0

> <r_lp_tautomer_probability>
0.999999987636

> <s_lp_Force_Field>
OPLS_2005

> <r_lp_Energy>
0.711046

> <b_lp_Chiralities_Consistent>
1

> <s_lp_Variant>
CHEMBL4282_lig1021-1

> <s_i_glide_gridfile>
glide-grid_3cqw

> <i_i_glide_lignum>
1435

> <i_i_glide_rotatable_bonds>
1

> <r_i_docking_score>
-7.068561358741

> <r_i_glide_ligand_efficiency>
-0.415797726984765

> <r_i_glide_ligand_efficiency_sa>
-1.06913303982377

> <r_i_glide_ligand_efficiency_ln>
-1.84403024937329

> <r_i_glide_gscore>
-7.068561358741

> <r_i_glide_lipo>
-0.998445053532421

> <r_i_glide_hbond>
-0.621303872100888

> <r_i_glide_metal>
0

> <r_i_glide_rewards>
-3.28656386363636

> <r_i_glide_evdw>
-28.7169361114502

> <r_i_glide_ecoul>
-5.67483329772949

> <r_i_glide_erotb>
0.232362639477712

> <r_i_glide_esite>
-0.107539408717109

> <r_i_glide_emodel>
-48.5754133669396

> <r_i_glide_energy>
-34.3917694091797

> <r_i_glide_einternal>
0.625621914863586

> <i_i_glide_confnum>
3

> <i_i_glide_posenum>
9

> <r_i_glide_eff_state_penalty>
0

> <s_user_duplicate_titles>
CHEMBL4282_lig1021

> <s_m_subgroup_title>
dock_pv

> <s_m_subgroupid>
dock_pv

> <b_m_subgroup_collapsed>
1

$$$$
CHEMBL4282_lig3480
                    3D
 Schrodinger Suite 2021-1.
 27 30  0  0  1  0            999 V2000
    7.0213    2.7909   17.0947 C   0  0  0  0  0  0
    7.0313    4.1090   16.6288 C   0  0  0  0  0  0
    5.8894    4.7084   16.1011 C   0  0  0  0  0  0
    5.8566    2.0180   16.9768 C   0  0  0  0  0  0
    4.6945    2.6020   16.4510 C   0  0  0  0  0  0
    4.6998    3.9720   16.0532 C   0  0  0  0  0  0
    2.7019    3.3090   15.7853 N   0  0  0  0  0  0
    3.3666    2.1782   16.1850 C   0  0  0  0  0  0
    8.2453    2.1918   17.7182 C   0  0  0  0  0  0
    9.4626    2.6371   17.4451 N   0  0  0  0  0  0
    8.2729    1.0960   18.5835 C   0  0  0  0  0  0
    9.5890    0.8780   18.8835 N   0  0  0  0  0  0
   10.3057    1.8359   18.1510 C   0  0  0  0  0  0
   11.6476    1.8801   18.1852 N   0  0  0  0  0  0
   12.2828    0.9737   18.9774 C   0  0  0  0  0  0
   11.6225    0.0066   19.7376 C   0  0  0  0  0  0
   10.2314   -0.0340   19.6777 C   0  0  0  0  0  0
    3.4612    4.4133   15.6766 N   0  0  0  0  0  0
    7.9355    4.6939   16.7065 H   0  0  0  0  0  0
    5.9119    5.7395   15.7850 H   0  0  0  0  0  0
    5.8420    0.9898   17.3048 H   0  0  0  0  0  0
    2.8421    1.2416   16.2866 H   0  0  0  0  0  0
    7.4773    0.4890   18.9849 H   0  0  0  0  0  0
   13.3618    1.0368   18.9959 H   0  0  0  0  0  0
   12.1717   -0.6903   20.3530 H   0  0  0  0  0  0
    9.6102   -0.7360   20.2166 H   0  0  0  0  0  0
    1.7158    3.3278   15.5359 H   0  0  0  0  0  0
  1  2  1  0  0  0
  1  9  1  0  0  0
  1  4  2  0  0  0
  2  3  2  0  0  0
  2 19  1  0  0  0
  3  6  1  0  0  0
  3 20  1  0  0  0
  4 21  1  0  0  0
  4  5  1  0  0  0
  5  6  1  0  0  0
  5  8  2  0  0  0
  6 18  2  0  0  0
  7 27  1  0  0  0
  7 18  1  0  0  0
  7  8  1  0  0  0
  8 22  1  0  0  0
  9 10  1  0  0  0
  9 11  2  0  0  0
 10 13  2  0  0  0
 11 12  1  0  0  0
 11 23  1  0  0  0
 12 13  1  0  0  0
 12 17  1  0  0  0
 13 14  1  0  0  0
 14 15  2  0  0  0
 15 16  1  0  0  0
 15 24  1  0  0  0
 16 17  2  0  0  0
 16 25  1  0  0  0
 17 26  1  0  0  0
M  END
> <s_m_entry_id>
2367

> <s_m_entry_name>
dock_pv.106

> <s_m_Source_Path>
/home/csk/Desktop/cluster/DUD-E-result/akt1

> <s_m_Source_File>
dock_pv.maegz

> <i_m_Source_File_Index>
106

> <chembl_id>
CHEMBL1682540

> <chembl_pref_name>
None

> <i_lp_mmshare_version>
53161

> <i_f3d_flags>
0

> <r_lp_tautomer_probability>
0.0196078431372549

> <s_lp_Force_Field>
OPLS_2005

> <r_lp_Energy>
23.665613

> <b_lp_Chiralities_Consistent>
1

> <s_lp_Variant>
CHEMBL4282_lig3480-2

> <s_i_glide_gridfile>
glide-grid_3cqw

> <i_i_glide_lignum>
4613

> <i_i_glide_rotatable_bonds>
1

> <r_i_docking_score>
-7.05210275076765

> <r_i_glide_ligand_efficiency>
-0.391783486153758

> <r_i_glide_ligand_efficiency_sa>
-1.02676319874138

> <r_i_glide_ligand_efficiency_ln>
-1.81270664852381

> <r_i_glide_gscore>
-7.05210275076765

> <r_i_glide_lipo>
-1.60305165407324

> <r_i_glide_hbond>
-0.489021706495456

> <r_i_glide_metal>
0

> <r_i_glide_rewards>
-2.80015413636364

> <r_i_glide_evdw>
-28.9379386901855

> <r_i_glide_ecoul>
-5.86105966567993

> <r_i_glide_erotb>
0.217462495087339

> <r_i_glide_esite>
-0.051281864561382

> <r_i_glide_emodel>
-49.7780886120032

> <r_i_glide_energy>
-34.7989983558655

> <r_i_glide_einternal>
0.331405699253082

> <i_i_glide_confnum>
1

> <i_i_glide_posenum>
316

> <r_i_glide_eff_state_penalty>
0

> <s_user_duplicate_titles>
CHEMBL4282_lig3480

> <s_m_subgroup_title>
dock_pv

> <s_m_subgroupid>
dock_pv

> <b_m_subgroup_collapsed>
1

$$$$
CHEMBL4282_lig998
                    3D
 Schrodinger Suite 2021-1.
 52 55  0  0  1  0            999 V2000
    3.9714    4.0844   15.6293 N   0  0  0  0  0  0
    4.9972    4.9591   15.7000 C   0  0  0  0  0  0
    6.2310    4.6945   16.1850 N   0  0  0  0  0  0
    6.4582    3.4492   16.6872 C   0  0  0  0  0  0
    4.2285    2.8267   16.0667 C   0  0  0  0  0  0
    5.4575    2.4526   16.6421 C   0  0  0  0  0  0
    5.4557    1.0353   17.2058 C   0  0  1  0  0  0
    3.9617    0.2370   16.5850 S   0  0  0  0  0  0
    3.1828    1.7406   15.9815 C   0  0  0  0  0  0
    7.6513    3.2949   17.3899 N   0  0  0  0  0  0
    8.8917    3.9889   16.9696 C   0  0  0  0  0  0
    9.9028    4.3727   18.0759 C   0  0  0  0  0  0
   10.0410    3.2362   18.9942 N   0  0  0  0  0  0
    8.8103    2.6783   19.5835 C   0  0  0  0  0  0
    7.5505    3.2006   18.8559 C   0  0  0  0  0  0
   11.2795    2.8946   19.4472 C   0  0  0  0  0  0
   12.3225    3.3732   18.9850 O   0  0  0  0  0  0
   11.4270    1.8703   20.6151 C   0  0  1  0  0  0
   12.4049    0.7061   20.3010 C   0  0  0  0  0  0
   12.0709   -0.0304   19.0016 C   0  0  0  0  0  0
   12.7913    0.2394   17.8341 C   0  0  0  0  0  0
   12.4756   -0.4234   16.6497 C   0  0  0  0  0  0
   11.4399   -1.3549   16.6343 C   0  0  0  0  0  0
   10.7158   -1.6239   17.7933 C   0  0  0  0  0  0
   11.0310   -0.9629   18.9775 C   0  0  0  0  0  0
   11.8310    2.6370   21.8114 N   0  0  0  0  0  0
   11.1320   -1.9974   15.4845 F   0  0  0  0  0  0
    6.6310    0.1442   16.8261 C   0  0  0  0  0  0
    4.8108    5.9667   15.3604 H   0  0  0  0  0  0
    5.4310    1.0923   18.2894 H   0  0  0  0  0  0
    2.3062    1.9713   16.5850 H   0  0  0  0  0  0
    2.8518    1.5751   14.9565 H   0  0  0  0  0  0
    9.3880    3.2614   16.3267 H   0  0  0  0  0  0
    8.6878    4.8664   16.3568 H   0  0  0  0  0  0
    9.4949    5.2120   18.6415 H   0  0  0  0  0  0
   10.8440    4.7125   17.6488 H   0  0  0  0  0  0
    8.8108    1.5983   19.4257 H   0  0  0  0  0  0
    8.7260    2.9121   20.6470 H   0  0  0  0  0  0
    6.6750    2.6376   19.1769 H   0  0  0  0  0  0
    7.4240    4.2327   19.1879 H   0  0  0  0  0  0
   10.4741    1.3985   20.8445 H   0  0  0  0  0  0
   12.3826   -0.0188   21.1159 H   0  0  0  0  0  0
   13.4303    1.0793   20.2616 H   0  0  0  0  0  0
   13.5883    0.9695   17.8439 H   0  0  0  0  0  0
   13.0283   -0.2148   15.7464 H   0  0  0  0  0  0
    9.9087   -2.3405   17.7850 H   0  0  0  0  0  0
   10.4556   -1.1734   19.8688 H   0  0  0  0  0  0
   11.2719    3.4916   21.8984 H   0  0  0  0  0  0
   11.6836    2.1212   22.6653 H   0  0  0  0  0  0
    7.5773    0.5776   17.1404 H   0  0  0  0  0  0
    6.5541   -0.8158   17.3388 H   0  0  0  0  0  0
    6.6310   -0.0413   15.7510 H   0  0  0  0  0  0
  1  2  2  0  0  0
  1  5  1  0  0  0
  2  3  1  0  0  0
  2 29  1  0  0  0
  3  4  2  0  0  0
  4 10  1  0  0  0
  4  6  1  0  0  0
  5  9  1  0  0  0
  5  6  2  0  0  0
  6  7  1  0  0  0
  7  8  1  0  0  0
  7 28  1  0  0  0
  7 30  1  0  0  0
  8  9  1  0  0  0
  9 31  1  0  0  0
  9 32  1  0  0  0
 10 11  1  0  0  0
 10 15  1  0  0  0
 11 12  1  0  0  0
 11 33  1  0  0  0
 11 34  1  0  0  0
 12 13  1  0  0  0
 12 35  1  0  0  0
 12 36  1  0  0  0
 13 14  1  0  0  0
 13 16  1  0  0  0
 14 15  1  0  0  0
 14 37  1  0  0  0
 14 38  1  0  0  0
 15 39  1  0  0  0
 15 40  1  0  0  0
 16 17  2  0  0  0
 16 18  1  0  0  0
 18 19  1  0  0  0
 18 26  1  0  0  0
 18 41  1  0  0  0
 19 20  1  0  0  0
 19 42  1  0  0  0
 19 43  1  0  0  0
 20 21  2  0  0  0
 20 25  1  0  0  0
 21 22  1  0  0  0
 21 44  1  0  0  0
 22 23  2  0  0  0
 22 45  1  0  0  0
 23 24  1  0  0  0
 23 27  1  0  0  0
 24 25  2  0  0  0
 24 46  1  0  0  0
 25 47  1  0  0  0
 26 48  1  0  0  0
 26 49  1  0  0  0
 28 50  1  0  0  0
 28 51  1  0  0  0
 28 52  1  0  0  0
M  END
> <s_m_entry_id>
2368

> <s_m_entry_name>
dock_pv.107

> <s_m_Source_Path>
/home/csk/Desktop/cluster/DUD-E-result/akt1

> <s_m_Source_File>
dock_pv.maegz

> <i_m_Source_File_Index>
107

> <chembl_id>
CHEMBL1632376

> <chembl_pref_name>
None

> <i_lp_mmshare_version>
53161

> <i_f3d_flags>
0

> <r_lp_tautomer_probability>
1

> <s_lp_Force_Field>
OPLS_2005

> <r_lp_Energy>
40.445545

> <b_lp_Chiralities_Consistent>
1

> <s_lp_Variant>
CHEMBL4282_lig998-1

> <s_i_glide_gridfile>
glide-grid_3cqw

> <i_i_glide_lignum>
1400

> <i_i_glide_rotatable_bonds>
5

> <r_i_docking_score>
-7.04652899780251

> <r_i_glide_ligand_efficiency>
-0.251661749921518

> <r_i_glide_ligand_efficiency_sa>
-0.764193293605797

> <r_i_glide_ligand_efficiency_ln>
-1.62654578777435

> <r_i_glide_gscore>
-7.04652899780251

> <r_i_glide_lipo>
-2.4779066753138

> <r_i_glide_hbond>
-0.16

> <r_i_glide_metal>
0

> <r_i_glide_rewards>
-1.84516616896504

> <r_i_glide_evdw>
-42.7713356018066

> <r_i_glide_ecoul>
-5.21809911727905

> <r_i_glide_erotb>
0.486705170761964

> <r_i_glide_esite>
-0.128879676603445

> <r_i_glide_emodel>
-66.0465422489114

> <r_i_glide_energy>
-47.9894347190857

> <r_i_glide_einternal>
2.31125354766846

> <i_i_glide_confnum>
39

> <i_i_glide_posenum>
394

> <r_i_glide_eff_state_penalty>
0

> <s_user_duplicate_titles>
CHEMBL4282_lig998

> <s_m_subgroup_title>
dock_pv

> <s_m_subgroupid>
dock_pv

> <b_m_subgroup_collapsed>
1

$$$$
CHEMBL4282_lig3340
                    3D
 Schrodinger Suite 2021-1.
 39 42  0  0  1  0            999 V2000
    8.0966    0.6661   17.7888 O   0  0  0  0  0  0
   12.0468    2.4264   18.9516 O   0  0  0  0  0  0
   10.2311   -0.9395   21.1205 O   0  0  0  0  0  0
   12.1851    0.1676   19.1400 N   0  0  0  0  0  0
    9.3439    0.2352   18.2276 N   0  0  0  0  0  0
    3.4367    4.4506   15.6833 N   0  0  0  0  0  0
    2.6333    3.3806   15.7849 N   0  0  0  0  0  0
    8.1011    2.0183   17.7279 C   0  0  0  0  0  0
   10.0994    1.2967   18.4220 C   0  0  0  0  0  0
    6.9001    2.6727   17.1356 C   0  0  0  0  0  0
   11.4987    1.3223   18.8552 C   0  0  0  0  0  0
    9.3449    2.4498   18.1403 C   0  0  0  0  0  0
    4.5835    2.5842   16.4602 C   0  0  0  0  0  0
    4.6523    3.9556   16.0708 C   0  0  0  0  0  0
    5.7140    1.9448   16.9860 C   0  0  0  0  0  0
    6.9796    3.9904   16.6777 C   0  0  0  0  0  0
    5.8738    4.6375   16.1267 C   0  0  0  0  0  0
    3.2420    2.2203   16.1851 C   0  0  0  0  0  0
   11.6820   -1.2259   19.1768 C   0  0  0  0  0  0
   13.5148    0.2710   19.7731 C   0  0  0  0  0  0
   11.3797   -1.6165   20.6459 C   0  0  1  0  0  0
   13.2805    0.0290   21.2833 C   0  0  0  0  0  0
   12.6051   -1.3377   21.5534 C   0  0  0  0  0  0
    9.4662   -1.2405   20.6069 H   0  0  0  0  0  0
    1.6533    3.4372   15.5142 H   0  0  0  0  0  0
    9.6875    3.4728   18.2036 H   0  0  0  0  0  0
    5.6539    0.9150   17.3064 H   0  0  0  0  0  0
    7.9114    4.5331   16.7621 H   0  0  0  0  0  0
    5.9478    5.6586   15.7853 H   0  0  0  0  0  0
    2.6730    1.3087   16.2793 H   0  0  0  0  0  0
   12.4650   -1.8807   18.7976 H   0  0  0  0  0  0
   10.8977   -1.4554   18.4621 H   0  0  0  0  0  0
   14.0452    1.1933   19.5288 H   0  0  0  0  0  0
   14.1480   -0.5083   19.3488 H   0  0  0  0  0  0
   11.1518   -2.6828   20.6852 H   0  0  0  0  0  0
   12.6717    0.8357   21.6969 H   0  0  0  0  0  0
   14.2333    0.0790   21.8108 H   0  0  0  0  0  0
   12.3123   -1.3978   22.6014 H   0  0  0  0  0  0
   13.3379   -2.1302   21.4063 H   0  0  0  0  0  0
  1  5  1  0  0  0
  1  8  1  0  0  0
  2 11  2  0  0  0
  3 21  1  0  0  0
  3 24  1  0  0  0
  4 11  1  0  0  0
  4 19  1  0  0  0
  4 20  1  0  0  0
  5  9  2  0  0  0
  6  7  1  0  0  0
  6 14  2  0  0  0
  7 25  1  0  0  0
  7 18  1  0  0  0
  8 12  2  0  0  0
  8 10  1  0  0  0
  9 11  1  0  0  0
  9 12  1  0  0  0
 10 16  1  0  0  0
 10 15  2  0  0  0
 12 26  1  0  0  0
 13 15  1  0  0  0
 13 14  1  0  0  0
 13 18  2  0  0  0
 14 17  1  0  0  0
 15 27  1  0  0  0
 16 17  2  0  0  0
 16 28  1  0  0  0
 17 29  1  0  0  0
 18 30  1  0  0  0
 19 21  1  0  0  0
 19 31  1  0  0  0
 19 32  1  0  0  0
 20 22  1  0  0  0
 20 33  1  0  0  0
 20 34  1  0  0  0
 21 23  1  0  0  0
 21 35  1  0  0  0
 22 23  1  0  0  0
 22 36  1  0  0  0
 22 37  1  0  0  0
 23 38  1  0  0  0
 23 39  1  0  0  0
M  END
> <s_m_entry_id>
2369

> <s_m_entry_name>
dock_pv.108

> <s_m_Source_Path>
/home/csk/Desktop/cluster/DUD-E-result/akt1

> <s_m_Source_File>
dock_pv.maegz

> <i_m_Source_File_Index>
108

> <chembl_id>
CHEMBL1997340

> <chembl_pref_name>
None

> <i_lp_mmshare_version>
53161

> <i_f3d_flags>
0

> <r_lp_tautomer_probability>
0.0196078431372549

> <s_lp_Force_Field>
OPLS_2005

> <r_lp_Energy>
46.268019

> <b_lp_Chiralities_Consistent>
1

> <s_lp_Variant>
CHEMBL4282_lig3340-4

> <s_i_glide_gridfile>
glide-grid_3cqw

> <i_i_glide_lignum>
4394

> <i_i_glide_rotatable_bonds>
4

> <r_i_docking_score>
-7.04601395337986

> <r_i_glide_ligand_efficiency>
-0.306348432755646

> <r_i_glide_ligand_efficiency_sa>
-0.871214191332498

> <r_i_glide_ligand_efficiency_ln>
-1.70379006364945

> <r_i_glide_gscore>
-7.04601395337986

> <r_i_glide_lipo>
-1.55823477744714

> <r_i_glide_hbond>
-0.787816804031805

> <r_i_glide_metal>
0

> <r_i_glide_rewards>
-2.25506565340078

> <r_i_glide_evdw>
-32.240650177002

> <r_i_glide_ecoul>
-7.30376482009888

> <r_i_glide_erotb>
0.399524359473748

> <r_i_glide_esite>
-0.13682384610895

> <r_i_glide_emodel>
-56.1408404846052

> <r_i_glide_energy>
-39.5444149971008

> <r_i_glide_einternal>
0.364142686128616

> <i_i_glide_confnum>
15

> <i_i_glide_posenum>
319

> <r_i_glide_eff_state_penalty>
0

> <s_user_duplicate_titles>
CHEMBL4282_lig3340

> <s_m_subgroup_title>
dock_pv

> <s_m_subgroupid>
dock_pv

> <b_m_subgroup_collapsed>
1

$$$$
CHEMBL4282_lig3612
                    3D
 Schrodinger Suite 2021-1.
 32 34  0  0  1  0            999 V2000
    4.4140   -0.6597   16.9850 I   0  0  0  0  0  0
    9.3418    2.3169   17.3853 O   0  0  0  0  0  0
    9.1867    4.5808   19.3850 O   0  0  0  0  0  0
    9.6566    2.2315   20.9248 O   0  0  0  0  0  0
   11.9471    1.0375   17.5412 O   0  0  0  0  0  0
    7.0339    2.6579   17.2019 N   0  0  0  0  0  0
    6.6589    1.3804   17.4557 N   0  0  0  0  0  0
    5.9777    4.6367   16.1870 N   0  0  0  0  0  0
    3.6371    4.2843   15.6117 N   0  0  0  0  0  0
    2.6231    2.1896   15.7367 N   0  0  0  0  0  0
    8.2954    3.1934   17.6866 C   0  0  1  0  0  0
    6.0035    3.3544   16.5850 C   0  0  0  0  0  0
    4.9310    2.4438   16.4666 C   0  0  0  0  0  0
    8.3668    3.4419   19.1950 C   0  0  1  0  0  0
    5.4589    1.2126   16.9650 C   0  0  0  0  0  0
    8.9402    2.1135   19.6999 C   0  0  1  0  0  0
    9.7485    1.5392   18.5133 C   0  0  2  0  0  0
    3.7442    2.9737   15.9360 C   0  0  0  0  0  0
    4.7549    5.0369   15.7475 C   0  0  0  0  0  0
   11.2855    1.6635   18.6291 C   0  0  0  0  0  0
    9.4310    4.6794   20.3285 H   0  0  0  0  0  0
    9.2765    2.9330   21.4670 H   0  0  0  0  0  0
   12.8903    1.0412   17.7182 H   0  0  0  0  0  0
    2.6428    1.2176   16.0011 H   0  0  0  0  0  0
    1.7819    2.6290   15.3763 H   0  0  0  0  0  0
    8.4490    4.1115   17.1143 H   0  0  0  0  0  0
    7.3728    3.6279   19.6029 H   0  0  0  0  0  0
    8.0967    1.4411   19.8742 H   0  0  0  0  0  0
    9.4869    0.4889   18.3715 H   0  0  0  0  0  0
    4.6496    6.0774   15.4769 H   0  0  0  0  0  0
   11.6297    1.1780   19.5432 H   0  0  0  0  0  0
   11.5848    2.7104   18.7007 H   0  0  0  0  0  0
  1 15  1  0  0  0
  2 11  1  0  0  0
  2 17  1  0  0  0
  3 14  1  0  0  0
  3 21  1  0  0  0
  4 16  1  0  0  0
  4 22  1  0  0  0
  5 20  1  0  0  0
  5 23  1  0  0  0
  6  7  1  0  0  0
  6 11  1  0  0  0
  6 12  1  0  0  0
  7 15  2  0  0  0
  8 12  1  0  0  0
  8 19  2  0  0  0
  9 18  2  0  0  0
  9 19  1  0  0  0
 10 18  1  0  0  0
 10 24  1  0  0  0
 10 25  1  0  0  0
 11 14  1  0  0  0
 11 26  1  0  0  0
 12 13  2  0  0  0
 13 15  1  0  0  0
 13 18  1  0  0  0
 14 16  1  0  0  0
 14 27  1  0  0  0
 16 17  1  0  0  0
 16 28  1  0  0  0
 17 20  1  0  0  0
 17 29  1  0  0  0
 19 30  1  0  0  0
 20 31  1  0  0  0
 20 32  1  0  0  0
M  END
> <s_m_entry_id>
2370

> <s_m_entry_name>
dock_pv.109

> <s_m_Source_Path>
/home/csk/Desktop/cluster/DUD-E-result/akt1

> <s_m_Source_File>
dock_pv.maegz

> <i_m_Source_File_Index>
109

> <chembl_id>
CHEMBL2001288

> <chembl_pref_name>
None

> <i_lp_mmshare_version>
53161

> <i_f3d_flags>
0

> <r_lp_tautomer_probability>
1

> <s_lp_Force_Field>
OPLS_2005

> <r_lp_Energy>
35.58765

> <b_lp_Chiralities_Consistent>
1

> <s_lp_Variant>
CHEMBL4282_lig3612-8

> <s_i_glide_gridfile>
glide-grid_3cqw

> <i_i_glide_lignum>
4813

> <i_i_glide_rotatable_bonds>
5

> <r_i_docking_score>
-7.03707333500959

> <r_i_glide_ligand_efficiency>
-0.35185366675048

> <r_i_glide_ligand_efficiency_sa>
-0.955077790537297

> <r_i_glide_ligand_efficiency_ln>
-1.76114735754067

> <r_i_glide_gscore>
-7.03707333500959

> <r_i_glide_lipo>
-0.987755671966036

> <r_i_glide_hbond>
-0.308322259493454

> <r_i_glide_metal>
0

> <r_i_glide_rewards>
-2.5108019614604

> <r_i_glide_evdw>
-33.0316963195801

> <r_i_glide_ecoul>
-12.2090253829956

> <r_i_glide_erotb>
0.252745181338646

> <r_i_glide_esite>
0

> <r_i_glide_emodel>
-65.5900393118293

> <r_i_glide_energy>
-45.2407217025757

> <r_i_glide_einternal>
3.98080921173096

> <i_i_glide_confnum>
10

> <i_i_glide_posenum>
183

> <r_i_glide_eff_state_penalty>
0

> <s_user_duplicate_titles>
CHEMBL4282_lig3612

> <s_m_subgroup_title>
dock_pv

> <s_m_subgroupid>
dock_pv

> <b_m_subgroup_collapsed>
1

$$$$
CHEMBL4282_lig3152
                    3D
 Schrodinger Suite 2021-1.
 25 27  0  0  1  0            999 V2000
    4.4204   -0.9800   16.9849 I   0  0  0  0  0  0
    3.8316    5.1142   15.6120 O   0  0  0  0  0  0
    5.1867    3.3536   16.3024 N   0  0  0  0  0  0
    6.6062    1.8244   17.1517 N   0  0  0  0  0  0
    3.0309    2.9395   15.5223 N   0  0  0  0  0  0
    5.4261    2.0266   16.6249 C   0  0  0  0  0  0
    7.2064    3.0079   17.1719 C   0  0  0  0  0  0
    6.3745    3.9755   16.6015 C   0  0  0  0  0  0
    3.9578    3.9017   15.7851 C   0  0  0  0  0  0
    4.3374    1.0836   16.3610 C   0  0  0  0  0  0
    8.5678    3.1800   17.7765 C   0  0  0  0  0  0
    3.2327    1.6111   15.7874 C   0  0  0  0  0  0
    9.3222    2.0690   18.1825 C   0  0  0  0  0  0
    9.0841    4.4652   17.9778 C   0  0  0  0  0  0
   10.5668    2.2397   18.7816 C   0  0  0  0  0  0
   10.3248    4.6367   18.5849 C   0  0  0  0  0  0
   11.0608    3.5250   18.9850 C   0  0  0  0  0  0
    2.1362    3.2679   15.1776 H   0  0  0  0  0  0
    6.4926    5.0374   16.4484 H   0  0  0  0  0  0
    2.3541    1.0373   15.5422 H   0  0  0  0  0  0
    8.9413    1.0665   18.0530 H   0  0  0  0  0  0
    8.5232    5.3402   17.6882 H   0  0  0  0  0  0
   11.1354    1.3808   19.1058 H   0  0  0  0  0  0
   10.7109    5.6312   18.7575 H   0  0  0  0  0  0
   12.0142    3.6658   19.4732 H   0  0  0  0  0  0
  1 10  1  0  0  0
  2  9  2  0  0  0
  3  6  1  0  0  0
  3  8  1  0  0  0
  3  9  1  0  0  0
  4  6  2  0  0  0
  4  7  1  0  0  0
  5  9  1  0  0  0
  5 12  1  0  0  0
  5 18  1  0  0  0
  6 10  1  0  0  0
  7  8  2  0  0  0
  7 11  1  0  0  0
  8 19  1  0  0  0
 10 12  2  0  0  0
 11 13  2  0  0  0
 11 14  1  0  0  0
 12 20  1  0  0  0
 13 15  1  0  0  0
 13 21  1  0  0  0
 14 16  2  0  0  0
 14 22  1  0  0  0
 15 17  2  0  0  0
 15 23  1  0  0  0
 16 17  1  0  0  0
 16 24  1  0  0  0
 17 25  1  0  0  0
M  END
> <s_m_entry_id>
2371

> <s_m_entry_name>
dock_pv.110

> <s_m_Source_Path>
/home/csk/Desktop/cluster/DUD-E-result/akt1

> <s_m_Source_File>
dock_pv.maegz

> <i_m_Source_File_Index>
110

> <chembl_id>
CHEMBL2001668

> <chembl_pref_name>
None

> <i_lp_mmshare_version>
53161

> <i_f3d_flags>
0

> <r_lp_tautomer_probability>
1

> <s_lp_Force_Field>
OPLS_2005

> <r_lp_Energy>
18.670321

> <b_lp_Chiralities_Consistent>
1

> <s_lp_Variant>
CHEMBL4282_lig3152-1

> <s_i_glide_gridfile>
glide-grid_3cqw

> <i_i_glide_lignum>
4097

> <i_i_glide_rotatable_bonds>
1

> <r_i_docking_score>
-7.03693122516703

> <r_i_glide_ligand_efficiency>
-0.413937130892178

> <r_i_glide_ligand_efficiency_sa>
-1.06434892334777

> <r_i_glide_ligand_efficiency_ln>
-1.83577865189228

> <r_i_glide_gscore>
-7.03693122516703

> <r_i_glide_lipo>
-1.25434383073184

> <r_i_glide_hbond>
-0.566388207306102

> <r_i_glide_metal>
0

> <r_i_glide_rewards>
-3.06505503720055

> <r_i_glide_evdw>
-34.4083709716797

> <r_i_glide_ecoul>
-3.64738845825195

> <r_i_glide_erotb>
0.116382667393237

> <r_i_glide_esite>
0

> <r_i_glide_emodel>
-53.4095449905614

> <r_i_glide_energy>
-38.0557594299316

> <r_i_glide_einternal>
0.0289275608956814

> <i_i_glide_confnum>
1

> <i_i_glide_posenum>
154

> <r_i_glide_eff_state_penalty>
0

> <s_user_duplicate_titles>
CHEMBL4282_lig3152

> <s_m_subgroup_title>
dock_pv

> <s_m_subgroupid>
dock_pv

> <b_m_subgroup_collapsed>
1

$$$$
CHEMBL4282_lig2306
                    3D
 Schrodinger Suite 2021-1.
 51 54  0  0  1  0            999 V2000
    9.1198    3.6023   16.6501 C   0  0  0  0  0  0
    7.6516    3.5442   17.1430 C   0  0  1  0  0  0
    6.7266    4.4718   16.3610 C   0  0  0  0  0  0
    5.4537    3.6972   16.2606 C   0  0  0  0  0  0
    4.2086    4.1035   15.7881 C   0  0  0  0  0  0
    3.9817    5.3958   15.4554 F   0  0  0  0  0  0
    3.1903    3.1666   15.6536 C   0  0  0  0  0  0
    3.4326    1.8169   15.8972 C   0  0  0  0  0  0
    4.6823    1.4087   16.3654 C   0  0  0  0  0  0
    5.6782    2.3665   16.6142 C   0  0  0  0  0  0
    6.9817    2.2235   17.1434 N   0  0  0  0  0  0
    7.4302    1.1350   17.8356 C   0  0  0  0  0  0
    6.9640    0.0079   17.6554 O   0  0  0  0  0  0
    8.4813    1.3099   18.9566 C   0  0  0  0  0  0
    9.9457    1.0498   18.5836 C   0  0  0  0  0  0
   10.2619    0.0749   17.7930 N   0  0  0  0  0  0
   11.5701   -0.1427   17.4627 C   0  0  0  0  0  0
   12.5426    0.7334   17.8180 C   0  0  0  0  0  0
   13.8310    0.5865   17.4514 F   0  0  0  0  0  0
   12.2310    1.8555   18.6794 C   0  0  0  0  0  0
   13.0997    2.6796   18.9765 O   0  0  0  0  0  0
   10.9269    1.8793   19.1136 N   0  0  0  0  0  0
   10.6515    2.8624   20.1847 C   0  0  0  0  0  0
   11.8192   -1.3321   16.7877 N   0  0  0  0  0  0
   11.0989   -1.7706   15.5827 C   0  0  0  0  0  0
   10.9841   -3.3135   15.5323 C   0  0  0  0  0  0
   12.2598   -3.9294   15.6407 O   0  0  0  0  0  0
   12.8840   -3.5843   16.8675 C   0  0  0  0  0  0
   13.0932   -2.0590   16.9099 C   0  0  0  0  0  0
    9.7933    3.8257   17.4723 H   0  0  0  0  0  0
    9.4454    2.6467   16.2411 H   0  0  0  0  0  0
    9.2868    4.3569   15.8777 H   0  0  0  0  0  0
    7.6126    3.8896   18.1784 H   0  0  0  0  0  0
    7.0826    4.6370   15.3435 H   0  0  0  0  0  0
    6.6326    5.4358   16.8427 H   0  0  0  0  0  0
    2.2311    3.4870   15.2967 H   0  0  0  0  0  0
    2.6484    1.0923   15.7367 H   0  0  0  0  0  0
    4.8337    0.3601   16.5696 H   0  0  0  0  0  0
    8.3272    2.2894   19.3993 H   0  0  0  0  0  0
    8.2277    0.6383   19.7686 H   0  0  0  0  0  0
   11.5155    3.0446   20.8278 H   0  0  0  0  0  0
   10.3597    3.8238   19.7628 H   0  0  0  0  0  0
    9.8548    2.5463   20.8610 H   0  0  0  0  0  0
   10.0904   -1.3624   15.5989 H   0  0  0  0  0  0
   11.5155   -1.3252   14.6793 H   0  0  0  0  0  0
   10.5443   -3.6353   14.5950 H   0  0  0  0  0  0
   10.3133   -3.6778   16.3127 H   0  0  0  0  0  0
   13.8456   -4.0949   16.9428 H   0  0  0  0  0  0
   12.2983   -3.9253   17.7234 H   0  0  0  0  0  0
   13.8413   -1.6830   16.2145 H   0  0  0  0  0  0
   13.5178   -1.8352   17.8888 H   0  0  0  0  0  0
  1  2  1  0  0  0
  1 30  1  0  0  0
  1 31  1  0  0  0
  1 32  1  0  0  0
  2  3  1  0  0  0
  2 11  1  0  0  0
  2 33  1  0  0  0
  3  4  1  0  0  0
  3 34  1  0  0  0
  3 35  1  0  0  0
  4  5  2  0  0  0
  4 10  1  0  0  0
  5  6  1  0  0  0
  5  7  1  0  0  0
  7  8  2  0  0  0
  7 36  1  0  0  0
  8  9  1  0  0  0
  8 37  1  0  0  0
  9 10  2  0  0  0
  9 38  1  0  0  0
 10 11  1  0  0  0
 11 12  1  0  0  0
 12 13  2  0  0  0
 12 14  1  0  0  0
 14 15  1  0  0  0
 14 39  1  0  0  0
 14 40  1  0  0  0
 15 16  2  0  0  0
 15 22  1  0  0  0
 16 17  1  0  0  0
 17 18  2  0  0  0
 17 24  1  0  0  0
 18 19  1  0  0  0
 18 20  1  0  0  0
 20 21  2  0  0  0
 20 22  1  0  0  0
 22 23  1  0  0  0
 23 41  1  0  0  0
 23 42  1  0  0  0
 23 43  1  0  0  0
 24 25  1  0  0  0
 24 29  1  0  0  0
 25 26  1  0  0  0
 25 44  1  0  0  0
 25 45  1  0  0  0
 26 27  1  0  0  0
 26 46  1  0  0  0
 26 47  1  0  0  0
 27 28  1  0  0  0
 28 29  1  0  0  0
 28 48  1  0  0  0
 28 49  1  0  0  0
 29 50  1  0  0  0
 29 51  1  0  0  0
M  END
> <s_m_entry_id>
2372

> <s_m_entry_name>
dock_pv.111

> <s_m_Source_Path>
/home/csk/Desktop/cluster/DUD-E-result/akt1

> <s_m_Source_File>
dock_pv.maegz

> <i_m_Source_File_Index>
111

> <chembl_id>
CHEMBL3922944

> <chembl_pref_name>
None

> <i_lp_mmshare_version>
53161

> <i_f3d_flags>
0

> <r_lp_tautomer_probability>
1

> <s_lp_Force_Field>
OPLS_2005

> <r_lp_Energy>
63.680554

> <b_lp_Chiralities_Consistent>
1

> <s_lp_Variant>
CHEMBL4282_lig2306-2

> <s_i_glide_gridfile>
glide-grid_3cqw

> <i_i_glide_lignum>
3056

> <i_i_glide_rotatable_bonds>
4

> <r_i_docking_score>
-7.02641838472317

> <r_i_glide_ligand_efficiency>
-0.242290289128385

> <r_i_glide_ligand_efficiency_sa>
-0.744392531153897

> <r_i_glide_ligand_efficiency_ln>
-1.6088716355047

> <r_i_glide_gscore>
-7.02641838472317

> <r_i_glide_lipo>
-3.25547322832776

> <r_i_glide_hbond>
0

> <r_i_glide_metal>
0

> <r_i_glide_rewards>
-1.21828640499797

> <r_i_glide_evdw>
-44.1961631774902

> <r_i_glide_ecoul>
-4.77471351623535

> <r_i_glide_erotb>
0.48041832132351

> <r_i_glide_esite>
-0.107061886411145

> <r_i_glide_emodel>
-68.9461783346502

> <r_i_glide_energy>
-48.9708766937256

> <r_i_glide_einternal>
3.33093309402466

> <i_i_glide_confnum>
72

> <i_i_glide_posenum>
71

> <r_i_glide_eff_state_penalty>
0

> <s_user_duplicate_titles>
CHEMBL4282_lig2306

> <s_m_subgroup_title>
dock_pv

> <s_m_subgroupid>
dock_pv

> <b_m_subgroup_collapsed>
1

$$$$
CHEMBL4282_lig2329
                    3D
 Schrodinger Suite 2021-1.
 49 52  0  0  1  0            999 V2000
   10.6308   -3.6825   19.1133 O   0  0  0  0  0  0
   10.7841   -3.1198   17.8269 C   0  0  0  0  0  0
   12.2582   -2.7291   17.5629 C   0  0  2  0  0  0
   12.7516   -1.5477   18.4367 C   0  0  0  0  0  0
   12.1490   -0.2587   18.0259 N   0  0  0  0  0  0
   12.3920   -0.0474   16.5836 C   0  0  0  0  0  0
   11.8970   -1.2480   15.7436 C   0  0  0  0  0  0
   12.5327   -2.4403   16.1905 O   0  0  0  0  0  0
   11.6817    0.7065   18.9233 C   0  0  0  0  0  0
   11.7413    0.5632   20.2727 C   0  0  0  0  0  0
   11.1841    1.5623   21.1515 C   0  0  0  0  0  0
   11.1289    1.4376   22.3684 O   0  0  0  0  0  0
   10.6940    2.6253   20.4792 N   0  0  0  0  0  0
   10.6342    2.7519   19.1214 C   0  0  0  0  0  0
   11.1381    1.8375   18.3601 N   0  0  0  0  0  0
    9.9417    3.9849   18.5628 C   0  0  0  0  0  0
    8.7355    3.8049   17.5952 C   0  0  0  0  0  0
    8.6641    4.6388   16.6957 O   0  0  0  0  0  0
    7.7644    2.8496   17.7235 N   0  0  0  0  0  0
    8.0108    1.5311   18.3184 C   0  0  0  0  0  0
    6.7743    0.6984   18.0520 C   0  0  0  0  0  0
    5.9756    1.5324   17.1030 C   0  0  0  0  0  0
    4.7544    1.2550   16.4873 C   0  0  0  0  0  0
    4.2072    0.0225   16.5848 F   0  0  0  0  0  0
    4.0700    2.2679   15.8152 C   0  0  0  0  0  0
    4.5976    3.5599   15.7833 C   0  0  0  0  0  0
    5.8370    3.8261   16.3653 C   0  0  0  0  0  0
    6.5587    2.7931   16.9852 C   0  0  0  0  0  0
    9.7582   -3.4111   19.4527 H   0  0  0  0  0  0
   10.1279   -2.2543   17.7526 H   0  0  0  0  0  0
   10.4449   -3.8485   17.0888 H   0  0  0  0  0  0
   12.8589   -3.6071   17.8044 H   0  0  0  0  0  0
   13.8309   -1.4506   18.5246 H   0  0  0  0  0  0
   12.4682   -1.8021   19.4554 H   0  0  0  0  0  0
   11.8277    0.8178   16.2374 H   0  0  0  0  0  0
   13.4128    0.2784   16.3830 H   0  0  0  0  0  0
   10.8111   -1.3460   15.7713 H   0  0  0  0  0  0
   12.1392   -1.0912   14.6936 H   0  0  0  0  0  0
   12.1623   -0.2978   20.7541 H   0  0  0  0  0  0
   10.3247    3.3650   21.0738 H   0  0  0  0  0  0
   10.6995    4.5759   18.0467 H   0  0  0  0  0  0
    9.5944    4.6186   19.3820 H   0  0  0  0  0  0
    8.7892    1.0771   17.7062 H   0  0  0  0  0  0
    8.3362    1.5074   19.3598 H   0  0  0  0  0  0
    6.2309    0.6356   18.9862 H   0  0  0  0  0  0
    7.0019   -0.3216   17.7474 H   0  0  0  0  0  0
    3.1112    2.0602   15.3610 H   0  0  0  0  0  0
    4.0473    4.3552   15.3008 H   0  0  0  0  0  0
    6.2162    4.8369   16.3348 H   0  0  0  0  0  0
  1  2  1  0  0  0
  1 29  1  0  0  0
  2  3  1  0  0  0
  2 30  1  0  0  0
  2 31  1  0  0  0
  3  4  1  0  0  0
  3  8  1  0  0  0
  3 32  1  0  0  0
  4  5  1  0  0  0
  4 33  1  0  0  0
  4 34  1  0  0  0
  5  6  1  0  0  0
  5  9  1  0  0  0
  6  7  1  0  0  0
  6 35  1  0  0  0
  6 36  1  0  0  0
  7  8  1  0  0  0
  7 37  1  0  0  0
  7 38  1  0  0  0
  9 10  2  0  0  0
  9 15  1  0  0  0
 10 11  1  0  0  0
 10 39  1  0  0  0
 11 12  2  0  0  0
 11 13  1  0  0  0
 13 14  1  0  0  0
 13 40  1  0  0  0
 14 15  2  0  0  0
 14 16  1  0  0  0
 16 17  1  0  0  0
 16 41  1  0  0  0
 16 42  1  0  0  0
 17 18  2  0  0  0
 17 19  1  0  0  0
 19 20  1  0  0  0
 19 28  1  0  0  0
 20 21  1  0  0  0
 20 43  1  0  0  0
 20 44  1  0  0  0
 21 22  1  0  0  0
 21 45  1  0  0  0
 21 46  1  0  0  0
 22 23  2  0  0  0
 22 28  1  0  0  0
 23 24  1  0  0  0
 23 25  1  0  0  0
 25 26  2  0  0  0
 25 47  1  0  0  0
 26 27  1  0  0  0
 26 48  1  0  0  0
 27 28  2  0  0  0
 27 49  1  0  0  0
M  END
> <s_m_entry_id>
2374

> <s_m_entry_name>
dock_pv.113

> <s_m_Source_Path>
/home/csk/Desktop/cluster/DUD-E-result/akt1

> <s_m_Source_File>
dock_pv.maegz

> <i_m_Source_File_Index>
113

> <chembl_id>
CHEMBL3954012

> <chembl_pref_name>
None

> <i_lp_mmshare_version>
53161

> <i_f3d_flags>
0

> <r_lp_tautomer_probability>
0.994036381586735

> <s_lp_Force_Field>
OPLS_2005

> <r_lp_Energy>
55.084955

> <b_lp_Chiralities_Consistent>
1

> <s_lp_Variant>
CHEMBL4282_lig2329-1

> <s_i_glide_gridfile>
glide-grid_3cqw

> <i_i_glide_lignum>
3100

> <i_i_glide_rotatable_bonds>
6

> <r_i_docking_score>
-7.01839952435157

> <r_i_glide_ligand_efficiency>
-0.250657125869699

> <r_i_glide_ligand_efficiency_sa>
-0.76114266329255

> <r_i_glide_ligand_efficiency_ln>
-1.62005267938464

> <r_i_glide_gscore>
-7.01839952435157

> <r_i_glide_lipo>
-2.07887527205792

> <r_i_glide_hbond>
-0.304

> <r_i_glide_metal>
0

> <r_i_glide_rewards>
-1.65103671216595

> <r_i_glide_evdw>
-43.488941192627

> <r_i_glide_ecoul>
-8.7461109161377

> <r_i_glide_erotb>
0.645796339680532

> <r_i_glide_esite>
-0.143920182756225

> <r_i_glide_emodel>
-72.4705184492132

> <r_i_glide_energy>
-52.2350521087646

> <r_i_glide_einternal>
6.02630853652954

> <i_i_glide_confnum>
116

> <i_i_glide_posenum>
263

> <r_i_glide_eff_state_penalty>
0

> <s_user_duplicate_titles>
CHEMBL4282_lig2329

> <s_m_subgroup_title>
dock_pv

> <s_m_subgroupid>
dock_pv

> <b_m_subgroup_collapsed>
1

$$$$
CHEMBL4282_lig3420
                    3D
 Schrodinger Suite 2021-1.
 39 42  0  0  1  0            999 V2000
    6.9591    2.8304   17.0665 C   0  0  0  0  0  0
    6.9878    4.1458   16.5934 C   0  0  0  0  0  0
    5.8477    4.7567   16.0803 C   0  0  0  0  0  0
    5.7906    2.0653   16.9567 C   0  0  0  0  0  0
    4.6305    2.6624   16.4370 C   0  0  0  0  0  0
    4.6535    4.0302   16.0368 C   0  0  0  0  0  0
    3.4251    4.4898   15.6585 N   0  0  0  0  0  0
    2.6380    3.4039   15.7851 N   0  0  0  0  0  0
    3.2893    2.2632   16.1850 C   0  0  0  0  0  0
    8.1717    2.2299   17.6887 C   0  0  0  0  0  0
    8.4242    1.0365   18.3324 C   0  0  0  0  0  0
    9.7923    1.0232   18.5837 C   0  0  0  0  0  0
   10.3570    2.1421   18.1815 N   0  0  0  0  0  0
    9.3467    2.9039   17.5923 O   0  0  0  0  0  0
   10.6226   -0.0819   19.2120 C   0  0  0  0  0  0
   11.0656   -1.0856   18.2301 N   0  0  0  0  0  0
   11.4608   -2.3298   18.9074 C   0  0  0  0  0  0
   11.8526   -3.4289   17.8981 C   0  0  0  0  0  0
   12.9563   -2.9619   16.9374 C   0  0  0  0  0  0
   12.5734   -1.6120   16.3117 C   0  0  0  0  0  0
   12.1387   -0.5729   17.3634 C   0  0  0  0  0  0
    7.8971    4.7232   16.6697 H   0  0  0  0  0  0
    5.8742    5.7937   15.7852 H   0  0  0  0  0  0
    5.7693    1.0408   17.2976 H   0  0  0  0  0  0
    1.6540    3.4369   15.5289 H   0  0  0  0  0  0
    2.7447    1.3388   16.2997 H   0  0  0  0  0  0
    7.7240    0.2515   18.5785 H   0  0  0  0  0  0
   10.0182   -0.5663   19.9821 H   0  0  0  0  0  0
   11.4872    0.3241   19.7398 H   0  0  0  0  0  0
   10.6284   -2.6909   19.5117 H   0  0  0  0  0  0
   12.2780   -2.1293   19.6029 H   0  0  0  0  0  0
   10.9678   -3.7601   17.3540 H   0  0  0  0  0  0
   12.1967   -4.3058   18.4462 H   0  0  0  0  0  0
   13.8924   -2.8603   17.4852 H   0  0  0  0  0  0
   13.1298   -3.7078   16.1604 H   0  0  0  0  0  0
   13.4317   -1.2120   15.7781 H   0  0  0  0  0  0
   11.7924   -1.7266   15.5584 H   0  0  0  0  0  0
   11.7846    0.3171   16.8424 H   0  0  0  0  0  0
   12.9873   -0.2541   17.9705 H   0  0  0  0  0  0
  1  2  1  0  0  0
  1 10  1  0  0  0
  1  4  2  0  0  0
  2  3  2  0  0  0
  2 22  1  0  0  0
  3  6  1  0  0  0
  3 23  1  0  0  0
  4 24  1  0  0  0
  4  5  1  0  0  0
  5  6  1  0  0  0
  5  9  2  0  0  0
  6  7  2  0  0  0
  7  8  1  0  0  0
  8 25  1  0  0  0
  8  9  1  0  0  0
  9 26  1  0  0  0
 10 11  2  0  0  0
 10 14  1  0  0  0
 11 12  1  0  0  0
 11 27  1  0  0  0
 12 13  2  0  0  0
 12 15  1  0  0  0
 13 14  1  0  0  0
 15 16  1  0  0  0
 15 28  1  0  0  0
 15 29  1  0  0  0
 16 17  1  0  0  0
 16 21  1  0  0  0
 17 18  1  0  0  0
 17 30  1  0  0  0
 17 31  1  0  0  0
 18 19  1  0  0  0
 18 32  1  0  0  0
 18 33  1  0  0  0
 19 20  1  0  0  0
 19 34  1  0  0  0
 19 35  1  0  0  0
 20 21  1  0  0  0
 20 36  1  0  0  0
 20 37  1  0  0  0
 21 38  1  0  0  0
 21 39  1  0  0  0
M  END
> <s_m_entry_id>
2375

> <s_m_entry_name>
dock_pv.114

> <s_m_Source_Path>
/home/csk/Desktop/cluster/DUD-E-result/akt1

> <s_m_Source_File>
dock_pv.maegz

> <i_m_Source_File_Index>
114

> <chembl_id>
CHEMBL1682360

> <chembl_pref_name>
None

> <i_lp_mmshare_version>
53161

> <i_f3d_flags>
0

> <r_lp_tautomer_probability>
0.0196078431372549

> <s_lp_Force_Field>
OPLS_2005

> <r_lp_Energy>
30.949116

> <b_lp_Chiralities_Consistent>
1

> <s_lp_Variant>
CHEMBL4282_lig3420-2

> <s_i_glide_gridfile>
glide-grid_3cqw

> <i_i_glide_lignum>
4519

> <i_i_glide_rotatable_bonds>
3

> <r_i_docking_score>
-7.01407804607787

> <r_i_glide_ligand_efficiency>
-0.334003716479899

> <r_i_glide_ligand_efficiency_sa>
-0.921490927462371

> <r_i_glide_ligand_efficiency_ln>
-1.73421662361353

> <r_i_glide_gscore>
-7.01407804607787

> <r_i_glide_lipo>
-2.09448778095096

> <r_i_glide_hbond>
-0.545110571166091

> <r_i_glide_metal>
0

> <r_i_glide_rewards>
-2.50404327272727

> <r_i_glide_evdw>
-33.0512542724609

> <r_i_glide_ecoul>
-4.53364038467407

> <r_i_glide_erotb>
0.476609151611921

> <r_i_glide_esite>
-0.0144368015213106

> <r_i_glide_emodel>
-53.1975454805101

> <r_i_glide_energy>
-37.584894657135

> <r_i_glide_einternal>
0.358463764190674

> <i_i_glide_confnum>
9

> <i_i_glide_posenum>
362

> <r_i_glide_eff_state_penalty>
0

> <s_user_duplicate_titles>
CHEMBL4282_lig3420

> <s_m_subgroup_title>
dock_pv

> <s_m_subgroupid>
dock_pv

> <b_m_subgroup_collapsed>
1

$$$$
CHEMBL4282_lig703
                    3D
 Schrodinger Suite 2021-1.
 48 51  0  0  1  0            999 V2000
   13.1153   -1.9992   20.0132 C   0  0  0  0  0  0
    8.1325    1.9336   18.0325 C   0  0  0  0  0  0
    8.8289    3.1525   18.1327 C   0  0  0  0  0  0
   10.0339    3.2956   18.7374 N   0  0  0  0  0  0
   10.5998    2.1976   19.2911 C   0  0  0  0  0  0
   10.0078    0.9301   19.2358 C   0  0  0  0  0  0
    8.7792    0.8153   18.5851 C   0  0  0  0  0  0
   10.5549   -0.2247   19.7436 O   0  0  0  0  0  0
   11.4717   -0.1546   20.8363 C   0  0  0  0  0  0
   12.0837   -1.5563   21.0836 C   0  0  1  0  0  0
   11.0325   -2.5537   21.2423 N   0  0  0  0  0  0
    6.7844    1.8322   17.3707 C   0  0  0  0  0  0
    6.2601    0.5789   17.2215 N   0  0  0  0  0  0
    5.0494    0.4049   16.6335 C   0  0  0  0  0  0
    6.1076    2.9682   16.9097 C   0  0  0  0  0  0
    4.8455    2.7954   16.3285 C   0  0  0  0  0  0
    4.2920    1.4914   16.1873 C   0  0  0  0  0  0
    3.0322    1.5103   15.6588 N   0  0  0  0  0  0
    2.8175    2.8226   15.4587 N   0  0  0  0  0  0
    3.8630    3.6558   15.7887 C   0  0  0  0  0  0
    3.8593    5.1511   15.6038 C   0  0  0  0  0  0
   12.6277   -2.0311   18.5623 C   0  0  0  0  0  0
   12.0143   -3.1742   18.0326 C   0  0  0  0  0  0
   11.6036   -3.1953   16.6974 C   0  0  0  0  0  0
   11.8034   -2.0777   15.8847 C   0  0  0  0  0  0
   12.4038   -0.9337   16.4101 C   0  0  0  0  0  0
   12.8141   -0.9119   17.7427 C   0  0  0  0  0  0
   11.8249   -4.2697   18.8035 F   0  0  0  0  0  0
   11.0282   -4.3077   16.1861 F   0  0  0  0  0  0
   11.4304   -2.1031   14.5861 F   0  0  0  0  0  0
   13.5206   -2.9796   20.2725 H   0  0  0  0  0  0
   13.9742   -1.3293   20.0640 H   0  0  0  0  0  0
    8.4399    4.0723   17.7288 H   0  0  0  0  0  0
   11.5510    2.3693   19.7683 H   0  0  0  0  0  0
    8.3187   -0.1616   18.5535 H   0  0  0  0  0  0
   10.9254    0.1800   21.7216 H   0  0  0  0  0  0
   12.2831    0.5571   20.6658 H   0  0  0  0  0  0
   12.6146   -1.5167   22.0368 H   0  0  0  0  0  0
   10.3951   -2.2887   21.9799 H   0  0  0  0  0  0
   10.4594   -2.5619   20.4039 H   0  0  0  0  0  0
    4.6676   -0.6022   16.5845 H   0  0  0  0  0  0
    6.5025    3.9653   17.0133 H   0  0  0  0  0  0
    1.9315    3.1447   15.0704 H   0  0  0  0  0  0
    4.7709    5.4775   15.1007 H   0  0  0  0  0  0
    3.0326    5.4853   14.9873 H   0  0  0  0  0  0
    3.8304    5.6764   16.5591 H   0  0  0  0  0  0
   12.5549   -0.0651   15.7850 H   0  0  0  0  0  0
   13.2752   -0.0207   18.1442 H   0  0  0  0  0  0
  1 10  1  0  0  0
  1 22  1  0  0  0
  1 31  1  0  0  0
  1 32  1  0  0  0
  2  7  1  0  0  0
  2  3  2  0  0  0
  2 12  1  0  0  0
  3  4  1  0  0  0
  3 33  1  0  0  0
  4  5  2  0  0  0
  5  6  1  0  0  0
  5 34  1  0  0  0
  6  8  1  0  0  0
  6  7  2  0  0  0
  7 35  1  0  0  0
  8  9  1  0  0  0
  9 10  1  0  0  0
  9 36  1  0  0  0
  9 37  1  0  0  0
 10 11  1  0  0  0
 10 38  1  0  0  0
 11 39  1  0  0  0
 11 40  1  0  0  0
 12 13  1  0  0  0
 12 15  2  0  0  0
 13 14  2  0  0  0
 14 41  1  0  0  0
 14 17  1  0  0  0
 15 42  1  0  0  0
 15 16  1  0  0  0
 16 20  2  0  0  0
 16 17  1  0  0  0
 17 18  2  0  0  0
 18 19  1  0  0  0
 19 20  1  0  0  0
 19 43  1  0  0  0
 20 21  1  0  0  0
 21 44  1  0  0  0
 21 45  1  0  0  0
 21 46  1  0  0  0
 22 23  2  0  0  0
 22 27  1  0  0  0
 23 24  1  0  0  0
 23 28  1  0  0  0
 24 25  2  0  0  0
 24 29  1  0  0  0
 25 26  1  0  0  0
 25 30  1  0  0  0
 26 27  2  0  0  0
 26 47  1  0  0  0
 27 48  1  0  0  0
M  END
> <s_m_entry_id>
2376

> <s_m_entry_name>
dock_pv.115

> <s_m_Source_Path>
/home/csk/Desktop/cluster/DUD-E-result/akt1

> <s_m_Source_File>
dock_pv.maegz

> <i_m_Source_File_Index>
115

> <chembl_id>
CHEMBL574986

> <chembl_pref_name>
None

> <i_lp_mmshare_version>
53161

> <i_f3d_flags>
0

> <r_lp_tautomer_probability>
0.0448800538560646

> <s_lp_Force_Field>
OPLS_2005

> <r_lp_Energy>
41.203926

> <b_lp_Chiralities_Consistent>
1

> <s_lp_Variant>
CHEMBL4282_lig703-2

> <s_i_glide_gridfile>
glide-grid_3cqw

> <i_i_glide_lignum>
1003

> <i_i_glide_rotatable_bonds>
6

> <r_i_docking_score>
-7.01394309186946

> <r_i_glide_ligand_efficiency>
-0.233798103062315

> <r_i_glide_ligand_efficiency_sa>
-0.726465064841959

> <r_i_glide_ligand_efficiency_ln>
-1.59364429350373

> <r_i_glide_gscore>
-7.01394309186946

> <r_i_glide_lipo>
-2.64109098607835

> <r_i_glide_hbond>
-0.32

> <r_i_glide_metal>
0

> <r_i_glide_rewards>
-1.86524068053403

> <r_i_glide_evdw>
-46.342472076416

> <r_i_glide_ecoul>
-2.88543558120728

> <r_i_glide_erotb>
0.577188742343404

> <r_i_glide_esite>
-0.0148612265985846

> <r_i_glide_emodel>
-66.3377321230869

> <r_i_glide_energy>
-49.2279076576233

> <r_i_glide_einternal>
7.60885810852051

> <i_i_glide_confnum>
34

> <i_i_glide_posenum>
328

> <r_i_glide_eff_state_penalty>
0

> <s_user_duplicate_titles>
CHEMBL4282_lig703,568975

> <s_m_subgroup_title>
dock_pv

> <s_m_subgroupid>
dock_pv

> <b_m_subgroup_collapsed>
1

$$$$
CHEMBL4282_lig3129
                    3D
 Schrodinger Suite 2021-1.
 20 22  0  0  1  0            999 V2000
   10.0261    0.8886   19.4151 Cl  0  0  0  0  0  0
    6.5712    4.6357   16.5558 O   0  0  0  0  0  0
    3.8311    5.3676   15.4305 O   0  0  0  0  0  0
    4.7883    1.5197   16.5845 N   0  0  0  0  0  0
    3.3692    3.1594   15.7154 N   0  0  0  0  0  0
    5.7065    2.5208   16.7556 C   0  0  0  0  0  0
    6.9934    2.5241   17.3851 C   0  0  0  0  0  0
    5.4875    3.8369   16.3380 C   0  0  0  0  0  0
    7.4838    3.8443   17.1998 C   0  0  0  0  0  0
    4.2010    4.2502   15.7850 C   0  0  0  0  0  0
    7.7902    1.5990   18.0814 C   0  0  0  0  0  0
    8.7388    4.2592   17.6589 C   0  0  0  0  0  0
    9.0400    2.0110   18.5525 C   0  0  0  0  0  0
    3.6526    1.8486   16.0602 C   0  0  0  0  0  0
    9.5033    3.3132   18.3445 C   0  0  0  0  0  0
    2.4463    3.3634   15.3571 H   0  0  0  0  0  0
    7.4372    0.5947   18.2732 H   0  0  0  0  0  0
    9.0913    5.2708   17.5145 H   0  0  0  0  0  0
    2.8777    1.1067   15.8885 H   0  0  0  0  0  0
   10.4673    3.5998   18.7422 H   0  0  0  0  0  0
  1 13  1  0  0  0
  2  8  1  0  0  0
  2  9  1  0  0  0
  3 10  2  0  0  0
  4  6  1  0  0  0
  4 14  2  0  0  0
  5 10  1  0  0  0
  5 14  1  0  0  0
  5 16  1  0  0  0
  6  7  1  0  0  0
  6  8  2  0  0  0
  7  9  1  0  0  0
  7 11  2  0  0  0
  8 10  1  0  0  0
  9 12  2  0  0  0
 11 13  1  0  0  0
 11 17  1  0  0  0
 12 15  1  0  0  0
 12 18  1  0  0  0
 13 15  2  0  0  0
 14 19  1  0  0  0
 15 20  1  0  0  0
M  END
> <s_m_entry_id>
2377

> <s_m_entry_name>
dock_pv.116

> <s_m_Source_Path>
/home/csk/Desktop/cluster/DUD-E-result/akt1

> <s_m_Source_File>
dock_pv.maegz

> <i_m_Source_File_Index>
116

> <chembl_id>
CHEMBL1992323

> <chembl_pref_name>
None

> <i_lp_mmshare_version>
53161

> <i_f3d_flags>
0

> <r_lp_tautomer_probability>
1

> <s_lp_Force_Field>
OPLS_2005

> <r_lp_Energy>
20.344558

> <b_lp_Chiralities_Consistent>
1

> <s_lp_Variant>
CHEMBL4282_lig3129-1

> <s_i_glide_gridfile>
glide-grid_3cqw

> <i_i_glide_lignum>
4065

> <i_i_glide_rotatable_bonds>
0

> <r_i_docking_score>
-7.01044157523489

> <r_i_glide_ligand_efficiency>
-0.467362771682326

> <r_i_glide_ligand_efficiency_sa>
-1.15261570957506

> <r_i_glide_ligand_efficiency_ln>
-1.89060050296812

> <r_i_glide_gscore>
-7.01044157523489

> <r_i_glide_lipo>
-1.1414439114886

> <r_i_glide_hbond>
-0.394148498008337

> <r_i_glide_metal>
0

> <r_i_glide_rewards>
-3.2343741310242

> <r_i_glide_evdw>
-29.4583759307861

> <r_i_glide_ecoul>
-5.11704158782959

> <r_i_glide_erotb>
0

> <r_i_glide_esite>
0

> <r_i_glide_emodel>
-48.7073053890415

> <r_i_glide_energy>
-34.5754175186157

> <r_i_glide_einternal>
0

> <i_i_glide_confnum>
1

> <i_i_glide_posenum>
384

> <r_i_glide_eff_state_penalty>
0

> <s_user_duplicate_titles>
CHEMBL4282_lig3129

> <s_m_subgroup_title>
dock_pv

> <s_m_subgroupid>
dock_pv

> <b_m_subgroup_collapsed>
1

$$$$
CHEMBL4282_lig1375
                    3D
 Schrodinger Suite 2021-1.
 41 44  0  0  1  0            999 V2000
    8.9386    2.2229   18.1382 C   0  0  0  0  0  0
    7.8015    1.4383   18.3532 C   0  0  0  0  0  0
    6.5835    1.7846   17.7788 C   0  0  0  0  0  0
    6.4755    2.9289   16.9849 C   0  0  0  0  0  0
    7.6076    3.7223   16.7691 C   0  0  0  0  0  0
    8.8311    3.3713   17.3381 C   0  0  0  0  0  0
    5.1434    3.3166   16.4264 C   0  0  0  0  0  0
   10.2516    1.8001   18.8188 C   0  0  1  0  0  0
   10.8708    0.5725   18.1272 C   0  0  0  0  0  0
   11.7464    0.6960   17.0415 C   0  0  0  0  0  0
   12.2893   -0.4377   16.4402 C   0  0  0  0  0  0
   11.9587   -1.7012   16.9240 C   0  0  0  0  0  0
   11.0874   -1.8370   18.0016 C   0  0  0  0  0  0
   10.5482   -0.7027   18.6007 C   0  0  0  0  0  0
   12.6305   -3.1086   16.1854 Cl  0  0  0  0  0  0
   11.1799    2.9276   18.9846 N   0  0  2  0  0  0
   12.2946    2.6274   19.8727 C   0  0  0  0  0  0
    4.0300    2.5191   16.1849 C   0  0  0  0  0  0
    3.0316    3.3665   15.7849 N   0  0  0  0  0  0
    3.4312    4.6372   15.7138 N   0  0  0  0  0  0
    4.6952    4.5986   16.0632 C   0  0  0  0  0  0
   13.6386    2.2772   19.2672 C   0  0  0  0  0  0
   13.4223    3.6330   19.8810 C   0  0  0  0  0  0
    7.8504    0.5625   18.9852 H   0  0  0  0  0  0
    5.7189    1.1714   17.9822 H   0  0  0  0  0  0
    7.5448    4.6145   16.1636 H   0  0  0  0  0  0
    9.6907    4.0000   17.1566 H   0  0  0  0  0  0
    9.9851    1.5135   19.8389 H   0  0  0  0  0  0
   11.9960    1.6734   16.6621 H   0  0  0  0  0  0
   12.9628   -0.3356   15.6029 H   0  0  0  0  0  0
   10.8255   -2.8151   18.3785 H   0  0  0  0  0  0
    9.8666   -0.8217   19.4321 H   0  0  0  0  0  0
   10.6708    3.6986   19.4044 H   0  0  0  0  0  0
   12.0147    2.2203   20.8464 H   0  0  0  0  0  0
    3.8500    1.4609   16.3051 H   0  0  0  0  0  0
    2.0830    3.0898   15.5569 H   0  0  0  0  0  0
    5.2814    5.5039   16.1110 H   0  0  0  0  0  0
   14.2594    1.5479   19.7878 H   0  0  0  0  0  0
   13.7442    2.2096   18.1859 H   0  0  0  0  0  0
   13.3485    4.5077   19.2329 H   0  0  0  0  0  0
   13.8893    3.8694   20.8369 H   0  0  0  0  0  0
  1  2  2  0  0  0
  1  6  1  0  0  0
  1  8  1  0  0  0
  2  3  1  0  0  0
  2 24  1  0  0  0
  3  4  2  0  0  0
  3 25  1  0  0  0
  4  5  1  0  0  0
  4  7  1  0  0  0
  5  6  2  0  0  0
  5 26  1  0  0  0
  6 27  1  0  0  0
  7 18  2  0  0  0
  7 21  1  0  0  0
  8  9  1  0  0  0
  8 16  1  0  0  0
  8 28  1  0  0  0
  9 10  2  0  0  0
  9 14  1  0  0  0
 10 11  1  0  0  0
 10 29  1  0  0  0
 11 12  2  0  0  0
 11 30  1  0  0  0
 12 13  1  0  0  0
 12 15  1  0  0  0
 13 14  2  0  0  0
 13 31  1  0  0  0
 14 32  1  0  0  0
 16 17  1  0  0  0
 16 33  1  0  0  0
 17 22  1  0  0  0
 17 23  1  0  0  0
 17 34  1  0  0  0
 18 19  1  0  0  0
 18 35  1  0  0  0
 19 20  1  0  0  0
 19 36  1  0  0  0
 20 21  2  0  0  0
 21 37  1  0  0  0
 22 23  1  0  0  0
 22 38  1  0  0  0
 22 39  1  0  0  0
 23 40  1  0  0  0
 23 41  1  0  0  0
M  END
> <s_m_entry_id>
2378

> <s_m_entry_name>
dock_pv.117

> <s_m_Source_Path>
/home/csk/Desktop/cluster/DUD-E-result/akt1

> <s_m_Source_File>
dock_pv.maegz

> <i_m_Source_File_Index>
117

> <chembl_id>
CHEMBL3113145

> <chembl_pref_name>
None

> <i_lp_mmshare_version>
53161

> <i_f3d_flags>
0

> <r_lp_tautomer_probability>
0.5

> <s_lp_Force_Field>
OPLS_2005

> <r_lp_Energy>
26.45679

> <b_lp_Chiralities_Consistent>
1

> <s_lp_Variant>
CHEMBL4282_lig1375-2

> <s_i_glide_gridfile>
glide-grid_3cqw

> <i_i_glide_lignum>
1906

> <i_i_glide_rotatable_bonds>
5

> <r_i_docking_score>
-7.01028375938348

> <r_i_glide_ligand_efficiency>
-0.304794946060151

> <r_i_glide_ligand_efficiency_sa>
-0.866796281820158

> <r_i_glide_ligand_efficiency_ln>
-1.69515017875764

> <r_i_glide_gscore>
-7.01028375938348

> <r_i_glide_lipo>
-2.1044561288622

> <r_i_glide_hbond>
-0.505375985424419

> <r_i_glide_metal>
0

> <r_i_glide_rewards>
-2.15456728787879

> <r_i_glide_evdw>
-43.2436904907227

> <r_i_glide_ecoul>
-4.72343111038208

> <r_i_glide_erotb>
0.624814833875374

> <r_i_glide_esite>
0

> <r_i_glide_emodel>
-68.8635303168538

> <r_i_glide_energy>
-47.9671216011047

> <r_i_glide_einternal>
0.459775656461716

> <i_i_glide_confnum>
24

> <i_i_glide_posenum>
303

> <r_i_glide_eff_state_penalty>
0

> <s_user_duplicate_titles>
CHEMBL4282_lig1375

> <s_m_subgroup_title>
dock_pv

> <s_m_subgroupid>
dock_pv

> <b_m_subgroup_collapsed>
1

$$$$
CHEMBL4282_lig3624
                    3D
 Schrodinger Suite 2021-1.
 40 43  0  0  1  0            999 V2000
    9.4304    0.5718   19.1747 N   0  0  0  0  0  0
    9.0896    1.6178   18.3907 C   0  0  0  0  0  0
    9.8002    2.7700   18.2685 N   0  0  0  0  0  0
   10.8830    2.9116   19.0777 C   0  0  0  0  0  0
   11.2475    1.9063   19.9876 C   0  0  0  0  0  0
   10.5047    0.7308   19.9760 C   0  0  0  0  0  0
   11.5166    4.1597   18.9850 N   0  0  0  0  0  0
   12.3913    4.8247   19.8659 C   0  0  0  0  0  0
   12.2385    6.2091   20.1289 C   0  0  0  0  0  0
   13.0200    6.7958   21.1308 C   0  0  0  0  0  0
   13.9377    6.0495   21.8640 C   0  0  0  0  0  0
   14.1512    4.7130   21.5468 C   0  0  0  0  0  0
   13.4080    4.1207   20.5297 C   0  0  0  0  0  0
   11.2359    7.0876   19.4229 C   0  0  0  0  0  0
    9.9812    6.5601   19.3850 O   0  0  0  0  0  0
   11.5219    8.2072   18.9959 O   0  0  0  0  0  0
    7.8429    1.4533   17.7859 N   0  0  0  0  0  0
    6.9174    2.3071   17.1724 C   0  0  0  0  0  0
    5.6458    1.7674   16.9831 C   0  0  0  0  0  0
    6.2113    4.4313   16.2063 C   0  0  0  0  0  0
    7.1978    3.6178   16.7686 C   0  0  0  0  0  0
    4.9047    3.9316   16.1059 C   0  0  0  0  0  0
    4.6306    2.5781   16.4666 C   0  0  0  0  0  0
    3.2550    2.4157   16.1849 C   0  0  0  0  0  0
    2.8275    3.6522   15.7840 N   0  0  0  0  0  0
    3.7797    4.5987   15.7029 N   0  0  0  0  0  0
   12.0353    1.9966   20.7104 H   0  0  0  0  0  0
   10.7346   -0.0887   20.6414 H   0  0  0  0  0  0
   11.0017    4.7850   18.3834 H   0  0  0  0  0  0
   12.8859    7.8368   21.3823 H   0  0  0  0  0  0
   14.5067    6.5228   22.6506 H   0  0  0  0  0  0
   14.9019    4.1447   22.0752 H   0  0  0  0  0  0
   13.6438    3.1044   20.2660 H   0  0  0  0  0  0
    9.9325    5.8436   20.0370 H   0  0  0  0  0  0
    7.4464    0.5659   18.0569 H   0  0  0  0  0  0
    5.4267    0.7523   17.2801 H   0  0  0  0  0  0
    6.4424    5.4399   15.9070 H   0  0  0  0  0  0
    8.1863    4.0306   16.8865 H   0  0  0  0  0  0
    2.5627    1.5929   16.2689 H   0  0  0  0  0  0
    1.8694    3.8369   15.5092 H   0  0  0  0  0  0
  1  2  2  0  0  0
  1  6  1  0  0  0
  2  3  1  0  0  0
  2 17  1  0  0  0
  3  4  2  0  0  0
  4  7  1  0  0  0
  4  5  1  0  0  0
  5  6  2  0  0  0
  5 27  1  0  0  0
  6 28  1  0  0  0
  7  8  1  0  0  0
  7 29  1  0  0  0
  8 13  1  0  0  0
  8  9  2  0  0  0
  9 14  1  0  0  0
  9 10  1  0  0  0
 10 11  2  0  0  0
 10 30  1  0  0  0
 11 12  1  0  0  0
 11 31  1  0  0  0
 12 13  2  0  0  0
 12 32  1  0  0  0
 13 33  1  0  0  0
 14 15  1  0  0  0
 14 16  2  0  0  0
 15 34  1  0  0  0
 17 18  1  0  0  0
 17 35  1  0  0  0
 18 19  2  0  0  0
 18 21  1  0  0  0
 19 36  1  0  0  0
 19 23  1  0  0  0
 20 22  1  0  0  0
 20 37  1  0  0  0
 20 21  2  0  0  0
 21 38  1  0  0  0
 22 26  2  0  0  0
 22 23  1  0  0  0
 23 24  2  0  0  0
 24 39  1  0  0  0
 24 25  1  0  0  0
 25 40  1  0  0  0
 25 26  1  0  0  0
M  END
> <s_m_entry_id>
2379

> <s_m_entry_name>
dock_pv.118

> <s_m_Source_Path>
/home/csk/Desktop/cluster/DUD-E-result/akt1

> <s_m_Source_File>
dock_pv.maegz

> <i_m_Source_File_Index>
118

> <chembl_id>
CHEMBL396523

> <chembl_pref_name>
None

> <i_lp_mmshare_version>
53161

> <i_f3d_flags>
0

> <r_lp_tautomer_probability>
0.01682948890584

> <s_lp_Force_Field>
OPLS_2005

> <r_lp_Energy>
31.740416

> <b_lp_Chiralities_Consistent>
1

> <s_lp_Variant>
CHEMBL4282_lig3624-2

> <s_i_glide_gridfile>
glide-grid_3cqw

> <i_i_glide_lignum>
4837

> <i_i_glide_rotatable_bonds>
6

> <r_i_docking_score>
-7.00940135395026

> <r_i_glide_ligand_efficiency>
-0.269592359767318

> <r_i_glide_ligand_efficiency_sa>
-0.798666305015967

> <r_i_glide_ligand_efficiency_ln>
-1.64613490825343

> <r_i_glide_gscore>
-7.00940135395026

> <r_i_glide_lipo>
-1.52709077840973

> <r_i_glide_hbond>
-0.53732269338098

> <r_i_glide_metal>
0

> <r_i_glide_rewards>
-2.25576278301463

> <r_i_glide_evdw>
-38.1117630004883

> <r_i_glide_ecoul>
-9.36053276062012

> <r_i_glide_erotb>
0.792431043310425

> <r_i_glide_esite>
-0.171988078337917

> <r_i_glide_emodel>
-57.9806005144931

> <r_i_glide_energy>
-47.4722957611084

> <r_i_glide_einternal>
16.4199275970459

> <i_i_glide_confnum>
28

> <i_i_glide_posenum>
83

> <r_i_glide_eff_state_penalty>
0

> <s_user_duplicate_titles>
CHEMBL4282_lig3624

> <s_m_subgroup_title>
dock_pv

> <s_m_subgroupid>
dock_pv

> <b_m_subgroup_collapsed>
1

$$$$
CHEMBL4282_lig922
                    3D
 Schrodinger Suite 2021-1.
 38 41  0  0  1  0            999 V2000
    8.8677    2.1136   19.0498 C   0  0  0  0  0  0
    8.9793    1.9708   20.5833 C   0  0  0  0  0  0
   10.4465    1.7427   21.0095 C   0  0  0  0  0  0
   10.9701    0.5231   20.3783 N   0  0  2  0  0  0
   10.9120    0.5729   18.9141 C   0  0  0  0  0  0
    9.4566    0.8108   18.4517 C   0  0  0  0  0  0
    6.1444    4.6437   16.1851 N   0  0  0  0  0  0
    4.9202    5.0640   15.7840 C   0  0  0  0  0  0
    3.7810    4.3378   15.6883 N   0  0  0  0  0  0
    6.2596    3.3542   16.5977 C   0  0  0  0  0  0
    4.9347    1.0352   16.4991 C   0  0  0  0  0  0
    5.1894    2.4498   16.4083 C   0  0  0  0  0  0
    3.9727    3.0445   15.9586 C   0  0  0  0  0  0
    3.0310    2.0489   15.8519 N   0  0  0  0  0  0
    3.6077    0.8467   16.1850 C   0  0  0  0  0  0
    7.4376    3.0010   17.2742 N   0  0  0  0  0  0
    6.1096   -0.1628   16.8649 Cl  0  0  0  0  0  0
    7.4315    2.3264   18.5759 C   0  0  0  0  0  0
    8.7174    3.7189   17.2168 C   0  0  0  0  0  0
    9.5154    3.3853   18.4855 C   0  0  0  0  0  0
    8.6015    2.8730   21.0681 H   0  0  0  0  0  0
    8.3400    1.1710   20.9598 H   0  0  0  0  0  0
   11.0696    2.5923   20.7247 H   0  0  0  0  0  0
   10.5159    1.6482   22.0939 H   0  0  0  0  0  0
   10.3491   -0.2296   20.6453 H   0  0  0  0  0  0
   11.5842    1.3515   18.5523 H   0  0  0  0  0  0
   11.2809   -0.3742   18.5182 H   0  0  0  0  0  0
    8.8368   -0.0556   18.6945 H   0  0  0  0  0  0
    9.4310    0.8610   17.3650 H   0  0  0  0  0  0
    4.8289    6.1127   15.5434 H   0  0  0  0  0  0
    2.0624    2.1537   15.5805 H   0  0  0  0  0  0
    3.0314   -0.0654   16.1800 H   0  0  0  0  0  0
    6.9206    3.0382   19.2258 H   0  0  0  0  0  0
    6.7952    1.4510   18.6646 H   0  0  0  0  0  0
    9.2981    3.4363   16.3387 H   0  0  0  0  0  0
    8.5450    4.7963   17.2293 H   0  0  0  0  0  0
   10.5873    3.2980   18.3144 H   0  0  0  0  0  0
    9.4104    4.2044   19.2013 H   0  0  0  0  0  0
  1  2  1  0  0  0
  1  6  1  0  0  0
  1 18  1  0  0  0
  1 20  1  0  0  0
  2  3  1  0  0  0
  2 21  1  0  0  0
  2 22  1  0  0  0
  3  4  1  0  0  0
  3 23  1  0  0  0
  3 24  1  0  0  0
  4  5  1  0  0  0
  4 25  1  0  0  0
  5  6  1  0  0  0
  5 26  1  0  0  0
  5 27  1  0  0  0
  6 28  1  0  0  0
  6 29  1  0  0  0
  7 10  1  0  0  0
  7  8  2  0  0  0
  8  9  1  0  0  0
  8 30  1  0  0  0
  9 13  2  0  0  0
 10 12  2  0  0  0
 10 16  1  0  0  0
 11 12  1  0  0  0
 11 15  2  0  0  0
 11 17  1  0  0  0
 12 13  1  0  0  0
 13 14  1  0  0  0
 14 15  1  0  0  0
 14 31  1  0  0  0
 15 32  1  0  0  0
 16 18  1  0  0  0
 16 19  1  0  0  0
 18 33  1  0  0  0
 18 34  1  0  0  0
 19 20  1  0  0  0
 19 35  1  0  0  0
 19 36  1  0  0  0
 20 37  1  0  0  0
 20 38  1  0  0  0
M  END
> <s_m_entry_id>
2380

> <s_m_entry_name>
dock_pv.119

> <s_m_Source_Path>
/home/csk/Desktop/cluster/DUD-E-result/akt1

> <s_m_Source_File>
dock_pv.maegz

> <i_m_Source_File_Index>
119

> <chembl_id>
CHEMBL1173350

> <chembl_pref_name>
None

> <i_lp_mmshare_version>
53161

> <i_f3d_flags>
0

> <r_lp_tautomer_probability>
0.999998369746258

> <s_lp_Force_Field>
OPLS_2005

> <r_lp_Energy>
40.524809

> <b_lp_Chiralities_Consistent>
1

> <s_lp_Variant>
CHEMBL4282_lig922-1

> <s_i_glide_gridfile>
glide-grid_3cqw

> <i_i_glide_lignum>
1317

> <i_i_glide_rotatable_bonds>
1

> <r_i_docking_score>
-7.00781534952073

> <r_i_glide_ligand_efficiency>
-0.350390767476036

> <r_i_glide_ligand_efficiency_sa>
-0.951106870979409

> <r_i_glide_ligand_efficiency_ln>
-1.75382504876575

> <r_i_glide_gscore>
-7.00781534952073

> <r_i_glide_lipo>
-1.26532754929049

> <r_i_glide_hbond>
0

> <r_i_glide_metal>
0

> <r_i_glide_rewards>
-3.45597968919868

> <r_i_glide_evdw>
-38.6442070007324

> <r_i_glide_ecoul>
-3.79081273078918

> <r_i_glide_erotb>
0.214324148623447

> <r_i_glide_esite>
0

> <r_i_glide_emodel>
-57.5010555577932

> <r_i_glide_energy>
-42.4350197315216

> <r_i_glide_einternal>
1.64504861831665

> <i_i_glide_confnum>
28

> <i_i_glide_posenum>
68

> <r_i_glide_eff_state_penalty>
0

> <s_user_duplicate_titles>
CHEMBL4282_lig922,651117

> <s_m_subgroup_title>
dock_pv

> <s_m_subgroupid>
dock_pv

> <b_m_subgroup_collapsed>
1

$$$$
CHEMBL4282_lig837
                    3D
 Schrodinger Suite 2021-1.
 47 50  0  0  1  0            999 V2000
   11.5116   -4.1673   17.2818 C   0  0  0  0  0  0
   10.9390   -3.9838   18.5449 C   0  0  0  0  0  0
   10.1237   -4.9628   19.0985 C   0  0  0  0  0  0
    9.8468   -6.1339   18.3924 C   0  0  0  0  0  0
   10.4104   -6.3249   17.1267 C   0  0  0  0  0  0
   11.2446   -5.3494   16.5850 C   0  0  0  0  0  0
    7.4906    3.5054   17.1260 C   0  0  0  0  0  0
    7.7916    2.2710   17.7200 C   0  0  0  0  0  0
    6.8084    1.2592   17.7661 C   0  0  0  0  0  0
    5.5511    1.4474   17.1833 C   0  0  0  0  0  0
    9.1841    2.0344   18.1885 C   0  0  0  0  0  0
    9.8498    0.4279   18.1863 S   0  0  0  0  0  0
   11.4107    1.1023   18.5222 C   0  0  0  0  0  0
   11.3983    2.3884   18.7608 N   0  0  0  0  0  0
   10.1957    2.9091   18.5928 C   0  0  0  0  0  0
   12.5633    0.3564   18.4979 N   0  0  0  0  0  0
   12.7616   -1.0696   18.2153 C   0  0  0  0  0  0
   12.0920   -1.6469   16.9324 C   0  0  2  0  0  0
   12.4416   -3.1298   16.6474 C   0  0  0  0  0  0
   12.4838   -0.8458   15.7851 N   0  0  0  0  0  0
    5.7091    4.7937   16.0096 O   0  0  0  0  0  0
    6.2222    3.6763   16.5872 C   0  0  0  0  0  0
    5.2797    2.6864   16.6151 C   0  0  0  0  0  0
    4.1549    3.2364   16.0707 N   0  0  0  0  0  0
    4.3885    4.5724   15.7850 C   0  0  0  0  0  0
    8.9190   -7.1668   19.0210 C   0  0  0  0  0  0
    8.6254   -8.1659   18.1848 F   0  0  0  0  0  0
    9.5012   -7.6858   20.1013 F   0  0  0  0  0  0
    7.7862   -6.5641   19.3908 F   0  0  0  0  0  0
    3.6172    5.4321   15.3850 O   0  0  0  0  0  0
   11.0940   -3.0869   19.1184 H   0  0  0  0  0  0
    9.6873   -4.7958   20.0758 H   0  0  0  0  0  0
   10.2136   -7.2281   16.5645 H   0  0  0  0  0  0
   11.6949   -5.5200   15.6187 H   0  0  0  0  0  0
    8.2261    4.2941   17.0795 H   0  0  0  0  0  0
    7.0277    0.3117   18.2400 H   0  0  0  0  0  0
    4.8062    0.6673   17.2240 H   0  0  0  0  0  0
   10.0775    3.9743   18.7329 H   0  0  0  0  0  0
   13.3928    0.7817   18.8879 H   0  0  0  0  0  0
   12.4728   -1.6181   19.1077 H   0  0  0  0  0  0
   13.8312   -1.2229   18.1289 H   0  0  0  0  0  0
   11.0084   -1.5849   16.9974 H   0  0  0  0  0  0
   13.4685   -3.3497   16.9411 H   0  0  0  0  0  0
   12.4026   -3.3011   15.5691 H   0  0  0  0  0  0
   12.4536    0.1300   16.0502 H   0  0  0  0  0  0
   13.4333   -1.0498   15.5104 H   0  0  0  0  0  0
    3.2492    2.8048   15.9827 H   0  0  0  0  0  0
  1 19  1  0  0  0
  1  6  1  0  0  0
  1  2  2  0  0  0
  2  3  1  0  0  0
  2 31  1  0  0  0
  3  4  2  0  0  0
  3 32  1  0  0  0
  4  5  1  0  0  0
  4 26  1  0  0  0
  5  6  2  0  0  0
  5 33  1  0  0  0
  6 34  1  0  0  0
  7  8  1  0  0  0
  7 22  2  0  0  0
  7 35  1  0  0  0
  8  9  2  0  0  0
  8 11  1  0  0  0
  9 10  1  0  0  0
  9 36  1  0  0  0
 10 23  2  0  0  0
 10 37  1  0  0  0
 11 15  2  0  0  0
 11 12  1  0  0  0
 12 13  1  0  0  0
 13 14  2  0  0  0
 13 16  1  0  0  0
 14 15  1  0  0  0
 15 38  1  0  0  0
 16 17  1  0  0  0
 16 39  1  0  0  0
 17 18  1  0  0  0
 17 40  1  0  0  0
 17 41  1  0  0  0
 18 19  1  0  0  0
 18 20  1  0  0  0
 18 42  1  0  0  0
 19 43  1  0  0  0
 19 44  1  0  0  0
 20 45  1  0  0  0
 20 46  1  0  0  0
 21 22  1  0  0  0
 21 25  1  0  0  0
 22 23  1  0  0  0
 23 24  1  0  0  0
 24 25  1  0  0  0
 24 47  1  0  0  0
 25 30  2  0  0  0
 26 27  1  0  0  0
 26 28  1  0  0  0
 26 29  1  0  0  0
M  END
> <s_m_entry_id>
2381

> <s_m_entry_name>
dock_pv.120

> <s_m_Source_Path>
/home/csk/Desktop/cluster/DUD-E-result/akt1

> <s_m_Source_File>
dock_pv.maegz

> <i_m_Source_File_Index>
120

> <chembl_id>
CHEMBL1081852

> <chembl_pref_name>
None

> <i_lp_mmshare_version>
53161

> <i_f3d_flags>
0

> <r_lp_tautomer_probability>
1

> <s_lp_Force_Field>
OPLS_2005

> <r_lp_Energy>
29.017572

> <b_lp_Chiralities_Consistent>
1

> <s_lp_Variant>
CHEMBL4282_lig837-1

> <s_i_glide_gridfile>
glide-grid_3cqw

> <i_i_glide_lignum>
1222

> <i_i_glide_rotatable_bonds>
7

> <r_i_docking_score>
-7.00274383422168

> <r_i_glide_ligand_efficiency>
-0.233424794474056

> <r_i_glide_ligand_efficiency_sa>
-0.725305108263083

> <r_i_glide_ligand_efficiency_ln>
-1.59109970014047

> <r_i_glide_gscore>
-7.00274383422168

> <r_i_glide_lipo>
-2.26323788907309

> <r_i_glide_hbond>
-0.477947587556291

> <r_i_glide_metal>
0

> <r_i_glide_rewards>
-1.77228558487275

> <r_i_glide_evdw>
-47.2940788269043

> <r_i_glide_ecoul>
-5.05135774612427

> <r_i_glide_erotb>
0.633134830544305

> <r_i_glide_esite>
0

> <r_i_glide_emodel>
-71.0943734488335

> <r_i_glide_energy>
-52.3454365730286

> <r_i_glide_einternal>
4.51779747009277

> <i_i_glide_confnum>
24

> <i_i_glide_posenum>
38

> <r_i_glide_eff_state_penalty>
0

> <s_user_duplicate_titles>
CHEMBL4282_lig837,613113

> <s_m_subgroup_title>
dock_pv

> <s_m_subgroupid>
dock_pv

> <b_m_subgroup_collapsed>
1

$$$$
CHEMBL4282_lig2259
                    3D
 Schrodinger Suite 2021-1.
 48 51  0  0  1  0            999 V2000
    9.9855    1.9582   21.4589 C   0  0  0  0  0  0
   10.5561    1.1327   20.3746 N   0  0  0  0  0  0
   10.8267   -0.1778   20.6955 C   0  0  0  0  0  0
   10.6316   -0.7119   21.7874 O   0  0  0  0  0  0
   11.4477   -0.9215   19.6248 C   0  0  0  0  0  0
   11.7888   -0.3233   18.4610 C   0  0  0  0  0  0
   11.4674    0.9877   18.2277 N   0  0  0  0  0  0
   10.8453    1.6754   19.1302 C   0  0  0  0  0  0
   10.3947    3.0958   18.7757 C   0  0  0  0  0  0
    9.0859    3.3135   17.9590 C   0  0  0  0  0  0
    9.0250    4.4274   17.4369 O   0  0  0  0  0  0
    8.0659    2.4079   17.7854 N   0  0  0  0  0  0
    8.0096    1.0551   18.3639 C   0  0  0  0  0  0
    6.7800    0.3780   17.7829 C   0  0  0  0  0  0
    6.0346    1.5061   17.1497 C   0  0  0  0  0  0
    4.7818    1.4934   16.5348 C   0  0  0  0  0  0
    4.2740    2.6638   15.9721 C   0  0  0  0  0  0
    3.0515    2.6561   15.3955 F   0  0  0  0  0  0
    5.0294    3.8367   16.0018 C   0  0  0  0  0  0
    4.5382    4.9761   15.4599 F   0  0  0  0  0  0
    6.2994    3.8364   16.5843 C   0  0  0  0  0  0
    6.8160    2.6625   17.1571 C   0  0  0  0  0  0
   12.4201   -0.9958   17.4135 N   0  0  0  0  0  0
   12.9924   -2.3525   17.4874 C   0  0  0  0  0  0
   12.0679   -3.3608   16.7684 C   0  0  0  0  0  0
   11.9481   -2.9932   15.3964 O   0  0  0  0  0  0
   11.4271   -1.6755   15.2447 C   0  0  0  0  0  0
   12.3192   -0.6498   15.9834 C   0  0  0  0  0  0
    9.8327    1.4386   22.4038 H   0  0  0  0  0  0
   10.6548    2.7877   21.6862 H   0  0  0  0  0  0
    9.0240    2.3818   21.1682 H   0  0  0  0  0  0
   11.6310   -1.9614   19.8210 H   0  0  0  0  0  0
   11.2028    3.5616   18.2151 H   0  0  0  0  0  0
   10.3221    3.7276   19.6592 H   0  0  0  0  0  0
    8.8782    0.4184   18.2285 H   0  0  0  0  0  0
    7.8447    1.1897   19.4326 H   0  0  0  0  0  0
    6.2321   -0.1654   18.5519 H   0  0  0  0  0  0
    7.0922   -0.3396   17.0248 H   0  0  0  0  0  0
    4.1870    0.5924   16.5015 H   0  0  0  0  0  0
    6.8500    4.7615   16.5715 H   0  0  0  0  0  0
   14.0421   -2.3859   17.1983 H   0  0  0  0  0  0
   13.0628   -2.6682   18.5270 H   0  0  0  0  0  0
   11.0899   -3.4186   17.2512 H   0  0  0  0  0  0
   12.4903   -4.3628   16.8269 H   0  0  0  0  0  0
   10.4008   -1.6229   15.6086 H   0  0  0  0  0  0
   11.3783   -1.4316   14.1852 H   0  0  0  0  0  0
   11.8297    0.3171   15.8798 H   0  0  0  0  0  0
   13.2867   -0.4281   15.5339 H   0  0  0  0  0  0
  1  2  1  0  0  0
  1 29  1  0  0  0
  1 30  1  0  0  0
  1 31  1  0  0  0
  2  3  1  0  0  0
  2  8  1  0  0  0
  3  4  2  0  0  0
  3  5  1  0  0  0
  5  6  2  0  0  0
  5 32  1  0  0  0
  6  7  1  0  0  0
  6 23  1  0  0  0
  7  8  2  0  0  0
  8  9  1  0  0  0
  9 10  1  0  0  0
  9 33  1  0  0  0
  9 34  1  0  0  0
 10 11  2  0  0  0
 10 12  1  0  0  0
 12 13  1  0  0  0
 12 22  1  0  0  0
 13 14  1  0  0  0
 13 35  1  0  0  0
 13 36  1  0  0  0
 14 15  1  0  0  0
 14 37  1  0  0  0
 14 38  1  0  0  0
 15 16  2  0  0  0
 15 22  1  0  0  0
 16 17  1  0  0  0
 16 39  1  0  0  0
 17 18  1  0  0  0
 17 19  2  0  0  0
 19 20  1  0  0  0
 19 21  1  0  0  0
 21 22  2  0  0  0
 21 40  1  0  0  0
 23 24  1  0  0  0
 23 28  1  0  0  0
 24 25  1  0  0  0
 24 41  1  0  0  0
 24 42  1  0  0  0
 25 26  1  0  0  0
 25 43  1  0  0  0
 25 44  1  0  0  0
 26 27  1  0  0  0
 27 28  1  0  0  0
 27 45  1  0  0  0
 27 46  1  0  0  0
 28 47  1  0  0  0
 28 48  1  0  0  0
M  END
> <s_m_entry_id>
2382

> <s_m_entry_name>
dock_pv.121

> <s_m_Source_Path>
/home/csk/Desktop/cluster/DUD-E-result/akt1

> <s_m_Source_File>
dock_pv.maegz

> <i_m_Source_File_Index>
121

> <chembl_id>
CHEMBL3699789

> <chembl_pref_name>
None

> <i_lp_mmshare_version>
53161

> <i_f3d_flags>
0

> <r_lp_tautomer_probability>
1

> <s_lp_Force_Field>
OPLS_2005

> <r_lp_Energy>
59.908487

> <b_lp_Chiralities_Consistent>
1

> <s_lp_Variant>
CHEMBL4282_lig2259-1

> <s_i_glide_gridfile>
glide-grid_3cqw

> <i_i_glide_lignum>
2999

> <i_i_glide_rotatable_bonds>
4

> <r_i_docking_score>
-7.00097777912298

> <r_i_glide_ligand_efficiency>
-0.250034920682964

> <r_i_glide_ligand_efficiency_sa>
-0.759253281886365

> <r_i_glide_ligand_efficiency_ln>
-1.61603122906122

> <r_i_glide_gscore>
-7.00097777912298

> <r_i_glide_lipo>
-2.08933926597693

> <r_i_glide_hbond>
-0.32

> <r_i_glide_metal>
0

> <r_i_glide_rewards>
-2.11506238686218

> <r_i_glide_evdw>
-45.1168746948242

> <r_i_glide_ecoul>
-4.54824781417847

> <r_i_glide_erotb>
0.511915125789154

> <r_i_glide_esite>
-0.0504103452050458

> <r_i_glide_emodel>
-69.240514544808

> <r_i_glide_energy>
-49.6651225090027

> <r_i_glide_einternal>
5.72878551483154

> <i_i_glide_confnum>
37

> <i_i_glide_posenum>
281

> <r_i_glide_eff_state_penalty>
0

> <s_user_duplicate_titles>
CHEMBL4282_lig2259

> <s_m_subgroup_title>
dock_pv

> <s_m_subgroupid>
dock_pv

> <b_m_subgroup_collapsed>
1

$$$$
CHEMBL4282_lig3241
                    3D
 Schrodinger Suite 2021-1.
 45 47  0  0  1  0            999 V2000
   11.7905    1.9509   18.4408 O   0  0  0  0  0  0
   10.6280   -1.4091   21.7859 O   0  0  0  0  0  0
   10.7647    0.1461   19.3330 N   0  0  0  0  0  0
    3.1314    4.2365   15.7250 N   0  0  0  0  0  0
    6.9467    2.7547   17.1350 C   0  0  0  0  0  0
    9.4156    1.8177   18.1672 C   0  0  0  0  0  0
    5.6437    3.2499   16.5805 C   0  0  0  0  0  0
   10.7570    1.3199   18.6714 C   0  0  0  0  0  0
    7.0067    1.6092   17.9421 C   0  0  0  0  0  0
    8.1428    3.4369   16.8815 C   0  0  0  0  0  0
    8.2200    1.1365   18.4357 C   0  0  0  0  0  0
    9.3501    2.9879   17.4015 C   0  0  0  0  0  0
   11.9398   -0.5408   19.8954 C   0  0  2  0  0  0
    4.5327    2.4008   16.4382 C   0  0  0  0  0  0
    5.4743    4.5893   16.1850 C   0  0  0  0  0  0
   13.0274   -0.9220   18.8481 C   0  0  0  0  0  0
   12.5347   -1.7356   17.6540 C   0  0  0  0  0  0
    3.3057    2.9267   16.0251 C   0  0  0  0  0  0
    4.2186    5.0415   15.7849 C   0  0  0  0  0  0
   11.5178   -1.7655   20.7445 C   0  0  0  0  0  0
   12.4433   -3.1283   17.7371 C   0  0  0  0  0  0
   12.1829   -1.0819   16.4703 C   0  0  0  0  0  0
   11.9814   -3.8620   16.6465 C   0  0  0  0  0  0
   11.7241   -1.8175   15.3831 C   0  0  0  0  0  0
   11.6238   -3.2023   15.4734 C   0  0  0  0  0  0
   10.0382   -2.1534   21.9449 H   0  0  0  0  0  0
    9.8747   -0.2670   19.5741 H   0  0  0  0  0  0
    6.1126    1.0661   18.2067 H   0  0  0  0  0  0
    8.1629    4.3268   16.2732 H   0  0  0  0  0  0
    8.2057    0.2359   19.0320 H   0  0  0  0  0  0
   10.2311    3.5700   17.1915 H   0  0  0  0  0  0
   12.4115    0.1561   20.5929 H   0  0  0  0  0  0
    4.5925    1.3505   16.6794 H   0  0  0  0  0  0
    6.2784    5.3047   16.2420 H   0  0  0  0  0  0
   13.8378   -1.4661   19.3348 H   0  0  0  0  0  0
   13.5030   -0.0173   18.4670 H   0  0  0  0  0  0
    2.4292    2.2981   15.9445 H   0  0  0  0  0  0
    4.0701    6.0801   15.5281 H   0  0  0  0  0  0
   11.0215   -2.5132   20.1252 H   0  0  0  0  0  0
   12.3847   -2.2333   21.2118 H   0  0  0  0  0  0
   12.7187   -3.6411   18.6471 H   0  0  0  0  0  0
   12.2545   -0.0061   16.3954 H   0  0  0  0  0  0
   11.8969   -4.9373   16.7105 H   0  0  0  0  0  0
   11.4459   -1.3186   14.4685 H   0  0  0  0  0  0
   11.2651   -3.7642   14.6245 H   0  0  0  0  0  0
  1  8  2  0  0  0
  2 20  1  0  0  0
  2 26  1  0  0  0
  3  8  1  0  0  0
  3 13  1  0  0  0
  3 27  1  0  0  0
  4 18  2  0  0  0
  4 19  1  0  0  0
  5  7  1  0  0  0
  5  9  2  0  0  0
  5 10  1  0  0  0
  6  8  1  0  0  0
  6 11  2  0  0  0
  6 12  1  0  0  0
  7 14  2  0  0  0
  7 15  1  0  0  0
  9 11  1  0  0  0
  9 28  1  0  0  0
 10 12  2  0  0  0
 10 29  1  0  0  0
 11 30  1  0  0  0
 12 31  1  0  0  0
 13 16  1  0  0  0
 13 20  1  0  0  0
 13 32  1  0  0  0
 14 18  1  0  0  0
 14 33  1  0  0  0
 15 19  2  0  0  0
 15 34  1  0  0  0
 16 17  1  0  0  0
 16 35  1  0  0  0
 16 36  1  0  0  0
 17 21  2  0  0  0
 17 22  1  0  0  0
 18 37  1  0  0  0
 19 38  1  0  0  0
 20 39  1  0  0  0
 20 40  1  0  0  0
 21 23  1  0  0  0
 21 41  1  0  0  0
 22 24  2  0  0  0
 22 42  1  0  0  0
 23 25  2  0  0  0
 23 43  1  0  0  0
 24 25  1  0  0  0
 24 44  1  0  0  0
 25 45  1  0  0  0
M  END
> <s_m_entry_id>
2383

> <s_m_entry_name>
dock_pv.122

> <s_m_Source_Path>
/home/csk/Desktop/cluster/DUD-E-result/akt1

> <s_m_Source_File>
dock_pv.maegz

> <i_m_Source_File_Index>
122

> <chembl_id>
CHEMBL1998545

> <chembl_pref_name>
None

> <i_lp_mmshare_version>
53161

> <i_f3d_flags>
0

> <r_lp_tautomer_probability>
1

> <s_lp_Force_Field>
OPLS_2005

> <r_lp_Energy>
17.302386

> <b_lp_Chiralities_Consistent>
1

> <s_lp_Variant>
CHEMBL4282_lig3241-1

> <s_i_glide_gridfile>
glide-grid_3cqw

> <i_i_glide_lignum>
4228

> <i_i_glide_rotatable_bonds>
8

> <r_i_docking_score>
-6.99094391523634

> <r_i_glide_ligand_efficiency>
-0.279637756609453

> <r_i_glide_ligand_efficiency_sa>
-0.817665759722772

> <r_i_glide_ligand_efficiency_ln>
-1.6570632095944

> <r_i_glide_gscore>
-6.99094391523634

> <r_i_glide_lipo>
-3.02474446460713

> <r_i_glide_hbond>
-0.50197235053484

> <r_i_glide_metal>
0

> <r_i_glide_rewards>
-1.81775463735254

> <r_i_glide_evdw>
-43.0376663208008

> <r_i_glide_ecoul>
-3.14816904067993

> <r_i_glide_erotb>
1.02277610095143

> <r_i_glide_esite>
-0.0451398915512264

> <r_i_glide_emodel>
-66.1937995445086

> <r_i_glide_energy>
-46.1858353614807

> <r_i_glide_einternal>
1.95469832420349

> <i_i_glide_confnum>
56

> <i_i_glide_posenum>
295

> <r_i_glide_eff_state_penalty>
0

> <s_user_duplicate_titles>
CHEMBL4282_lig3241

> <s_m_subgroup_title>
dock_pv

> <s_m_subgroupid>
dock_pv

> <b_m_subgroup_collapsed>
1

$$$$
CHEMBL4282_lig3215
                    3D
 Schrodinger Suite 2021-1.
 32 33  0  0  1  0            999 V2000
    4.3364   -0.6622   16.9844 I   0  0  0  0  0  0
    9.9764    4.1982   18.9851 O   0  0  0  0  0  0
    9.4269    2.2371   21.0560 O   0  0  0  0  0  0
    7.1155    2.7020   17.1760 N   0  0  0  0  0  0
    5.9957    4.6374   16.1850 N   0  0  0  0  0  0
    3.6457    4.2864   15.6681 N   0  0  0  0  0  0
    2.6309    2.1981   15.7850 N   0  0  0  0  0  0
   10.2312   -0.1686   19.6444 N   0  0  0  0  0  0
    4.9567    2.4349   16.4951 C   0  0  0  0  0  0
    6.0387    3.3586   16.5896 C   0  0  0  0  0  0
    5.4541    1.1678   16.9586 C   0  0  0  0  0  0
    3.7579    2.9760   15.9895 C   0  0  0  0  0  0
    6.7462    1.3866   17.3851 C   0  0  0  0  0  0
    8.4410    3.2758   17.4425 C   0  0  0  0  0  0
    8.8103    3.3851   18.9515 C   0  0  1  0  0  0
    4.7654    5.0370   15.7751 C   0  0  0  0  0  0
    9.0558    2.0307   19.6959 C   0  0  1  0  0  0
   10.1440    1.1466   19.0326 C   0  0  0  0  0  0
   10.1222    4.5088   19.8932 H   0  0  0  0  0  0
    9.4292    3.1805   21.2760 H   0  0  0  0  0  0
    2.6530    1.2222   16.0393 H   0  0  0  0  0  0
    1.7889    2.6383   15.4291 H   0  0  0  0  0  0
   10.4027   -0.0245   20.6299 H   0  0  0  0  0  0
    9.3441   -0.6667   19.6034 H   0  0  0  0  0  0
    7.4506    0.6822   17.8030 H   0  0  0  0  0  0
    8.4661    4.2727   16.9979 H   0  0  0  0  0  0
    9.1784    2.6996   16.8849 H   0  0  0  0  0  0
    8.0183    3.9362   19.4633 H   0  0  0  0  0  0
    4.6628    6.0756   15.4966 H   0  0  0  0  0  0
    8.1135    1.4849   19.7413 H   0  0  0  0  0  0
   11.1179    1.6342   19.0907 H   0  0  0  0  0  0
    9.9308    0.9926   17.9764 H   0  0  0  0  0  0
  1 11  1  0  0  0
  2 15  1  0  0  0
  2 19  1  0  0  0
  3 17  1  0  0  0
  3 20  1  0  0  0
  4 10  1  0  0  0
  4 13  1  0  0  0
  4 14  1  0  0  0
  5 10  2  0  0  0
  5 16  1  0  0  0
  6 12  1  0  0  0
  6 16  2  0  0  0
  7 12  1  0  0  0
  7 21  1  0  0  0
  7 22  1  0  0  0
  8 18  1  0  0  0
  8 23  1  0  0  0
  8 24  1  0  0  0
  9 10  1  0  0  0
  9 11  1  0  0  0
  9 12  2  0  0  0
 11 13  2  0  0  0
 13 25  1  0  0  0
 14 15  1  0  0  0
 14 26  1  0  0  0
 14 27  1  0  0  0
 15 17  1  0  0  0
 15 28  1  0  0  0
 16 29  1  0  0  0
 17 18  1  0  0  0
 17 30  1  0  0  0
 18 31  1  0  0  0
 18 32  1  0  0  0
M  END
> <s_m_entry_id>
2384

> <s_m_entry_name>
dock_pv.123

> <s_m_Source_Path>
/home/csk/Desktop/cluster/DUD-E-result/akt1

> <s_m_Source_File>
dock_pv.maegz

> <i_m_Source_File_Index>
123

> <chembl_id>
CHEMBL1975534

> <chembl_pref_name>
None

> <i_lp_mmshare_version>
53161

> <i_f3d_flags>
0

> <r_lp_tautomer_probability>
1

> <s_lp_Force_Field>
OPLS_2005

> <r_lp_Energy>
21.037764

> <b_lp_Chiralities_Consistent>
1

> <s_lp_Variant>
CHEMBL4282_lig3215-4

> <s_i_glide_gridfile>
glide-grid_3cqw

> <i_i_glide_lignum>
4194

> <i_i_glide_rotatable_bonds>
6

> <r_i_docking_score>
-6.9837724515189

> <r_i_glide_ligand_efficiency>
-0.387987358417717

> <r_i_glide_ligand_efficiency_sa>
-1.01681452965542

> <r_i_glide_ligand_efficiency_ln>
-1.79514269744123

> <r_i_glide_gscore>
-6.9837724515189

> <r_i_glide_lipo>
-1.1275519315016

> <r_i_glide_hbond>
-0.414235138029454

> <r_i_glide_metal>
0

> <r_i_glide_rewards>
-2.55834866812621

> <r_i_glide_evdw>
-33.687427520752

> <r_i_glide_ecoul>
-10.9083528518677

> <r_i_glide_erotb>
0.436987589956113

> <r_i_glide_esite>
0

> <r_i_glide_emodel>
-61.7429375814464

> <r_i_glide_energy>
-44.5957803726196

> <r_i_glide_einternal>
5.57587051391602

> <i_i_glide_confnum>
18

> <i_i_glide_posenum>
399

> <r_i_glide_eff_state_penalty>
0

> <s_user_duplicate_titles>
CHEMBL4282_lig3215

> <s_m_subgroup_title>
dock_pv

> <s_m_subgroupid>
dock_pv

> <b_m_subgroup_collapsed>
1

$$$$
CHEMBL4282_lig3337
                    3D
 Schrodinger Suite 2021-1.
 40 43  0  0  1  0            999 V2000
   10.1300    1.3352   18.7303 N   0  0  0  0  0  0
    9.3473    3.1368   17.7926 N   0  0  0  0  0  0
   10.4637    2.5852   18.3944 N   0  0  0  0  0  0
    3.2885    3.5190   15.7844 N   0  0  0  0  0  0
    3.4312    4.8300   15.5277 N   0  0  0  0  0  0
    7.0247    2.5060   17.1891 C   0  0  0  0  0  0
    8.3700    2.2380   17.7866 C   0  0  0  0  0  0
    5.3971    4.0195   16.2541 C   0  0  0  0  0  0
    4.4693    2.9527   16.2108 C   0  0  0  0  0  0
    6.6952    3.7883   16.7281 C   0  0  0  0  0  0
    8.8269    1.0761   18.4029 C   0  0  0  0  0  0
    6.0940    1.4632   17.0931 C   0  0  0  0  0  0
    4.8063    1.6516   16.5848 C   0  0  0  0  0  0
   11.4047   -0.7770   18.4054 C   0  0  0  0  0  0
   11.1073    0.4244   19.3045 C   0  0  0  0  0  0
    4.6671    5.1463   15.7849 C   0  0  0  0  0  0
   11.9937   -0.6417   17.1324 C   0  0  0  0  0  0
   11.0548   -2.0515   18.8615 C   0  0  0  0  0  0
   12.2141   -1.7755   16.3475 C   0  0  0  0  0  0
   11.8561   -3.0407   16.8101 C   0  0  0  0  0  0
   11.2838   -3.1771   18.0737 C   0  0  0  0  0  0
   12.4129    0.7099   16.5788 C   0  0  0  0  0  0
   12.1056   -4.2569   15.9456 C   0  0  0  0  0  0
    2.3943    3.0683   15.6458 H   0  0  0  0  0  0
    7.4052    4.6003   16.7919 H   0  0  0  0  0  0
    8.3745    0.1159   18.6148 H   0  0  0  0  0  0
    6.3585    0.4770   17.4450 H   0  0  0  0  0  0
    4.0933    0.8415   16.5531 H   0  0  0  0  0  0
   10.7267    0.1081   20.2780 H   0  0  0  0  0  0
   12.0341    0.9689   19.5044 H   0  0  0  0  0  0
    5.0189    6.1605   15.6742 H   0  0  0  0  0  0
   10.6008   -2.1790   19.8345 H   0  0  0  0  0  0
   12.6631   -1.6749   15.3715 H   0  0  0  0  0  0
   11.0018   -4.1500   18.4467 H   0  0  0  0  0  0
   11.5394    1.3041   16.3137 H   0  0  0  0  0  0
   12.9919    1.2652   17.3166 H   0  0  0  0  0  0
   13.0312    0.6099   15.6888 H   0  0  0  0  0  0
   11.2835   -4.3831   15.2472 H   0  0  0  0  0  0
   13.0296   -4.1468   15.3777 H   0  0  0  0  0  0
   12.2025   -5.1587   16.5496 H   0  0  0  0  0  0
  1  3  1  0  0  0
  1 11  1  0  0  0
  1 15  1  0  0  0
  2  3  2  0  0  0
  2  7  1  0  0  0
  4  5  1  0  0  0
  4  9  1  0  0  0
  4 24  1  0  0  0
  5 16  2  0  0  0
  6  7  1  0  0  0
  6 10  1  0  0  0
  6 12  2  0  0  0
  7 11  2  0  0  0
  8  9  1  0  0  0
  8 10  2  0  0  0
  8 16  1  0  0  0
  9 13  2  0  0  0
 10 25  1  0  0  0
 11 26  1  0  0  0
 12 13  1  0  0  0
 12 27  1  0  0  0
 13 28  1  0  0  0
 14 15  1  0  0  0
 14 17  1  0  0  0
 14 18  2  0  0  0
 15 29  1  0  0  0
 15 30  1  0  0  0
 16 31  1  0  0  0
 17 19  2  0  0  0
 17 22  1  0  0  0
 18 21  1  0  0  0
 18 32  1  0  0  0
 19 20  1  0  0  0
 19 33  1  0  0  0
 20 21  2  0  0  0
 20 23  1  0  0  0
 21 34  1  0  0  0
 22 35  1  0  0  0
 22 36  1  0  0  0
 22 37  1  0  0  0
 23 38  1  0  0  0
 23 39  1  0  0  0
 23 40  1  0  0  0
M  END
> <s_m_entry_id>
2385

> <s_m_entry_name>
dock_pv.124

> <s_m_Source_Path>
/home/csk/Desktop/cluster/DUD-E-result/akt1

> <s_m_Source_File>
dock_pv.maegz

> <i_m_Source_File_Index>
124

> <chembl_id>
CHEMBL1984432

> <chembl_pref_name>
None

> <i_lp_mmshare_version>
53161

> <i_f3d_flags>
0

> <r_lp_tautomer_probability>
0.980392156862745

> <s_lp_Force_Field>
OPLS_2005

> <r_lp_Energy>
13.070026

> <b_lp_Chiralities_Consistent>
1

> <s_lp_Variant>
CHEMBL4282_lig3337-1

> <s_i_glide_gridfile>
glide-grid_3cqw

> <i_i_glide_lignum>
4387

> <i_i_glide_rotatable_bonds>
3

> <r_i_docking_score>
-6.98258304839143

> <r_i_glide_ligand_efficiency>
-0.303590567321366

> <r_i_glide_ligand_efficiency_sa>
-0.863371188897272

> <r_i_glide_ligand_efficiency_ln>
-1.6884518956636

> <r_i_glide_gscore>
-6.98258304839143

> <r_i_glide_lipo>
-2.67604759987973

> <r_i_glide_hbond>
-0.32

> <r_i_glide_metal>
0

> <r_i_glide_rewards>
-2.30238657575758

> <r_i_glide_evdw>
-39.6155052185059

> <r_i_glide_ecoul>
-1.69237816333771

> <r_i_glide_erotb>
0.600666603326994

> <r_i_glide_esite>
-0.0501834906551645

> <r_i_glide_emodel>
-57.1219971562914

> <r_i_glide_energy>
-41.3078833818436

> <r_i_glide_einternal>
1.81267595291138

> <i_i_glide_confnum>
1

> <i_i_glide_posenum>
26

> <r_i_glide_eff_state_penalty>
0

> <s_user_duplicate_titles>
CHEMBL4282_lig3337

> <s_m_subgroup_title>
dock_pv

> <s_m_subgroupid>
dock_pv

> <b_m_subgroup_collapsed>
1

$$$$
CHEMBL4282_lig537
                    3D
 Schrodinger Suite 2021-1.
 45 48  0  0  1  0            999 V2000
    8.1746    3.5375   16.9770 C   0  0  0  0  0  0
    9.4402    3.6385   17.5477 C   0  0  0  0  0  0
    9.7469    2.5732   18.3718 C   0  0  0  0  0  0
    8.4086    1.4690   18.5015 S   0  0  0  0  0  0
    7.4506    2.4175   17.3849 C   0  0  0  0  0  0
   10.9453    2.3904   19.0118 N   0  0  0  0  0  0
   11.4010    1.2714   19.8303 C   0  0  0  0  0  0
   12.7403    0.6395   19.3602 C   0  0  2  0  0  0
   13.8490    1.6587   18.9850 C   0  0  0  0  0  0
   12.5377   -0.4022   18.2523 C   0  0  0  0  0  0
   12.2338   -0.0071   16.9445 C   0  0  0  0  0  0
   12.0784   -0.9631   15.9439 C   0  0  0  0  0  0
   12.2232   -2.3139   16.2456 C   0  0  0  0  0  0
   12.5186   -2.7189   17.5444 C   0  0  0  0  0  0
   12.6727   -1.7644   18.5463 C   0  0  0  0  0  0
   14.2167    2.5147   20.0996 N   0  0  0  0  0  0
    6.0794    1.9763   16.9576 C   0  0  0  0  0  0
    3.4345    1.1382   16.1841 N   0  0  0  0  0  0
    4.3964    0.2673   16.5854 C   0  0  0  0  0  0
    5.6850    0.6301   16.9849 C   0  0  0  0  0  0
    3.8290    2.4139   16.1372 C   0  0  0  0  0  0
    5.1286    2.9039   16.4679 C   0  0  0  0  0  0
    5.1003    4.3117   16.1851 C   0  0  0  0  0  0
    3.8261    4.6306   15.7850 C   0  0  0  0  0  0
    3.0505    3.4934   15.7746 N   0  0  0  0  0  0
    7.8219    4.2606   16.2616 H   0  0  0  0  0  0
   10.1227    4.4486   17.3376 H   0  0  0  0  0  0
   11.6178    3.1425   18.9957 H   0  0  0  0  0  0
   10.6348    0.4980   19.8964 H   0  0  0  0  0  0
   11.5114    1.6545   20.8452 H   0  0  0  0  0  0
   13.1240    0.0890   20.2219 H   0  0  0  0  0  0
   14.7427    1.1322   18.6459 H   0  0  0  0  0  0
   13.5315    2.2884   18.1534 H   0  0  0  0  0  0
   12.1122    1.0394   16.7040 H   0  0  0  0  0  0
   11.8318   -0.6559   14.9394 H   0  0  0  0  0  0
   12.1007   -3.0549   15.4693 H   0  0  0  0  0  0
   12.6231   -3.7681   17.7775 H   0  0  0  0  0  0
   12.8988   -2.0879   19.5518 H   0  0  0  0  0  0
   13.4116    3.0148   20.4539 H   0  0  0  0  0  0
   14.5744    1.9674   20.8697 H   0  0  0  0  0  0
    4.0912   -0.7689   16.6182 H   0  0  0  0  0  0
    6.3645   -0.1336   17.3298 H   0  0  0  0  0  0
    5.8881    5.0378   16.2998 H   0  0  0  0  0  0
    3.4312    5.5901   15.4982 H   0  0  0  0  0  0
    2.0749    3.4773   15.4952 H   0  0  0  0  0  0
  1  5  2  0  0  0
  1  2  1  0  0  0
  1 26  1  0  0  0
  2  3  2  0  0  0
  2 27  1  0  0  0
  3  6  1  0  0  0
  3  4  1  0  0  0
  4  5  1  0  0  0
  5 17  1  0  0  0
  6  7  1  0  0  0
  6 28  1  0  0  0
  7  8  1  0  0  0
  7 29  1  0  0  0
  7 30  1  0  0  0
  8  9  1  0  0  0
  8 10  1  0  0  0
  8 31  1  0  0  0
  9 16  1  0  0  0
  9 32  1  0  0  0
  9 33  1  0  0  0
 10 15  1  0  0  0
 10 11  2  0  0  0
 11 12  1  0  0  0
 11 34  1  0  0  0
 12 13  2  0  0  0
 12 35  1  0  0  0
 13 14  1  0  0  0
 13 36  1  0  0  0
 14 15  2  0  0  0
 14 37  1  0  0  0
 15 38  1  0  0  0
 16 39  1  0  0  0
 16 40  1  0  0  0
 17 22  2  0  0  0
 17 20  1  0  0  0
 18 21  2  0  0  0
 18 19  1  0  0  0
 19 20  2  0  0  0
 19 41  1  0  0  0
 20 42  1  0  0  0
 21 22  1  0  0  0
 21 25  1  0  0  0
 22 23  1  0  0  0
 23 24  2  0  0  0
 23 43  1  0  0  0
 24 25  1  0  0  0
 24 44  1  0  0  0
 25 45  1  0  0  0
M  END
> <s_m_entry_id>
2386

> <s_m_entry_name>
dock_pv.125

> <s_m_Source_Path>
/home/csk/Desktop/cluster/DUD-E-result/akt1

> <s_m_Source_File>
dock_pv.maegz

> <i_m_Source_File_Index>
125

> <chembl_id>
CHEMBL469561

> <chembl_pref_name>
None

> <i_lp_mmshare_version>
53161

> <i_f3d_flags>
0

> <r_lp_tautomer_probability>
0.999998432528457

> <s_lp_Force_Field>
OPLS_2005

> <r_lp_Energy>
15.08206

> <b_lp_Chiralities_Consistent>
1

> <s_lp_Variant>
CHEMBL4282_lig537-1

> <s_i_glide_gridfile>
glide-grid_3cqw

> <i_i_glide_lignum>
721

> <i_i_glide_rotatable_bonds>
6

> <r_i_docking_score>
-6.98105684065674

> <r_i_glide_ligand_efficiency>
-0.27924227362627

> <r_i_glide_ligand_efficiency_sa>
-0.816509360466023

> <r_i_glide_ligand_efficiency_ln>
-1.65471967662732

> <r_i_glide_gscore>
-6.98105684065674

> <r_i_glide_lipo>
-2.75924918785247

> <r_i_glide_hbond>
-0.296223353208532

> <r_i_glide_metal>
0

> <r_i_glide_rewards>
-2.32868940576768

> <r_i_glide_evdw>
-45.8142433166504

> <r_i_glide_ecoul>
0.705867290496826

> <r_i_glide_erotb>
0.627100328640213

> <r_i_glide_esite>
-0.0391631502102791

> <r_i_glide_emodel>
-61.1605022369493

> <r_i_glide_energy>
-45.1083760261536

> <r_i_glide_einternal>
5.6691312789917

> <i_i_glide_confnum>
17

> <i_i_glide_posenum>
341

> <r_i_glide_eff_state_penalty>
0

> <s_user_duplicate_titles>
CHEMBL4282_lig537

> <s_m_subgroup_title>
dock_pv

> <s_m_subgroupid>
dock_pv

> <b_m_subgroup_collapsed>
1

$$$$
CHEMBL4282_lig3612
                    3D
 Schrodinger Suite 2021-1.
 32 34  0  0  1  0            999 V2000
    4.2912   -0.6435   16.9850 I   0  0  0  0  0  0
    9.3204    1.9292   17.3850 O   0  0  0  0  0  0
    7.5822    2.6370   19.9828 O   0  0  0  0  0  0
   10.3245    2.6370   20.7511 O   0  0  0  0  0  0
    9.8310   -0.8230   18.1850 O   0  0  0  0  0  0
    7.0841    2.5335   17.1884 N   0  0  0  0  0  0
    6.6459    1.2693   17.4171 N   0  0  0  0  0  0
    6.1132    4.5816   16.2248 N   0  0  0  0  0  0
    3.7528    4.3410   15.6505 N   0  0  0  0  0  0
    2.6310    2.2913   15.7850 N   0  0  0  0  0  0
    8.4007    2.9549   17.6516 C   0  0  1  0  0  0
    6.0823    3.2926   16.5977 C   0  0  0  0  0  0
    4.9620    2.4349   16.4771 C   0  0  0  0  0  0
    8.5338    3.2920   19.1536 C   0  0  2  0  0  0
    5.4310    1.1723   16.9523 C   0  0  0  0  0  0
    9.9771    2.8437   19.3913 C   0  0  2  0  0  0
   10.1580    1.6166   18.4904 C   0  0  1  0  0  0
    3.7932    3.0241   15.9687 C   0  0  0  0  0  0
    4.9092    5.0370   15.7850 C   0  0  0  0  0  0
    9.6947    0.2631   19.0840 C   0  0  0  0  0  0
    7.7793    2.8504   20.8997 H   0  0  0  0  0  0
   10.2310    3.4982   21.2120 H   0  0  0  0  0  0
    9.3448   -1.5550   18.5955 H   0  0  0  0  0  0
    2.6159    1.3186   16.0486 H   0  0  0  0  0  0
    1.8021    2.7585   15.4308 H   0  0  0  0  0  0
    8.6780    3.8150   17.0394 H   0  0  0  0  0  0
    8.4391    4.3713   19.2864 H   0  0  0  0  0  0
   10.6345    3.6244   19.0013 H   0  0  0  0  0  0
   11.2024    1.5607   18.1806 H   0  0  0  0  0  0
    4.8580    6.0835   15.5264 H   0  0  0  0  0  0
    8.6479    0.3160   19.3850 H   0  0  0  0  0  0
   10.2587    0.0324   19.9882 H   0  0  0  0  0  0
  1 15  1  0  0  0
  2 11  1  0  0  0
  2 17  1  0  0  0
  3 14  1  0  0  0
  3 21  1  0  0  0
  4 16  1  0  0  0
  4 22  1  0  0  0
  5 20  1  0  0  0
  5 23  1  0  0  0
  6  7  1  0  0  0
  6 11  1  0  0  0
  6 12  1  0  0  0
  7 15  2  0  0  0
  8 12  1  0  0  0
  8 19  2  0  0  0
  9 18  2  0  0  0
  9 19  1  0  0  0
 10 18  1  0  0  0
 10 24  1  0  0  0
 10 25  1  0  0  0
 11 14  1  0  0  0
 11 26  1  0  0  0
 12 13  2  0  0  0
 13 15  1  0  0  0
 13 18  1  0  0  0
 14 16  1  0  0  0
 14 27  1  0  0  0
 16 17  1  0  0  0
 16 28  1  0  0  0
 17 20  1  0  0  0
 17 29  1  0  0  0
 19 30  1  0  0  0
 20 31  1  0  0  0
 20 32  1  0  0  0
M  END
> <s_m_entry_id>
2387

> <s_m_entry_name>
dock_pv.126

> <s_m_Source_Path>
/home/csk/Desktop/cluster/DUD-E-result/akt1

> <s_m_Source_File>
dock_pv.maegz

> <i_m_Source_File_Index>
126

> <chembl_id>
CHEMBL2001288

> <chembl_pref_name>
None

> <i_lp_mmshare_version>
53161

> <i_f3d_flags>
0

> <r_lp_tautomer_probability>
1

> <s_lp_Force_Field>
OPLS_2005

> <r_lp_Energy>
37.55565

> <b_lp_Chiralities_Consistent>
1

> <s_lp_Variant>
CHEMBL4282_lig3612-10

> <s_i_glide_gridfile>
glide-grid_3cqw

> <i_i_glide_lignum>
4815

> <i_i_glide_rotatable_bonds>
5

> <r_i_docking_score>
-6.97731224182261

> <r_i_glide_ligand_efficiency>
-0.34886561209113

> <r_i_glide_ligand_efficiency_sa>
-0.94696696233871

> <r_i_glide_ligand_efficiency_ln>
-1.74619112696874

> <r_i_glide_gscore>
-6.97731224182261

> <r_i_glide_lipo>
-0.988904706143609

> <r_i_glide_hbond>
-0.288

> <r_i_glide_metal>
0

> <r_i_glide_rewards>
-2.48708750095319

> <r_i_glide_evdw>
-32.3061218261719

> <r_i_glide_ecoul>
-12.3383941650391

> <r_i_glide_erotb>
0.252745181338646

> <r_i_glide_esite>
0

> <r_i_glide_emodel>
-64.5043739742652

> <r_i_glide_energy>
-44.6445159912109

> <r_i_glide_einternal>
2.44854187965393

> <i_i_glide_confnum>
18

> <i_i_glide_posenum>
23

> <r_i_glide_eff_state_penalty>
0

> <s_user_duplicate_titles>
CHEMBL4282_lig3612

> <s_m_subgroup_title>
dock_pv

> <s_m_subgroupid>
dock_pv

> <b_m_subgroup_collapsed>
1

$$$$
CHEMBL4282_lig2343
                    3D
 Schrodinger Suite 2021-1.
 48 51  0  0  1  0            999 V2000
   10.8760    1.3791   21.3917 C   0  0  0  0  0  0
   10.2415    0.2528   20.5339 C   0  0  2  0  0  0
   10.8767   -1.1049   20.8684 C   0  0  0  0  0  0
   11.7046   -1.4387   19.6619 C   0  0  0  0  0  0
   12.5424   -2.5344   19.4314 C   0  0  0  0  0  0
   12.7670   -3.4376   20.4137 F   0  0  0  0  0  0
   13.1337   -2.7072   18.1769 C   0  0  0  0  0  0
   13.9479   -3.7630   17.9402 F   0  0  0  0  0  0
   12.8836   -1.7902   17.1566 C   0  0  0  0  0  0
   12.0470   -0.6974   17.3855 C   0  0  0  0  0  0
   11.4592   -0.5155   18.6478 C   0  0  0  0  0  0
   10.5301    0.4524   19.0957 N   0  0  0  0  0  0
   10.0428    1.5014   18.3711 C   0  0  0  0  0  0
   10.5233    1.8370   17.2882 O   0  0  0  0  0  0
    8.7912    2.2688   18.8511 C   0  0  0  0  0  0
    7.5638    1.7682   18.1014 C   0  0  0  0  0  0
    6.8347    2.5582   17.3850 N   0  0  0  0  0  0
    5.7705    2.0374   16.6918 C   0  0  0  0  0  0
    5.5290    0.7094   16.6524 C   0  0  0  0  0  0
    6.2310   -0.1630   17.5375 C   0  0  0  0  0  0
    5.8310   -1.2958   17.7850 O   0  0  0  0  0  0
    7.2454    0.4394   18.1850 N   0  0  0  0  0  0
    4.9491    2.9255   16.0287 N   0  0  0  0  0  0
    3.5308    2.6271   15.7412 C   0  0  0  0  0  0
    2.6446    3.7578   16.2737 C   0  0  0  0  0  0
    3.0310    4.9217   15.5461 O   0  0  0  0  0  0
    4.3335    5.3235   15.9105 C   0  0  0  0  0  0
    5.3513    4.2438   15.4998 C   0  0  0  0  0  0
   10.6513    1.2323   22.4484 H   0  0  0  0  0  0
   11.9634    1.3822   21.3045 H   0  0  0  0  0  0
   10.5201    2.3765   21.1321 H   0  0  0  0  0  0
    9.1662    0.2070   20.7178 H   0  0  0  0  0  0
   10.0994   -1.8601   20.9850 H   0  0  0  0  0  0
   11.4440   -1.0997   21.8002 H   0  0  0  0  0  0
   13.3330   -1.9317   16.1851 H   0  0  0  0  0  0
   11.8640   -0.0186   16.5673 H   0  0  0  0  0  0
    8.6208    2.1975   19.9223 H   0  0  0  0  0  0
    8.9514    3.3317   18.6665 H   0  0  0  0  0  0
    4.7183    0.2846   16.0904 H   0  0  0  0  0  0
    7.6539   -0.1468   18.9021 H   0  0  0  0  0  0
    3.3400    2.2549   14.7349 H   0  0  0  0  0  0
    3.2279    1.7631   16.3325 H   0  0  0  0  0  0
    2.7834    3.8703   17.3520 H   0  0  0  0  0  0
    1.5836    3.5377   16.1850 H   0  0  0  0  0  0
    4.3095    5.4370   16.9850 H   0  0  0  0  0  0
    4.5843    6.2939   15.4831 H   0  0  0  0  0  0
    6.3073    4.5282   15.9407 H   0  0  0  0  0  0
    5.6154    4.2370   14.4449 H   0  0  0  0  0  0
  1  2  1  0  0  0
  1 29  1  0  0  0
  1 30  1  0  0  0
  1 31  1  0  0  0
  2  3  1  0  0  0
  2 12  1  0  0  0
  2 32  1  0  0  0
  3  4  1  0  0  0
  3 33  1  0  0  0
  3 34  1  0  0  0
  4  5  2  0  0  0
  4 11  1  0  0  0
  5  6  1  0  0  0
  5  7  1  0  0  0
  7  8  1  0  0  0
  7  9  2  0  0  0
  9 10  1  0  0  0
  9 35  1  0  0  0
 10 11  2  0  0  0
 10 36  1  0  0  0
 11 12  1  0  0  0
 12 13  1  0  0  0
 13 14  2  0  0  0
 13 15  1  0  0  0
 15 16  1  0  0  0
 15 37  1  0  0  0
 15 38  1  0  0  0
 16 17  2  0  0  0
 16 22  1  0  0  0
 17 18  1  0  0  0
 18 19  2  0  0  0
 18 23  1  0  0  0
 19 20  1  0  0  0
 19 39  1  0  0  0
 20 21  2  0  0  0
 20 22  1  0  0  0
 22 40  1  0  0  0
 23 24  1  0  0  0
 23 28  1  0  0  0
 24 25  1  0  0  0
 24 41  1  0  0  0
 24 42  1  0  0  0
 25 26  1  0  0  0
 25 43  1  0  0  0
 25 44  1  0  0  0
 26 27  1  0  0  0
 27 28  1  0  0  0
 27 45  1  0  0  0
 27 46  1  0  0  0
 28 47  1  0  0  0
 28 48  1  0  0  0
M  END
> <s_m_entry_id>
2388

> <s_m_entry_name>
dock_pv.127

> <s_m_Source_Path>
/home/csk/Desktop/cluster/DUD-E-result/akt1

> <s_m_Source_File>
dock_pv.maegz

> <i_m_Source_File_Index>
127

> <chembl_id>
CHEMBL3910755

> <chembl_pref_name>
None

> <i_lp_mmshare_version>
53161

> <i_f3d_flags>
0

> <r_lp_tautomer_probability>
0.994036381586735

> <s_lp_Force_Field>
OPLS_2005

> <r_lp_Energy>
55.223836

> <b_lp_Chiralities_Consistent>
1

> <s_lp_Variant>
CHEMBL4282_lig2343-1

> <s_i_glide_gridfile>
glide-grid_3cqw

> <i_i_glide_lignum>
3124

> <i_i_glide_rotatable_bonds>
4

> <r_i_docking_score>
-6.97261676278411

> <r_i_glide_ligand_efficiency>
-0.24902202724229

> <r_i_glide_ligand_efficiency_sa>
-0.756177540838145

> <r_i_glide_ligand_efficiency_ln>
-1.60948467377458

> <r_i_glide_gscore>
-6.97261676278411

> <r_i_glide_lipo>
-1.77733941664799

> <r_i_glide_hbond>
-0.422112596240563

> <r_i_glide_metal>
0

> <r_i_glide_rewards>
-1.56817312136496

> <r_i_glide_evdw>
-35.0129013061523

> <r_i_glide_ecoul>
-12.0140352249146

> <r_i_glide_erotb>
0.511915125789154

> <r_i_glide_esite>
-0.164156405274953

> <r_i_glide_emodel>
-61.5322562092438

> <r_i_glide_energy>
-47.0269365310669

> <r_i_glide_einternal>
3.00374245643616

> <i_i_glide_confnum>
80

> <i_i_glide_posenum>
253

> <r_i_glide_eff_state_penalty>
0

> <s_user_duplicate_titles>
CHEMBL4282_lig2343

> <s_m_subgroup_title>
dock_pv

> <s_m_subgroupid>
dock_pv

> <b_m_subgroup_collapsed>
1

$$$$
CHEMBL4282_lig941
                    3D
 Schrodinger Suite 2021-1.
 50 53  0  0  1  0            999 V2000
   12.7736    0.3463   18.0871 C   0  0  0  0  0  0
   12.0982    0.1558   19.2966 C   0  0  0  0  0  0
   11.0281   -0.7446   19.3477 C   0  0  0  0  0  0
   10.6523   -1.4558   18.2054 C   0  0  0  0  0  0
   11.3383   -1.2718   17.0084 C   0  0  0  0  0  0
   12.3874   -0.3599   16.9499 C   0  0  0  0  0  0
   12.5248    0.9387   20.5396 C   0  0  0  0  0  0
   11.6519    2.1917   20.8213 C   0  0  1  0  0  0
   12.2310    3.0368   21.8874 N   0  0  0  0  0  0
   11.4502    3.1112   19.5756 C   0  0  0  0  0  0
   10.2021    3.4897   19.1747 N   0  0  0  0  0  0
   12.4736    3.4814   18.9849 O   0  0  0  0  0  0
    8.9217    3.0129   19.7153 C   0  0  0  0  0  0
    8.1482    2.3207   18.5695 C   0  0  0  0  0  0
    8.0261    3.1079   17.3272 N   0  0  0  0  0  0
    9.2919    3.7582   16.9335 C   0  0  0  0  0  0
   10.0398    4.4609   18.0890 C   0  0  0  0  0  0
    6.7939    3.3693   16.7216 C   0  0  0  0  0  0
    4.3324    4.1757   15.6999 N   0  0  0  0  0  0
    5.4161    4.9750   15.7850 C   0  0  0  0  0  0
    6.6336    4.6371   16.2666 N   0  0  0  0  0  0
    4.5095    2.8760   16.0597 C   0  0  0  0  0  0
    5.7514    2.3923   16.5850 C   0  0  0  0  0  0
    5.8739    1.0017   16.8655 C   0  0  0  0  0  0
    4.8042    0.1450   16.6432 C   0  0  0  0  0  0
    3.5907    0.6368   16.1850 C   0  0  0  0  0  0
    3.4302    1.9839   15.8795 C   0  0  0  0  0  0
   13.0308   -0.1615   15.7850 F   0  0  0  0  0  0
   10.9916   -1.9756   15.9062 F   0  0  0  0  0  0
   13.5911    1.0506   18.0239 H   0  0  0  0  0  0
   10.4810   -0.8978   20.2676 H   0  0  0  0  0  0
    9.8313   -2.1538   18.2527 H   0  0  0  0  0  0
   12.4821    0.2658   21.3969 H   0  0  0  0  0  0
   13.5734    1.2293   20.4441 H   0  0  0  0  0  0
   10.7115    1.8038   21.1915 H   0  0  0  0  0  0
   11.6308    3.8524   22.0347 H   0  0  0  0  0  0
   12.2664    2.5593   22.7740 H   0  0  0  0  0  0
    8.9746    2.3649   20.5832 H   0  0  0  0  0  0
    8.3575    3.8814   20.0604 H   0  0  0  0  0  0
    7.1597    2.0594   18.9515 H   0  0  0  0  0  0
    8.6502    1.3900   18.3020 H   0  0  0  0  0  0
    9.1389    4.4698   16.1217 H   0  0  0  0  0  0
    9.9144    2.9620   16.5241 H   0  0  0  0  0  0
    9.4482    5.3036   18.4497 H   0  0  0  0  0  0
   10.9902    4.9001   17.7841 H   0  0  0  0  0  0
    5.2758    6.0039   15.4920 H   0  0  0  0  0  0
    6.8083    0.5911   17.2147 H   0  0  0  0  0  0
    4.9071   -0.9097   16.8504 H   0  0  0  0  0  0
    2.7769   -0.0523   16.0237 H   0  0  0  0  0  0
    2.4882    2.3503   15.4929 H   0  0  0  0  0  0
  1  6  1  0  0  0
  1  2  2  0  0  0
  1 30  1  0  0  0
  2  3  1  0  0  0
  2  7  1  0  0  0
  3  4  2  0  0  0
  3 31  1  0  0  0
  4  5  1  0  0  0
  4 32  1  0  0  0
  5  6  2  0  0  0
  5 29  1  0  0  0
  6 28  1  0  0  0
  7  8  1  0  0  0
  7 33  1  0  0  0
  7 34  1  0  0  0
  8  9  1  0  0  0
  8 10  1  0  0  0
  8 35  1  0  0  0
  9 36  1  0  0  0
  9 37  1  0  0  0
 10 11  1  0  0  0
 10 12  2  0  0  0
 11 17  1  0  0  0
 11 13  1  0  0  0
 13 14  1  0  0  0
 13 38  1  0  0  0
 13 39  1  0  0  0
 14 15  1  0  0  0
 14 40  1  0  0  0
 14 41  1  0  0  0
 15 16  1  0  0  0
 15 18  1  0  0  0
 16 17  1  0  0  0
 16 42  1  0  0  0
 16 43  1  0  0  0
 17 44  1  0  0  0
 17 45  1  0  0  0
 18 23  2  0  0  0
 18 21  1  0  0  0
 19 22  2  0  0  0
 19 20  1  0  0  0
 20 21  2  0  0  0
 20 46  1  0  0  0
 22 23  1  0  0  0
 22 27  1  0  0  0
 23 24  1  0  0  0
 24 25  2  0  0  0
 24 47  1  0  0  0
 25 26  1  0  0  0
 25 48  1  0  0  0
 26 27  2  0  0  0
 26 49  1  0  0  0
 27 50  1  0  0  0
M  END
> <s_m_entry_id>
2389

> <s_m_entry_name>
dock_pv.128

> <s_m_Source_Path>
/home/csk/Desktop/cluster/DUD-E-result/akt1

> <s_m_Source_File>
dock_pv.maegz

> <i_m_Source_File_Index>
128

> <chembl_id>
CHEMBL1258899

> <chembl_pref_name>
None

> <i_lp_mmshare_version>
53161

> <i_f3d_flags>
0

> <r_lp_tautomer_probability>
1

> <s_lp_Force_Field>
OPLS_2005

> <r_lp_Energy>
42.847863

> <b_lp_Chiralities_Consistent>
1

> <s_lp_Variant>
CHEMBL4282_lig941-1

> <s_i_glide_gridfile>
glide-grid_3cqw

> <i_i_glide_lignum>
1337

> <i_i_glide_rotatable_bonds>
5

> <r_i_docking_score>
-6.97250182742319

> <r_i_glide_ligand_efficiency>
-0.240431097497351

> <r_i_glide_ligand_efficiency_sa>
-0.738680505430108

> <r_i_glide_ligand_efficiency_ln>
-1.59652611108893

> <r_i_glide_gscore>
-6.97250182742319

> <r_i_glide_lipo>
-2.33255463177135

> <r_i_glide_hbond>
-0.16

> <r_i_glide_metal>
0

> <r_i_glide_rewards>
-1.76964824508729

> <r_i_glide_evdw>
-42.4523658752441

> <r_i_glide_ecoul>
-6.18407964706421

> <r_i_glide_erotb>
0.495736459333183

> <r_i_glide_esite>
-0.155805169075899

> <r_i_glide_emodel>
-68.0853049993409

> <r_i_glide_energy>
-48.6364455223083

> <r_i_glide_einternal>
3.23407292366028

> <i_i_glide_confnum>
16

> <i_i_glide_posenum>
275

> <r_i_glide_eff_state_penalty>
0

> <s_user_duplicate_titles>
CHEMBL4282_lig941

> <s_m_subgroup_title>
dock_pv

> <s_m_subgroupid>
dock_pv

> <b_m_subgroup_collapsed>
1

$$$$
CHEMBL4282_lig3637
                    3D
 Schrodinger Suite 2021-1.
 37 40  0  0  1  0            999 V2000
    3.0312    3.3568   15.5662 N   0  0  0  0  0  0
    3.8319    5.4354   15.5295 O   0  0  0  0  0  0
   10.6862   -0.0757   19.7378 C   0  0  0  0  0  0
    9.3528    2.1331   18.1425 C   0  0  0  0  0  0
   11.3688   -1.2199   20.1494 C   0  0  0  0  0  0
    6.4765    4.1894   16.5866 C   0  0  0  0  0  0
    2.9870    1.9445   15.9897 C   0  0  0  0  0  0
    4.3717    1.2431   16.0537 C   0  0  0  0  0  0
    5.2374    3.6263   16.2535 C   0  0  0  0  0  0
    4.0255    4.2504   15.7850 C   0  0  0  0  0  0
    9.2755    4.5310   17.9726 C   0  0  0  0  0  0
   10.5284    4.5664   18.5856 C   0  0  0  0  0  0
    5.4122    2.2635   16.4011 C   0  0  0  0  0  0
    8.6690    3.2916   17.7478 C   0  0  0  0  0  0
    7.3134    3.2124   17.1277 C   0  0  0  0  0  0
   10.6069    2.2370   18.7590 C   0  0  0  0  0  0
   11.3692    1.0255   19.1943 C   0  0  0  0  0  0
   12.7697    0.9376   19.0725 C   0  0  0  0  0  0
   13.4500   -0.2073   19.4857 C   0  0  0  0  0  0
   12.7541   -1.2871   20.0231 C   0  0  0  0  0  0
   13.4915    1.9509   18.5379 F   0  0  0  0  0  0
    6.6111    2.0372   17.0166 N   0  0  0  0  0  0
   11.1857    3.4473   18.9847 N   0  0  0  0  0  0
    2.1822    3.7303   15.1592 H   0  0  0  0  0  0
    9.6097   -0.0540   19.8587 H   0  0  0  0  0  0
    8.9212    1.1579   17.9765 H   0  0  0  0  0  0
   10.8178   -2.0509   20.5645 H   0  0  0  0  0  0
    6.7007    5.2415   16.5119 H   0  0  0  0  0  0
    2.3195    1.4037   15.3185 H   0  0  0  0  0  0
    2.5073    1.9378   16.9646 H   0  0  0  0  0  0
    4.6288    0.8459   15.0724 H   0  0  0  0  0  0
    4.3487    0.3898   16.7338 H   0  0  0  0  0  0
    8.7901    5.4551   17.6945 H   0  0  0  0  0  0
   11.0178    5.5077   18.7902 H   0  0  0  0  0  0
   14.5244   -0.2494   19.3874 H   0  0  0  0  0  0
   13.2841   -2.1713   20.3433 H   0  0  0  0  0  0
    6.9380    1.1333   17.3274 H   0  0  0  0  0  0
  1 10  1  0  0  0
  1  7  1  0  0  0
  1 24  1  0  0  0
  2 10  2  0  0  0
  3  5  2  0  0  0
  3 17  1  0  0  0
  3 25  1  0  0  0
  4 16  2  0  0  0
  4 14  1  0  0  0
  4 26  1  0  0  0
  5 20  1  0  0  0
  5 27  1  0  0  0
  6 15  2  0  0  0
  6  9  1  0  0  0
  6 28  1  0  0  0
  7  8  1  0  0  0
  7 29  1  0  0  0
  7 30  1  0  0  0
  8 13  1  0  0  0
  8 31  1  0  0  0
  8 32  1  0  0  0
  9 10  1  0  0  0
  9 13  2  0  0  0
 11 12  1  0  0  0
 11 14  2  0  0  0
 11 33  1  0  0  0
 12 23  2  0  0  0
 12 34  1  0  0  0
 13 22  1  0  0  0
 14 15  1  0  0  0
 15 22  1  0  0  0
 16 23  1  0  0  0
 16 17  1  0  0  0
 17 18  2  0  0  0
 18 19  1  0  0  0
 18 21  1  0  0  0
 19 20  2  0  0  0
 19 35  1  0  0  0
 20 36  1  0  0  0
 22 37  1  0  0  0
M  END
> <s_m_entry_id>
2390

> <s_m_entry_name>
dock_pv.129

> <s_m_Source_Path>
/home/csk/Desktop/cluster/DUD-E-result/akt1

> <s_m_Source_File>
dock_pv.maegz

> <i_m_Source_File_Index>
129

> <chembl_id>
CHEMBL226471

> <chembl_pref_name>
None

> <i_lp_mmshare_version>
53161

> <i_f3d_flags>
0

> <r_lp_tautomer_probability>
1

> <s_lp_Force_Field>
OPLS_2005

> <r_lp_Energy>
23.695039

> <b_lp_Chiralities_Consistent>
1

> <s_lp_Variant>
CHEMBL4282_lig3637-1

> <s_i_glide_gridfile>
glide-grid_3cqw

> <i_i_glide_lignum>
4855

> <i_i_glide_rotatable_bonds>
2

> <r_i_docking_score>
-6.96610454891831

> <r_i_glide_ligand_efficiency>
-0.302874110822535

> <r_i_glide_ligand_efficiency_sa>
-0.861333681919876

> <r_i_glide_ligand_efficiency_ln>
-1.68446724507223

> <r_i_glide_gscore>
-6.96610454891831

> <r_i_glide_lipo>
-1.55594592803066

> <r_i_glide_hbond>
-0.608

> <r_i_glide_metal>
0

> <r_i_glide_rewards>
-2.55871593409091

> <r_i_glide_evdw>
-36.7259407043457

> <r_i_glide_ecoul>
-4.54102516174316

> <r_i_glide_erotb>
0.274008122682014

> <r_i_glide_esite>
0

> <r_i_glide_emodel>
-59.0445475736829

> <r_i_glide_energy>
-41.2669658660889

> <r_i_glide_einternal>
0.178312569856644

> <i_i_glide_confnum>
6

> <i_i_glide_posenum>
112

> <r_i_glide_eff_state_penalty>
0

> <s_user_duplicate_titles>
CHEMBL4282_lig3637

> <s_m_subgroup_title>
dock_pv

> <s_m_subgroupid>
dock_pv

> <b_m_subgroup_collapsed>
1

$$$$
CHEMBL4282_lig2143
                    3D
 Schrodinger Suite 2021-1.
 45 47  0  0  1  0            999 V2000
   11.0675   -2.8175   21.4472 C   0  0  0  0  0  0
   11.0323   -1.7028   20.5634 O   0  0  0  0  0  0
   11.6238   -1.7966   19.3149 C   0  0  0  0  0  0
   12.4580   -2.8631   18.9371 C   0  0  0  0  0  0
   13.0371   -2.9015   17.6699 C   0  0  0  0  0  0
   12.8018   -1.8704   16.7673 C   0  0  0  0  0  0
   11.9800   -0.8034   17.1237 C   0  0  0  0  0  0
   11.3805   -0.7591   18.3963 C   0  0  0  0  0  0
   10.4702    0.2397   18.8046 N   0  0  0  0  0  0
   10.0949    1.3809   18.1874 C   0  0  0  0  0  0
   10.6214    1.8370   17.1761 O   0  0  0  0  0  0
    8.8898    2.1140   18.7967 C   0  0  0  0  0  0
    7.6123    1.6641   18.1050 C   0  0  0  0  0  0
    6.8735    2.4861   17.4353 N   0  0  0  0  0  0
    5.7712    2.0068   16.7752 C   0  0  0  0  0  0
    5.5050    0.6800   16.7076 C   0  0  0  0  0  0
    6.2232   -0.2267   17.5465 C   0  0  0  0  0  0
    5.8302   -1.3629   17.7799 O   0  0  0  0  0  0
    7.2673    0.3432   18.1752 N   0  0  0  0  0  0
    4.9355    2.9375   16.1856 N   0  0  0  0  0  0
    5.3583    4.2466   15.6430 C   0  0  0  0  0  0
    4.3134    5.3517   15.9294 C   0  0  0  0  0  0
    3.0308    4.9124   15.5427 O   0  0  0  0  0  0
    2.6303    3.7821   16.3107 C   0  0  0  0  0  0
    3.5307    2.6323   15.8542 C   0  0  0  0  0  0
   10.4717   -2.5923   22.3316 H   0  0  0  0  0  0
   10.6412   -3.7097   20.9850 H   0  0  0  0  0  0
   12.0846   -3.0326   21.7775 H   0  0  0  0  0  0
   12.6662   -3.6749   19.6162 H   0  0  0  0  0  0
   13.6706   -3.7311   17.3922 H   0  0  0  0  0  0
   13.2512   -1.8985   15.7854 H   0  0  0  0  0  0
   11.8099   -0.0386   16.3843 H   0  0  0  0  0  0
   10.0208    0.0242   19.6840 H   0  0  0  0  0  0
    8.8273    1.9409   19.8708 H   0  0  0  0  0  0
    9.0378    3.1886   18.6815 H   0  0  0  0  0  0
    4.6672    0.2818   16.1660 H   0  0  0  0  0  0
    7.6756   -0.2627   18.8753 H   0  0  0  0  0  0
    6.2932    4.5519   16.1103 H   0  0  0  0  0  0
    5.6459    4.1789   14.5940 H   0  0  0  0  0  0
    4.5728    6.2716   15.4032 H   0  0  0  0  0  0
    4.2307    5.6027   16.9850 H   0  0  0  0  0  0
    1.5776    3.5463   16.1877 H   0  0  0  0  0  0
    2.7348    3.9441   17.3866 H   0  0  0  0  0  0
    3.3889    2.2512   14.8423 H   0  0  0  0  0  0
    3.2039    1.7796   16.4514 H   0  0  0  0  0  0
  1  2  1  0  0  0
  1 26  1  0  0  0
  1 27  1  0  0  0
  1 28  1  0  0  0
  2  3  1  0  0  0
  3  4  2  0  0  0
  3  8  1  0  0  0
  4  5  1  0  0  0
  4 29  1  0  0  0
  5  6  2  0  0  0
  5 30  1  0  0  0
  6  7  1  0  0  0
  6 31  1  0  0  0
  7  8  2  0  0  0
  7 32  1  0  0  0
  8  9  1  0  0  0
  9 10  1  0  0  0
  9 33  1  0  0  0
 10 11  2  0  0  0
 10 12  1  0  0  0
 12 13  1  0  0  0
 12 34  1  0  0  0
 12 35  1  0  0  0
 13 14  2  0  0  0
 13 19  1  0  0  0
 14 15  1  0  0  0
 15 16  2  0  0  0
 15 20  1  0  0  0
 16 17  1  0  0  0
 16 36  1  0  0  0
 17 18  2  0  0  0
 17 19  1  0  0  0
 19 37  1  0  0  0
 20 21  1  0  0  0
 20 25  1  0  0  0
 21 22  1  0  0  0
 21 38  1  0  0  0
 21 39  1  0  0  0
 22 23  1  0  0  0
 22 40  1  0  0  0
 22 41  1  0  0  0
 23 24  1  0  0  0
 24 25  1  0  0  0
 24 42  1  0  0  0
 24 43  1  0  0  0
 25 44  1  0  0  0
 25 45  1  0  0  0
M  END
> <s_m_entry_id>
2391

> <s_m_entry_name>
dock_pv.130

> <s_m_Source_Path>
/home/csk/Desktop/cluster/DUD-E-result/akt1

> <s_m_Source_File>
dock_pv.maegz

> <i_m_Source_File_Index>
130

> <chembl_id>
CHEMBL3696238

> <chembl_pref_name>
None

> <i_lp_mmshare_version>
53161

> <i_f3d_flags>
0

> <r_lp_tautomer_probability>
0.994036381586735

> <s_lp_Force_Field>
OPLS_2005

> <r_lp_Energy>
36.67543

> <b_lp_Chiralities_Consistent>
1

> <s_lp_Variant>
CHEMBL4282_lig2143-1

> <s_i_glide_gridfile>
glide-grid_3cqw

> <i_i_glide_lignum>
2873

> <i_i_glide_rotatable_bonds>
6

> <r_i_docking_score>
-6.96184118392035

> <r_i_glide_ligand_efficiency>
-0.278473647356814

> <r_i_glide_ligand_efficiency_sa>
-0.814261883622489

> <r_i_glide_ligand_efficiency_ln>
-1.65016499013403

> <r_i_glide_gscore>
-6.96184118392035

> <r_i_glide_lipo>
-2.02893737703017

> <r_i_glide_hbond>
-0.438731579718796

> <r_i_glide_metal>
0

> <r_i_glide_rewards>
-1.90584899174867

> <r_i_glide_evdw>
-32.1459465026855

> <r_i_glide_ecoul>
-10.7315006256104

> <r_i_glide_erotb>
0.800528900109756

> <r_i_glide_esite>
-0.171829716556633

> <r_i_glide_emodel>
-85.9883521270263

> <r_i_glide_energy>
-42.8774471282959

> <r_i_glide_einternal>
-54.7366638183594

> <i_i_glide_confnum>
296

> <i_i_glide_posenum>
337

> <r_i_glide_eff_state_penalty>
0

> <s_user_duplicate_titles>
CHEMBL4282_lig2143

> <s_m_subgroup_title>
dock_pv

> <s_m_subgroupid>
dock_pv

> <b_m_subgroup_collapsed>
1

$$$$
CHEMBL4282_lig1381
                    3D
 Schrodinger Suite 2021-1.
 49 52  0  0  1  0            999 V2000
    9.3676    1.7143   18.3701 C   0  0  0  0  0  0
    9.4269    2.9394   17.7135 C   0  0  0  0  0  0
    8.2856    3.4706   17.1233 C   0  0  0  0  0  0
    7.0448    2.8062   17.1916 C   0  0  0  0  0  0
    6.9999    1.5931   17.8966 C   0  0  0  0  0  0
    8.1430    1.0495   18.4665 C   0  0  0  0  0  0
    5.8051    3.3868   16.5612 C   0  0  0  0  0  0
    4.5784    2.6926   16.5250 C   0  0  0  0  0  0
    3.4343    3.3139   16.0126 C   0  0  0  0  0  0
    3.4392    4.5768   15.5230 N   0  0  0  0  0  0
    4.6285    5.2237   15.4934 C   0  0  0  0  0  0
    5.8108    4.6678   15.9797 C   0  0  0  0  0  0
   10.6258    1.0948   18.9836 C   0  0  2  0  0  0
   11.1090   -0.1208   18.1736 C   0  0  0  0  0  0
   11.8542    0.0852   17.0072 C   0  0  0  0  0  0
   12.3135   -1.0012   16.2653 C   0  0  0  0  0  0
   12.0254   -2.2977   16.6889 C   0  0  0  0  0  0
   11.2865   -2.5167   17.8469 C   0  0  0  0  0  0
   10.8356   -1.4328   18.5866 C   0  0  0  0  0  0
   12.5862   -3.6517   15.7854 Cl  0  0  0  0  0  0
   10.3906    0.7634   20.3948 N   0  0  1  0  0  0
   10.5428    1.9037   21.2999 C   0  0  0  0  0  0
   11.6801    1.7160   22.3081 C   0  0  0  0  0  0
   12.0691    0.4446   22.7594 C   0  0  0  0  0  0
   13.1043    0.3140   23.6821 C   0  0  0  0  0  0
   13.7528    1.4522   24.1555 C   0  0  0  0  0  0
   13.3743    2.7198   23.7188 C   0  0  0  0  0  0
   12.3350    2.8485   22.8008 C   0  0  0  0  0  0
   10.3503    3.4944   17.6609 H   0  0  0  0  0  0
    8.4074    4.4161   16.6226 H   0  0  0  0  0  0
    6.0838    1.0401   18.0324 H   0  0  0  0  0  0
    8.0747    0.1048   18.9833 H   0  0  0  0  0  0
    4.4740    1.6889   16.9051 H   0  0  0  0  0  0
    2.4833    2.7991   15.9974 H   0  0  0  0  0  0
    4.6301    6.2215   15.0816 H   0  0  0  0  0  0
    6.6979    5.2754   15.9241 H   0  0  0  0  0  0
   11.4444    1.8190   18.9579 H   0  0  0  0  0  0
   12.0803    1.0878   16.6735 H   0  0  0  0  0  0
   12.8945   -0.8429   15.3696 H   0  0  0  0  0  0
   11.0642   -3.5221   18.1754 H   0  0  0  0  0  0
   10.2604   -1.6256   19.4803 H   0  0  0  0  0  0
    9.4480    0.3971   20.4756 H   0  0  0  0  0  0
    9.6221    1.9978   21.8732 H   0  0  0  0  0  0
   10.6491    2.8602   20.7840 H   0  0  0  0  0  0
   11.5733   -0.4421   22.3945 H   0  0  0  0  0  0
   13.4050   -0.6646   24.0243 H   0  0  0  0  0  0
   14.5553    1.3548   24.8710 H   0  0  0  0  0  0
   13.8739    3.5993   24.0977 H   0  0  0  0  0  0
   12.0325    3.8357   22.4768 H   0  0  0  0  0  0
  1  2  2  0  0  0
  1  6  1  0  0  0
  1 13  1  0  0  0
  2  3  1  0  0  0
  2 29  1  0  0  0
  3  4  2  0  0  0
  3 30  1  0  0  0
  4  5  1  0  0  0
  4  7  1  0  0  0
  5  6  2  0  0  0
  5 31  1  0  0  0
  6 32  1  0  0  0
  7  8  2  0  0  0
  7 12  1  0  0  0
  8  9  1  0  0  0
  8 33  1  0  0  0
  9 10  2  0  0  0
  9 34  1  0  0  0
 10 11  1  0  0  0
 11 12  2  0  0  0
 11 35  1  0  0  0
 12 36  1  0  0  0
 13 14  1  0  0  0
 13 21  1  0  0  0
 13 37  1  0  0  0
 14 15  2  0  0  0
 14 19  1  0  0  0
 15 16  1  0  0  0
 15 38  1  0  0  0
 16 17  2  0  0  0
 16 39  1  0  0  0
 17 18  1  0  0  0
 17 20  1  0  0  0
 18 19  2  0  0  0
 18 40  1  0  0  0
 19 41  1  0  0  0
 21 22  1  0  0  0
 21 42  1  0  0  0
 22 23  1  0  0  0
 22 43  1  0  0  0
 22 44  1  0  0  0
 23 24  2  0  0  0
 23 28  1  0  0  0
 24 25  1  0  0  0
 24 45  1  0  0  0
 25 26  2  0  0  0
 25 46  1  0  0  0
 26 27  1  0  0  0
 26 47  1  0  0  0
 27 28  2  0  0  0
 27 48  1  0  0  0
 28 49  1  0  0  0
M  END
> <s_m_entry_id>
2392

> <s_m_entry_name>
dock_pv.131

> <s_m_Source_Path>
/home/csk/Desktop/cluster/DUD-E-result/akt1

> <s_m_Source_File>
dock_pv.maegz

> <i_m_Source_File_Index>
131

> <chembl_id>
CHEMBL3113139

> <chembl_pref_name>
None

> <i_lp_mmshare_version>
53161

> <i_f3d_flags>
0

> <r_lp_tautomer_probability>
1

> <s_lp_Force_Field>
OPLS_2005

> <r_lp_Energy>
21.468949

> <b_lp_Chiralities_Consistent>
1

> <s_lp_Variant>
CHEMBL4282_lig1381-1

> <s_i_glide_gridfile>
glide-grid_3cqw

> <i_i_glide_lignum>
1923

> <i_i_glide_rotatable_bonds>
6

> <r_i_docking_score>
-6.96013834733946

> <r_i_glide_ligand_efficiency>
-0.248576369547838

> <r_i_glide_ligand_efficiency_sa>
-0.754824261599444

> <r_i_glide_ligand_efficiency_ln>
-1.60660428910776

> <r_i_glide_gscore>
-6.96013834733946

> <r_i_glide_lipo>
-2.76299455029601

> <r_i_glide_hbond>
-0.280585089475524

> <r_i_glide_metal>
0

> <r_i_glide_rewards>
-1.80977040909091

> <r_i_glide_evdw>
-43.915454864502

> <r_i_glide_ecoul>
-3.78243517875671

> <r_i_glide_erotb>
0.656349721561584

> <r_i_glide_esite>
0

> <r_i_glide_emodel>
-65.4603421571939

> <r_i_glide_energy>
-47.6978900432587

> <r_i_glide_einternal>
6.89479827880859

> <i_i_glide_confnum>
20

> <i_i_glide_posenum>
370

> <r_i_glide_eff_state_penalty>
0

> <s_user_duplicate_titles>
CHEMBL4282_lig1381

> <s_m_subgroup_title>
dock_pv

> <s_m_subgroupid>
dock_pv

> <b_m_subgroup_collapsed>
1

$$$$
CHEMBL4282_lig377
                    3D
 Schrodinger Suite 2021-1.
 52 55  0  0  1  0            999 V2000
    6.2808    3.0833   16.9850 C   0  0  0  0  0  0
    7.0487    2.0277   17.4961 C   0  0  0  0  0  0
    6.5545    0.7187   17.3832 C   0  0  0  0  0  0
    5.3240    0.4310   16.7941 C   0  0  0  0  0  0
    5.0311    2.8294   16.4105 C   0  0  0  0  0  0
    4.5442    1.4938   16.3226 C   0  0  0  0  0  0
    3.2914    1.4362   15.7850 N   0  0  0  0  0  0
    3.0090    2.7258   15.5406 N   0  0  0  0  0  0
    4.0056    3.6234   15.8424 C   0  0  0  0  0  0
    3.8963    5.1075   15.5994 C   0  0  0  0  0  0
    8.3785    2.3017   18.1369 C   0  0  0  0  0  0
    9.1005    3.4776   17.8746 C   0  0  0  0  0  0
   10.3004    3.7669   18.4288 N   0  0  0  0  0  0
   10.8596    2.8472   19.2502 C   0  0  0  0  0  0
   10.2546    1.6320   19.5609 C   0  0  0  0  0  0
    8.9783    1.3913   19.0235 C   0  0  0  0  0  0
   10.9583    0.7491   20.3562 O   0  0  0  0  0  0
   10.4653   -0.5809   20.4944 C   0  0  0  0  0  0
   11.5928   -1.5232   20.9636 C   0  0  2  0  0  0
   12.7721   -1.6441   19.9584 C   0  0  0  0  0  0
   11.0307   -2.8328   21.2557 N   0  0  0  0  0  0
   12.4038   -2.0484   18.5291 C   0  0  0  0  0  0
   12.0055   -3.3591   18.2402 C   0  0  0  0  0  0
   11.6538   -3.7278   16.9374 C   0  0  0  0  0  0
   11.7386   -2.7822   15.9085 C   0  0  0  0  0  0
   12.1462   -1.4776   16.1877 C   0  0  0  0  0  0
   12.4681   -1.1088   17.4939 C   0  0  0  0  0  0
   11.4310   -3.1218   14.6356 F   0  0  0  0  0  0
   11.1601   -5.1378   16.6563 C   0  0  0  0  0  0
    6.6131    4.1054   17.0678 H   0  0  0  0  0  0
    7.1279   -0.1171   17.7543 H   0  0  0  0  0  0
    4.9646   -0.5845   16.7375 H   0  0  0  0  0  0
    2.1145    2.9964   15.1484 H   0  0  0  0  0  0
    3.8309    5.6603   16.5366 H   0  0  0  0  0  0
    4.7779    5.4795   15.0774 H   0  0  0  0  0  0
    3.0324    5.3589   14.9882 H   0  0  0  0  0  0
    8.7351    4.2348   17.2009 H   0  0  0  0  0  0
   11.8249    3.0991   19.6669 H   0  0  0  0  0  0
    8.4503    0.4922   19.2945 H   0  0  0  0  0  0
   10.0774   -0.9621   19.5483 H   0  0  0  0  0  0
    9.6367   -0.5783   21.2025 H   0  0  0  0  0  0
   11.9973   -1.1318   21.8990 H   0  0  0  0  0  0
   13.5114   -2.3536   20.3377 H   0  0  0  0  0  0
   13.2973   -0.6869   19.9250 H   0  0  0  0  0  0
   10.3455   -2.7575   21.9961 H   0  0  0  0  0  0
   10.4981   -3.1360   20.4495 H   0  0  0  0  0  0
   11.9597   -4.0902   19.0350 H   0  0  0  0  0  0
   12.2060   -0.7504   15.3906 H   0  0  0  0  0  0
   12.7688   -0.0910   17.7021 H   0  0  0  0  0  0
   11.0544   -5.7301   17.5659 H   0  0  0  0  0  0
   10.1814   -5.1013   16.1848 H   0  0  0  0  0  0
   11.8311   -5.6564   15.9707 H   0  0  0  0  0  0
  1  2  2  0  0  0
  1 30  1  0  0  0
  1  5  1  0  0  0
  2  3  1  0  0  0
  2 11  1  0  0  0
  3  4  2  0  0  0
  3 31  1  0  0  0
  4  6  1  0  0  0
  4 32  1  0  0  0
  5  6  1  0  0  0
  5  9  2  0  0  0
  6  7  2  0  0  0
  7  8  1  0  0  0
  8 33  1  0  0  0
  8  9  1  0  0  0
  9 10  1  0  0  0
 10 34  1  0  0  0
 10 35  1  0  0  0
 10 36  1  0  0  0
 11 16  1  0  0  0
 11 12  2  0  0  0
 12 13  1  0  0  0
 12 37  1  0  0  0
 13 14  2  0  0  0
 14 15  1  0  0  0
 14 38  1  0  0  0
 15 16  2  0  0  0
 15 17  1  0  0  0
 16 39  1  0  0  0
 17 18  1  0  0  0
 18 19  1  0  0  0
 18 40  1  0  0  0
 18 41  1  0  0  0
 19 20  1  0  0  0
 19 21  1  0  0  0
 19 42  1  0  0  0
 20 22  1  0  0  0
 20 43  1  0  0  0
 20 44  1  0  0  0
 21 45  1  0  0  0
 21 46  1  0  0  0
 22 23  2  0  0  0
 22 27  1  0  0  0
 23 24  1  0  0  0
 23 47  1  0  0  0
 24 25  2  0  0  0
 24 29  1  0  0  0
 25 26  1  0  0  0
 25 28  1  0  0  0
 26 27  2  0  0  0
 26 48  1  0  0  0
 27 49  1  0  0  0
 29 50  1  0  0  0
 29 51  1  0  0  0
 29 52  1  0  0  0
M  END
> <s_m_entry_id>
2393

> <s_m_entry_name>
dock_pv.132

> <s_m_Source_Path>
/home/csk/Desktop/cluster/DUD-E-result/akt1

> <s_m_Source_File>
dock_pv.maegz

> <i_m_Source_File_Index>
132

> <chembl_id>
CHEMBL427426

> <chembl_pref_name>
None

> <i_lp_mmshare_version>
53161

> <i_f3d_flags>
0

> <r_lp_tautomer_probability>
0.0196078431372549

> <s_lp_Force_Field>
OPLS_2005

> <r_lp_Energy>
38.986916

> <b_lp_Chiralities_Consistent>
1

> <s_lp_Variant>
CHEMBL4282_lig377-2

> <s_i_glide_gridfile>
glide-grid_3cqw

> <i_i_glide_lignum>
490

> <i_i_glide_rotatable_bonds>
6

> <r_i_docking_score>
-6.95425410629411

> <r_i_glide_ligand_efficiency>
-0.23980186573428

> <r_i_glide_ligand_efficiency_sa>
-0.736747306099337

> <r_i_glide_ligand_efficiency_ln>
-1.59234784567265

> <r_i_glide_gscore>
-6.95425410629411

> <r_i_glide_lipo>
-2.78569916830567

> <r_i_glide_hbond>
-0.32

> <r_i_glide_metal>
0

> <r_i_glide_rewards>
-1.96459938370285

> <r_i_glide_evdw>
-47.2711753845215

> <r_i_glide_ecoul>
-1.92016196250916

> <r_i_glide_erotb>
0.76762750931686

> <r_i_glide_esite>
0

> <r_i_glide_emodel>
-67.8446539969072

> <r_i_glide_energy>
-49.1913373470306

> <r_i_glide_einternal>
5.51581525802612

> <i_i_glide_confnum>
29

> <i_i_glide_posenum>
133

> <r_i_glide_eff_state_penalty>
0

> <s_user_duplicate_titles>
CHEMBL4282_lig377,381977

> <s_m_subgroup_title>
dock_pv

> <s_m_subgroupid>
dock_pv

> <b_m_subgroup_collapsed>
1

$$$$
CHEMBL4282_lig2160
                    3D
 Schrodinger Suite 2021-1.
 45 47  0  0  1  0            999 V2000
    3.8310    5.1905   15.7850 O   0  0  0  0  0  0
    3.4026    3.8451   15.9093 C   0  0  0  0  0  0
    4.4954    2.8374   16.2609 C   0  0  0  0  0  0
    5.7418    3.2453   16.7484 C   0  0  0  0  0  0
    6.6659    2.3050   17.2269 C   0  0  0  0  0  0
    7.8822    2.6596   17.8274 N   0  0  0  0  0  0
    8.6173    3.7828   17.6472 C   0  0  0  0  0  0
    8.3540    4.6368   16.8007 O   0  0  0  0  0  0
    9.8949    3.9818   18.4898 C   0  0  0  0  0  0
   10.4738    2.7153   19.1157 C   0  0  0  0  0  0
   10.8410    1.7191   18.3814 N   0  0  0  0  0  0
   11.3010    0.5702   18.9724 C   0  0  0  0  0  0
   11.4184    0.4790   20.3200 C   0  0  0  0  0  0
   11.0059    1.5672   21.1724 C   0  0  0  0  0  0
   11.0316    1.5052   22.3945 O   0  0  0  0  0  0
   10.5583    2.6364   20.4763 N   0  0  0  0  0  0
   11.6272   -0.4671   18.1011 N   0  0  0  0  0  0
   12.2147   -0.2412   16.7645 C   0  0  0  0  0  0
   11.8214   -1.3700   15.7858 C   0  0  0  0  0  0
   12.2618   -2.6229   16.2906 O   0  0  0  0  0  0
   11.6170   -2.9124   17.5247 C   0  0  0  0  0  0
   11.9443   -1.8291   18.5794 C   0  0  0  0  0  0
    6.3516    0.9452   17.1791 C   0  0  0  0  0  0
    5.1452    0.5269   16.6239 C   0  0  0  0  0  0
    4.2181    1.4686   16.1855 C   0  0  0  0  0  0
    3.0308    1.0420   15.7151 F   0  0  0  0  0  0
    4.2312    5.4579   16.6173 H   0  0  0  0  0  0
    2.6173    3.7896   16.6653 H   0  0  0  0  0  0
    2.9151    3.5424   14.9854 H   0  0  0  0  0  0
    5.9576    4.2983   16.8339 H   0  0  0  0  0  0
    8.2825    1.9525   18.4270 H   0  0  0  0  0  0
   10.6468    4.4377   17.8466 H   0  0  0  0  0  0
    9.6728    4.7240   19.2568 H   0  0  0  0  0  0
   11.7860   -0.4059   20.8051 H   0  0  0  0  0  0
   10.2483    3.4156   21.0535 H   0  0  0  0  0  0
   11.8147    0.6818   16.3439 H   0  0  0  0  0  0
   13.2830   -0.0362   16.8140 H   0  0  0  0  0  0
   12.2537   -1.1980   14.8038 H   0  0  0  0  0  0
   10.7417   -1.3689   15.6201 H   0  0  0  0  0  0
   11.9482   -3.8878   17.8820 H   0  0  0  0  0  0
   10.5371   -3.0012   17.3878 H   0  0  0  0  0  0
   12.9576   -1.8956   18.9783 H   0  0  0  0  0  0
   11.3162   -2.0570   19.4414 H   0  0  0  0  0  0
    7.0415    0.2076   17.5658 H   0  0  0  0  0  0
    4.9035   -0.5243   16.5791 H   0  0  0  0  0  0
  1  2  1  0  0  0
  1 27  1  0  0  0
  2  3  1  0  0  0
  2 28  1  0  0  0
  2 29  1  0  0  0
  3  4  2  0  0  0
  3 25  1  0  0  0
  4  5  1  0  0  0
  4 30  1  0  0  0
  5  6  1  0  0  0
  5 23  2  0  0  0
  6  7  1  0  0  0
  6 31  1  0  0  0
  7  8  2  0  0  0
  7  9  1  0  0  0
  9 10  1  0  0  0
  9 32  1  0  0  0
  9 33  1  0  0  0
 10 11  2  0  0  0
 10 16  1  0  0  0
 11 12  1  0  0  0
 12 13  2  0  0  0
 12 17  1  0  0  0
 13 14  1  0  0  0
 13 34  1  0  0  0
 14 15  2  0  0  0
 14 16  1  0  0  0
 16 35  1  0  0  0
 17 18  1  0  0  0
 17 22  1  0  0  0
 18 19  1  0  0  0
 18 36  1  0  0  0
 18 37  1  0  0  0
 19 20  1  0  0  0
 19 38  1  0  0  0
 19 39  1  0  0  0
 20 21  1  0  0  0
 21 22  1  0  0  0
 21 40  1  0  0  0
 21 41  1  0  0  0
 22 42  1  0  0  0
 22 43  1  0  0  0
 23 24  1  0  0  0
 23 44  1  0  0  0
 24 25  2  0  0  0
 24 45  1  0  0  0
 25 26  1  0  0  0
M  END
> <s_m_entry_id>
2394

> <s_m_entry_name>
dock_pv.133

> <s_m_Source_Path>
/home/csk/Desktop/cluster/DUD-E-result/akt1

> <s_m_Source_File>
dock_pv.maegz

> <i_m_Source_File_Index>
133

> <chembl_id>
CHEMBL3696252

> <chembl_pref_name>
None

> <i_lp_mmshare_version>
53161

> <i_f3d_flags>
0

> <r_lp_tautomer_probability>
0.994036381586735

> <s_lp_Force_Field>
OPLS_2005

> <r_lp_Energy>
34.45615

> <b_lp_Chiralities_Consistent>
1

> <s_lp_Variant>
CHEMBL4282_lig2160-1

> <s_i_glide_gridfile>
glide-grid_3cqw

> <i_i_glide_lignum>
2890

> <i_i_glide_rotatable_bonds>
7

> <r_i_docking_score>
-6.94092652891217

> <r_i_glide_ligand_efficiency>
-0.266958712650468

> <r_i_glide_ligand_efficiency_sa>
-0.790864135795201

> <r_i_glide_ligand_efficiency_ln>
-1.63005382027747

> <r_i_glide_gscore>
-6.94092652891217

> <r_i_glide_lipo>
-2.02063697172279

> <r_i_glide_hbond>
-0.438006556961075

> <r_i_glide_metal>
0

> <r_i_glide_rewards>
-1.53568400057742

> <r_i_glide_evdw>
-46.1331672668457

> <r_i_glide_ecoul>
-9.14644622802734

> <r_i_glide_erotb>
0.877417544711551

> <r_i_glide_esite>
-0.145391246816059

> <r_i_glide_emodel>
-76.7367163915828

> <r_i_glide_energy>
-55.279613494873

> <r_i_glide_einternal>
5.7845573425293

> <i_i_glide_confnum>
124

> <i_i_glide_posenum>
299

> <r_i_glide_eff_state_penalty>
0

> <s_user_duplicate_titles>
CHEMBL4282_lig2160

> <s_m_subgroup_title>
dock_pv

> <s_m_subgroupid>
dock_pv

> <b_m_subgroup_collapsed>
1

$$$$
CHEMBL4282_lig335
                    3D
 Schrodinger Suite 2021-1.
 50 54  0  0  1  0            999 V2000
   10.6300   -3.7194   17.9236 C   0  0  0  0  0  0
   12.1335   -4.1617   15.5587 C   0  0  0  0  0  0
   11.4310   -5.1927   16.1853 C   0  0  0  0  0  0
   10.7056   -4.9839   17.3513 C   0  0  0  0  0  0
   12.0556   -2.8958   16.1432 C   0  0  0  0  0  0
   11.2836   -2.6388   17.3116 C   0  0  0  0  0  0
   11.3455   -1.2226   17.5650 C   0  0  0  0  0  0
   12.2216   -0.7088   16.6321 C   0  0  0  0  0  0
   12.6309   -1.7003   15.7853 N   0  0  0  0  0  0
   10.5728   -0.4372   18.5984 C   0  0  0  0  0  0
    8.2733    2.8481   18.0987 C   0  0  0  0  0  0
    9.0528    3.9119   17.6223 C   0  0  0  0  0  0
   10.2263    4.2935   18.1847 N   0  0  0  0  0  0
   10.6843    3.5784   19.2387 C   0  0  0  0  0  0
    9.9946    2.4999   19.7896 C   0  0  0  0  0  0
    8.7516    2.1685   19.2281 C   0  0  0  0  0  0
   10.6013    1.8181   20.8225 O   0  0  0  0  0  0
   10.3268    0.4301   21.0148 C   0  0  0  0  0  0
   11.1125   -0.4894   20.0469 C   0  0  1  0  0  0
   11.0308   -1.8522   20.5481 N   0  0  0  0  0  0
    7.0007    2.4447   17.4401 C   0  0  0  0  0  0
    6.6307    1.0930   17.3850 C   0  0  0  0  0  0
    5.4360    0.6708   16.8055 C   0  0  0  0  0  0
    6.1529    3.4133   16.8868 C   0  0  0  0  0  0
    4.9192    3.0234   16.3455 C   0  0  0  0  0  0
    4.5617    1.6425   16.3043 C   0  0  0  0  0  0
    3.3147    1.4371   15.7843 N   0  0  0  0  0  0
    2.8928    2.6827   15.5165 N   0  0  0  0  0  0
    3.7922    3.6829   15.7935 C   0  0  0  0  0  0
   10.0462   -3.5728   18.8181 H   0  0  0  0  0  0
   12.7024   -4.3474   14.6596 H   0  0  0  0  0  0
   11.4708   -6.1959   15.7847 H   0  0  0  0  0  0
   10.1989   -5.8174   17.8189 H   0  0  0  0  0  0
   12.5587    0.3069   16.4785 H   0  0  0  0  0  0
   13.2591   -1.5322   15.0108 H   0  0  0  0  0  0
   10.5902    0.5895   18.2494 H   0  0  0  0  0  0
    9.5202   -0.7264   18.5820 H   0  0  0  0  0  0
    8.7519    4.4842   16.7580 H   0  0  0  0  0  0
   11.6274    3.8924   19.6614 H   0  0  0  0  0  0
    8.1631    1.3658   19.6444 H   0  0  0  0  0  0
    9.2622    0.2000   20.9856 H   0  0  0  0  0  0
   10.6350    0.2195   22.0399 H   0  0  0  0  0  0
   12.1616   -0.1849   20.0500 H   0  0  0  0  0  0
   11.2435   -1.8841   21.5338 H   0  0  0  0  0  0
   10.0669   -2.1632   20.4491 H   0  0  0  0  0  0
    7.2828    0.3414   17.8052 H   0  0  0  0  0  0
    5.1726   -0.3752   16.7892 H   0  0  0  0  0  0
    6.4098    4.4600   16.9354 H   0  0  0  0  0  0
    1.9706    2.8500   15.1285 H   0  0  0  0  0  0
    3.5457    4.7162   15.6108 H   0  0  0  0  0  0
  1  4  2  0  0  0
  1  6  1  0  0  0
  1 30  1  0  0  0
  2  5  1  0  0  0
  2  3  2  0  0  0
  2 31  1  0  0  0
  3  4  1  0  0  0
  3 32  1  0  0  0
  4 33  1  0  0  0
  5  9  1  0  0  0
  5  6  2  0  0  0
  6  7  1  0  0  0
  7  8  2  0  0  0
  7 10  1  0  0  0
  8  9  1  0  0  0
  8 34  1  0  0  0
  9 35  1  0  0  0
 10 19  1  0  0  0
 10 36  1  0  0  0
 10 37  1  0  0  0
 11 16  1  0  0  0
 11 12  2  0  0  0
 11 21  1  0  0  0
 12 13  1  0  0  0
 12 38  1  0  0  0
 13 14  2  0  0  0
 14 15  1  0  0  0
 14 39  1  0  0  0
 15 16  2  0  0  0
 15 17  1  0  0  0
 16 40  1  0  0  0
 17 18  1  0  0  0
 18 19  1  0  0  0
 18 41  1  0  0  0
 18 42  1  0  0  0
 19 20  1  0  0  0
 19 43  1  0  0  0
 20 44  1  0  0  0
 20 45  1  0  0  0
 21 22  1  0  0  0
 21 24  2  0  0  0
 22 23  2  0  0  0
 22 46  1  0  0  0
 23 26  1  0  0  0
 23 47  1  0  0  0
 24 48  1  0  0  0
 24 25  1  0  0  0
 25 26  1  0  0  0
 25 29  2  0  0  0
 26 27  2  0  0  0
 27 28  1  0  0  0
 28 49  1  0  0  0
 28 29  1  0  0  0
 29 50  1  0  0  0
M  END
> <s_m_entry_id>
2395

> <s_m_entry_name>
dock_pv.134

> <s_m_Source_Path>
/home/csk/Desktop/cluster/DUD-E-result/akt1

> <s_m_Source_File>
dock_pv.maegz

> <i_m_Source_File_Index>
134

> <chembl_id>
CHEMBL374805

> <chembl_pref_name>
None

> <i_lp_mmshare_version>
53161

> <i_f3d_flags>
0

> <r_lp_tautomer_probability>
0.0196078431372549

> <s_lp_Force_Field>
OPLS_2005

> <r_lp_Energy>
37.092281

> <b_lp_Chiralities_Consistent>
1

> <s_lp_Variant>
CHEMBL4282_lig335-2

> <s_i_glide_gridfile>
glide-grid_3cqw

> <i_i_glide_lignum>
410

> <i_i_glide_rotatable_bonds>
6

> <r_i_docking_score>
-6.93754853115786

> <r_i_glide_ligand_efficiency>
-0.239225811419237

> <r_i_glide_ligand_efficiency_sa>
-0.734977484736708

> <r_i_glide_ligand_efficiency_ln>
-1.58852269258328

> <r_i_glide_gscore>
-6.93754853115786

> <r_i_glide_lipo>
-2.72053697883076

> <r_i_glide_hbond>
-0.698240643434578

> <r_i_glide_metal>
0

> <r_i_glide_rewards>
-1.52802609875206

> <r_i_glide_evdw>
-45.125659942627

> <r_i_glide_ecoul>
-2.63522481918335

> <r_i_glide_erotb>
0.660821909868389

> <r_i_glide_esite>
0

> <r_i_glide_emodel>
-66.9256401963801

> <r_i_glide_energy>
-47.7608847618103

> <r_i_glide_einternal>
2.48821759223938

> <i_i_glide_confnum>
44

> <i_i_glide_posenum>
104

> <r_i_glide_eff_state_penalty>
0

> <s_user_duplicate_titles>
CHEMBL4282_lig335,379356

> <s_m_subgroup_title>
dock_pv

> <s_m_subgroupid>
dock_pv

> <b_m_subgroup_collapsed>
1

$$$$
CHEMBL4282_lig793
                    3D
 Schrodinger Suite 2021-1.
 51 54  0  0  1  0            999 V2000
    9.5857    2.3645   19.8244 C   0  0  0  0  0  0
    9.8117    2.2369   21.2581 N   0  0  0  0  0  0
   10.9396    2.8205   19.1408 C   0  0  0  0  0  0
    8.4377    3.3908   19.5551 C   0  0  0  0  0  0
    7.9153    3.4566   18.0925 C   0  0  0  0  0  0
    7.4786    2.1332   17.6122 N   0  0  0  0  0  0
    8.5589    1.1409   17.7851 C   0  0  0  0  0  0
    9.0108    1.0457   19.2468 C   0  0  0  0  0  0
    6.2345    1.8430   17.0398 C   0  0  0  0  0  0
    5.8633    0.5303   17.0004 N   0  0  0  0  0  0
    4.6090    0.2360   16.5849 C   0  0  0  0  0  0
    3.6453    1.1003   16.1848 N   0  0  0  0  0  0
    5.3572    2.8333   16.5256 C   0  0  0  0  0  0
    4.0614    2.3685   16.1570 C   0  0  0  0  0  0
    3.3136    3.4613   15.7819 N   0  0  0  0  0  0
    4.1098    4.5830   15.7858 C   0  0  0  0  0  0
    5.3824    4.2369   16.1975 C   0  0  0  0  0  0
   12.0932    2.0850   19.2113 N   0  0  0  0  0  0
   12.2246    0.6978   19.6873 C   0  0  0  0  0  0
   12.2380   -0.3996   18.6146 C   0  0  0  0  0  0
   12.4650   -1.7152   19.0264 C   0  0  0  0  0  0
   12.4688   -2.7524   18.0973 C   0  0  0  0  0  0
   12.2467   -2.4747   16.7506 C   0  0  0  0  0  0
   12.0287   -1.1669   16.3249 C   0  0  0  0  0  0
   12.0198   -0.1306   17.2551 C   0  0  0  0  0  0
   10.9620    3.9220   18.5850 O   0  0  0  0  0  0
   12.2270   -3.7626   15.6045 Cl  0  0  0  0  0  0
   13.3629    2.6032   18.6736 C   0  0  0  0  0  0
    9.8266    3.1921   21.6320 H   0  0  0  0  0  0
   10.7470    1.8997   21.4170 H   0  0  0  0  0  0
    7.6416    3.3308   20.3000 H   0  0  0  0  0  0
    8.8082    4.3902   19.7852 H   0  0  0  0  0  0
    7.0715    4.1413   18.1144 H   0  0  0  0  0  0
    8.6549    3.8782   17.4109 H   0  0  0  0  0  0
    8.2728    0.1499   17.4319 H   0  0  0  0  0  0
    9.4003    1.4493   17.1626 H   0  0  0  0  0  0
    9.7242    0.2336   19.3151 H   0  0  0  0  0  0
    8.2418    0.6379   19.9003 H   0  0  0  0  0  0
    4.3339   -0.8088   16.5967 H   0  0  0  0  0  0
    2.3440    3.4581   15.4915 H   0  0  0  0  0  0
    3.7128    5.5398   15.4804 H   0  0  0  0  0  0
    6.2110    4.9251   16.2815 H   0  0  0  0  0  0
   11.4571    0.4538   20.4189 H   0  0  0  0  0  0
   13.1612    0.6222   20.2418 H   0  0  0  0  0  0
   12.6249   -1.9396   20.0715 H   0  0  0  0  0  0
   12.6308   -3.7692   18.4248 H   0  0  0  0  0  0
   11.8553   -0.9579   15.2795 H   0  0  0  0  0  0
   11.8318    0.8754   16.9108 H   0  0  0  0  0  0
   13.3133    3.6516   18.3736 H   0  0  0  0  0  0
   14.1466    2.5310   19.4296 H   0  0  0  0  0  0
   13.6807    2.0202   17.8086 H   0  0  0  0  0  0
  1  4  1  0  0  0
  1  8  1  0  0  0
  1  3  1  0  0  0
  1  2  1  0  0  0
  2 29  1  0  0  0
  2 30  1  0  0  0
  3 18  1  0  0  0
  3 26  2  0  0  0
  4  5  1  0  0  0
  4 31  1  0  0  0
  4 32  1  0  0  0
  5  6  1  0  0  0
  5 33  1  0  0  0
  5 34  1  0  0  0
  6  7  1  0  0  0
  6  9  1  0  0  0
  7  8  1  0  0  0
  7 35  1  0  0  0
  7 36  1  0  0  0
  8 37  1  0  0  0
  8 38  1  0  0  0
  9 10  2  0  0  0
  9 13  1  0  0  0
 10 11  1  0  0  0
 11 12  2  0  0  0
 11 39  1  0  0  0
 12 14  1  0  0  0
 13 17  1  0  0  0
 13 14  2  0  0  0
 14 15  1  0  0  0
 15 16  1  0  0  0
 15 40  1  0  0  0
 16 17  2  0  0  0
 16 41  1  0  0  0
 17 42  1  0  0  0
 18 19  1  0  0  0
 18 28  1  0  0  0
 19 20  1  0  0  0
 19 43  1  0  0  0
 19 44  1  0  0  0
 20 21  2  0  0  0
 20 25  1  0  0  0
 21 22  1  0  0  0
 21 45  1  0  0  0
 22 23  2  0  0  0
 22 46  1  0  0  0
 23 24  1  0  0  0
 23 27  1  0  0  0
 24 25  2  0  0  0
 24 47  1  0  0  0
 25 48  1  0  0  0
 28 49  1  0  0  0
 28 50  1  0  0  0
 28 51  1  0  0  0
M  END
> <s_m_entry_id>
2396

> <s_m_entry_name>
dock_pv.135

> <s_m_Source_Path>
/home/csk/Desktop/cluster/DUD-E-result/akt1

> <s_m_Source_File>
dock_pv.maegz

> <i_m_Source_File_Index>
135

> <chembl_id>
CHEMBL597803

> <chembl_pref_name>
None

> <i_lp_mmshare_version>
53161

> <i_f3d_flags>
0

> <r_lp_tautomer_probability>
0.999998369746258

> <s_lp_Force_Field>
OPLS_2005

> <r_lp_Energy>
36.063353

> <b_lp_Chiralities_Consistent>
1

> <s_lp_Variant>
CHEMBL4282_lig793-1

> <s_i_glide_gridfile>
glide-grid_3cqw

> <i_i_glide_lignum>
1153

> <i_i_glide_rotatable_bonds>
5

> <r_i_docking_score>
-6.92517526340636

> <r_i_glide_ligand_efficiency>
-0.247327687978799

> <r_i_glide_ligand_efficiency_sa>
-0.751032528921726

> <r_i_glide_ligand_efficiency_ln>
-1.59853378277525

> <r_i_glide_gscore>
-6.92517526340636

> <r_i_glide_lipo>
-1.94705310585026

> <r_i_glide_hbond>
-0.268424159518996

> <r_i_glide_metal>
0

> <r_i_glide_rewards>
-2.3509004011004

> <r_i_glide_evdw>
-47.7312164306641

> <r_i_glide_ecoul>
-2.55125451087952

> <r_i_glide_erotb>
0.492459187290872

> <r_i_glide_esite>
-0.082007786062448

> <r_i_glide_emodel>
-66.7863902205808

> <r_i_glide_energy>
-50.2824709415436

> <r_i_glide_einternal>
1.63112795352936

> <i_i_glide_confnum>
55

> <i_i_glide_posenum>
323

> <r_i_glide_eff_state_penalty>
0

> <s_user_duplicate_titles>
CHEMBL4282_lig793,597003

> <s_m_subgroup_title>
dock_pv

> <s_m_subgroupid>
dock_pv

> <b_m_subgroup_collapsed>
1

$$$$
CHEMBL4282_lig483
                    3D
 Schrodinger Suite 2021-1.
 30 33  0  0  1  0            999 V2000
    3.9318    2.9755   15.9541 C   0  0  0  0  0  0
    4.7712    5.0377   15.7665 C   0  0  0  0  0  0
    5.1800    2.4393   16.4047 C   0  0  0  0  0  0
    9.8122    2.4895   18.7959 C   0  0  0  0  0  0
    3.0306    1.9437   15.8568 N   0  0  0  0  0  0
    8.6870    1.4814   18.7267 C   0  0  0  0  0  0
    6.2060   -0.1628   16.7742 Cl  0  0  0  0  0  0
    4.9846    1.0070   16.4646 C   0  0  0  0  0  0
    3.6566    0.7671   16.1851 C   0  0  0  0  0  0
    3.6719    4.2549   15.6796 N   0  0  0  0  0  0
    6.2002    3.4061   16.6265 C   0  0  0  0  0  0
    6.0086    4.6823   16.1847 N   0  0  0  0  0  0
    7.3919    3.1486   17.3195 N   0  0  0  0  0  0
    8.4237    4.2128   17.4804 C   0  0  0  0  0  0
    9.6581    3.7381   18.2279 C   0  0  0  0  0  0
   10.7796    4.4323   18.5851 N   0  0  0  0  0  0
   11.5475    3.5389   19.2889 C   0  0  0  0  0  0
   10.9737    2.3632   19.4200 N   0  0  0  0  0  0
    7.3676    2.2790   18.5235 C   0  0  0  0  0  0
    4.6340    6.0757   15.5016 H   0  0  0  0  0  0
    2.0557    2.0101   15.5961 H   0  0  0  0  0  0
    8.6221    0.9131   19.6561 H   0  0  0  0  0  0
    8.8142    0.7311   17.9470 H   0  0  0  0  0  0
    3.1073   -0.1626   16.1851 H   0  0  0  0  0  0
    7.9764    5.0736   17.9792 H   0  0  0  0  0  0
    8.7085    4.5825   16.4945 H   0  0  0  0  0  0
   12.4956    3.8464   19.7046 H   0  0  0  0  0  0
   10.9919    5.3992   18.3779 H   0  0  0  0  0  0
    7.1785    2.9036   19.3992 H   0  0  0  0  0  0
    6.5292    1.5916   18.5305 H   0  0  0  0  0  0
  1  3  2  0  0  0
  1  5  1  0  0  0
  1 10  1  0  0  0
  2 10  2  0  0  0
  2 12  1  0  0  0
  2 20  1  0  0  0
  3  8  1  0  0  0
  3 11  1  0  0  0
  4  6  1  0  0  0
  4 15  2  0  0  0
  4 18  1  0  0  0
  5  9  1  0  0  0
  5 21  1  0  0  0
  6 19  1  0  0  0
  6 22  1  0  0  0
  6 23  1  0  0  0
  7  8  1  0  0  0
  8  9  2  0  0  0
  9 24  1  0  0  0
 11 12  2  0  0  0
 11 13  1  0  0  0
 13 14  1  0  0  0
 13 19  1  0  0  0
 14 25  1  0  0  0
 14 26  1  0  0  0
 14 15  1  0  0  0
 15 16  1  0  0  0
 16 28  1  0  0  0
 16 17  1  0  0  0
 17 27  1  0  0  0
 17 18  2  0  0  0
 19 29  1  0  0  0
 19 30  1  0  0  0
M  END
> <s_m_entry_id>
2397

> <s_m_entry_name>
dock_pv.136

> <s_m_Source_Path>
/home/csk/Desktop/cluster/DUD-E-result/akt1

> <s_m_Source_File>
dock_pv.maegz

> <i_m_Source_File_Index>
136

> <chembl_id>
CHEMBL259833

> <chembl_pref_name>
None

> <i_lp_mmshare_version>
53161

> <i_f3d_flags>
0

> <r_lp_tautomer_probability>
0.499999184873128

> <s_lp_Force_Field>
OPLS_2005

> <r_lp_Energy>
16.355133

> <b_lp_Chiralities_Consistent>
1

> <s_lp_Variant>
CHEMBL4282_lig483-2

> <s_i_glide_gridfile>
glide-grid_3cqw

> <i_i_glide_lignum>
639

> <i_i_glide_rotatable_bonds>
1

> <r_i_docking_score>
-6.92323442413249

> <r_i_glide_ligand_efficiency>
-0.364380759164868

> <r_i_glide_ligand_efficiency_sa>
-0.972314217563781

> <r_i_glide_ligand_efficiency_ln>
-1.75518862395877

> <r_i_glide_gscore>
-6.92323442413249

> <r_i_glide_lipo>
-1.26235095865619

> <r_i_glide_hbond>
-0.0249979130990661

> <r_i_glide_metal>
0

> <r_i_glide_rewards>
-3.35368337374631

> <r_i_glide_evdw>
-36.8679008483887

> <r_i_glide_ecoul>
-3.60760235786438

> <r_i_glide_erotb>
0.238012660214232

> <r_i_glide_esite>
-0.135679442746065

> <r_i_glide_emodel>
-53.7347453715959

> <r_i_glide_energy>
-40.4755032062531

> <r_i_glide_einternal>
3.69802069664001

> <i_i_glide_confnum>
2

> <i_i_glide_posenum>
14

> <r_i_glide_eff_state_penalty>
0

> <s_user_duplicate_titles>
CHEMBL4282_lig483,427582

> <s_m_subgroup_title>
dock_pv

> <s_m_subgroupid>
dock_pv

> <b_m_subgroup_collapsed>
1

$$$$
CHEMBL4282_lig795
                    3D
 Schrodinger Suite 2021-1.
 49 52  0  0  1  0            999 V2000
   10.6218    2.1779   19.4854 C   0  0  0  0  0  0
   11.1987    2.3481   20.8123 N   0  0  0  0  0  0
   11.7388    1.6030   18.5442 C   0  0  0  0  0  0
   10.1696    3.5325   18.8984 C   0  0  0  0  0  0
    9.3293    3.4164   17.6060 C   0  0  0  0  0  0
    8.0715    2.6724   17.8284 N   0  0  0  0  0  0
    8.3729    1.3392   18.3917 C   0  0  0  0  0  0
    9.3418    1.3115   19.5985 C   0  0  0  0  0  0
    6.9174    2.9310   17.0667 C   0  0  0  0  0  0
    6.6458    4.2272   16.5902 C   0  0  0  0  0  0
    5.4386    4.5289   15.9652 C   0  0  0  0  0  0
    4.4305    3.6476   15.7833 N   0  0  0  0  0  0
    5.9070    1.9538   16.8052 C   0  0  0  0  0  0
    4.6993    2.4058   16.1851 C   0  0  0  0  0  0
    3.8353    1.3401   16.0889 N   0  0  0  0  0  0
    4.4428    0.2138   16.5814 C   0  0  0  0  0  0
    5.7218    0.5311   16.9890 C   0  0  0  0  0  0
   11.4204    0.6315   17.6698 N   0  0  0  0  0  0
   12.8801    2.0811   18.5839 O   0  0  0  0  0  0
   12.3446    0.0293   16.7107 C   0  0  0  0  0  0
   12.1225   -1.4648   16.5813 C   0  0  0  0  0  0
   12.4545   -2.3122   17.6439 C   0  0  0  0  0  0
   12.2405   -3.6831   17.5312 C   0  0  0  0  0  0
   11.7097   -4.2029   16.3510 C   0  0  0  0  0  0
   11.4063   -3.3618   15.2822 C   0  0  0  0  0  0
   11.6068   -1.9924   15.3959 C   0  0  0  0  0  0
   11.4323   -5.9005   16.2047 Cl  0  0  0  0  0  0
   12.1814    2.5541   20.6921 H   0  0  0  0  0  0
   10.7909    3.1751   21.2500 H   0  0  0  0  0  0
    9.7124    4.1748   19.6533 H   0  0  0  0  0  0
   11.0535    4.1342   18.6751 H   0  0  0  0  0  0
    9.1589    4.4347   17.2684 H   0  0  0  0  0  0
    9.8845    2.9294   16.8035 H   0  0  0  0  0  0
    7.4422    0.9692   18.8179 H   0  0  0  0  0  0
    8.6698    0.6432   17.6070 H   0  0  0  0  0  0
    9.6353    0.2754   19.7798 H   0  0  0  0  0  0
    8.8110    1.5112   20.5324 H   0  0  0  0  0  0
    7.3358    5.0378   16.7427 H   0  0  0  0  0  0
    5.2405    5.5373   15.6342 H   0  0  0  0  0  0
    2.8943    1.3485   15.7220 H   0  0  0  0  0  0
    3.9099   -0.7277   16.5807 H   0  0  0  0  0  0
    6.4094   -0.1870   17.4099 H   0  0  0  0  0  0
   10.4575    0.3313   17.6245 H   0  0  0  0  0  0
   13.3863    0.1957   16.9956 H   0  0  0  0  0  0
   12.2290    0.5239   15.7443 H   0  0  0  0  0  0
   12.8563   -1.9041   18.5624 H   0  0  0  0  0  0
   12.4755   -4.3352   18.3603 H   0  0  0  0  0  0
   10.9944   -3.7592   14.3679 H   0  0  0  0  0  0
   11.3542   -1.3522   14.5637 H   0  0  0  0  0  0
  1  4  1  0  0  0
  1  8  1  0  0  0
  1  3  1  0  0  0
  1  2  1  0  0  0
  2 28  1  0  0  0
  2 29  1  0  0  0
  3 18  1  0  0  0
  3 19  2  0  0  0
  4  5  1  0  0  0
  4 30  1  0  0  0
  4 31  1  0  0  0
  5  6  1  0  0  0
  5 32  1  0  0  0
  5 33  1  0  0  0
  6  7  1  0  0  0
  6  9  1  0  0  0
  7  8  1  0  0  0
  7 34  1  0  0  0
  7 35  1  0  0  0
  8 36  1  0  0  0
  8 37  1  0  0  0
  9 10  2  0  0  0
  9 13  1  0  0  0
 10 11  1  0  0  0
 10 38  1  0  0  0
 11 12  2  0  0  0
 11 39  1  0  0  0
 12 14  1  0  0  0
 13 14  2  0  0  0
 13 17  1  0  0  0
 14 15  1  0  0  0
 15 16  1  0  0  0
 15 40  1  0  0  0
 16 17  2  0  0  0
 16 41  1  0  0  0
 17 42  1  0  0  0
 18 20  1  0  0  0
 18 43  1  0  0  0
 20 21  1  0  0  0
 20 44  1  0  0  0
 20 45  1  0  0  0
 21 22  2  0  0  0
 21 26  1  0  0  0
 22 23  1  0  0  0
 22 46  1  0  0  0
 23 24  2  0  0  0
 23 47  1  0  0  0
 24 25  1  0  0  0
 24 27  1  0  0  0
 25 26  2  0  0  0
 25 48  1  0  0  0
 26 49  1  0  0  0
M  END
> <s_m_entry_id>
2398

> <s_m_entry_name>
dock_pv.137

> <s_m_Source_Path>
/home/csk/Desktop/cluster/DUD-E-result/akt1

> <s_m_Source_File>
dock_pv.maegz

> <i_m_Source_File_Index>
137

> <chembl_id>
CHEMBL599448

> <chembl_pref_name>
None

> <i_lp_mmshare_version>
53161

> <i_f3d_flags>
0

> <r_lp_tautomer_probability>
0.999998432528457

> <s_lp_Force_Field>
OPLS_2005

> <r_lp_Energy>
22.981781

> <b_lp_Chiralities_Consistent>
1

> <s_lp_Variant>
CHEMBL4282_lig795-1

> <s_i_glide_gridfile>
glide-grid_3cqw

> <i_i_glide_lignum>
1156

> <i_i_glide_rotatable_bonds>
5

> <r_i_docking_score>
-6.90984627553872

> <r_i_glide_ligand_efficiency>
-0.25592023242736

> <r_i_glide_ligand_efficiency_sa>
-0.767760696438609

> <r_i_glide_ligand_efficiency_ln>
-1.60849829522641

> <r_i_glide_gscore>
-6.90984627553872

> <r_i_glide_lipo>
-3.07234614140454

> <r_i_glide_hbond>
-0.119221129933726

> <r_i_glide_metal>
0

> <r_i_glide_rewards>
-1.30184392388898

> <r_i_glide_evdw>
-50.9312896728516

> <r_i_glide_ecoul>
-2.52648401260376

> <r_i_glide_erotb>
0.527599679078905

> <r_i_glide_esite>
-0.0184976738572329

> <r_i_glide_emodel>
-66.456118312234

> <r_i_glide_energy>
-53.4577736854553

> <r_i_glide_einternal>
12.008490562439

> <i_i_glide_confnum>
24

> <i_i_glide_posenum>
111

> <r_i_glide_eff_state_penalty>
0

> <s_user_duplicate_titles>
CHEMBL4282_lig795,597069

> <s_m_subgroup_title>
dock_pv

> <s_m_subgroupid>
dock_pv

> <b_m_subgroup_collapsed>
1

$$$$
CHEMBL4282_lig395
                    3D
 Schrodinger Suite 2021-1.
 49 52  0  0  1  0            999 V2000
    6.2649    3.0916   16.9850 C   0  0  0  0  0  0
    7.0342    2.0383   17.4952 C   0  0  0  0  0  0
    6.5443    0.7263   17.3843 C   0  0  0  0  0  0
    5.3162    0.4352   16.7914 C   0  0  0  0  0  0
    5.0194    2.8323   16.4093 C   0  0  0  0  0  0
    4.5350    1.4963   16.3197 C   0  0  0  0  0  0
    3.2811    1.4369   15.7849 N   0  0  0  0  0  0
    2.9993    2.7259   15.5377 N   0  0  0  0  0  0
    3.9956    3.6243   15.8387 C   0  0  0  0  0  0
    3.8960    5.1086   15.6011 C   0  0  0  0  0  0
    8.3616    2.3195   18.1322 C   0  0  0  0  0  0
    9.0894    3.4866   17.8450 C   0  0  0  0  0  0
   10.2842    3.7947   18.4037 N   0  0  0  0  0  0
   10.8309    2.8953   19.2568 C   0  0  0  0  0  0
   10.2231    1.6848   19.5856 C   0  0  0  0  0  0
    8.9532    1.4280   19.0424 C   0  0  0  0  0  0
   10.9208    0.8191   20.4034 O   0  0  0  0  0  0
   10.4966   -0.5395   20.4789 C   0  0  0  0  0  0
   11.6867   -1.4221   20.9072 C   0  0  2  0  0  0
   12.8600   -1.4413   19.8858 C   0  0  0  0  0  0
   11.2146   -2.7708   21.1827 N   0  0  0  0  0  0
   12.4962   -1.8477   18.4497 C   0  0  0  0  0  0
   12.3508   -3.1995   18.1077 C   0  0  0  0  0  0
   11.9963   -3.5701   16.8095 C   0  0  0  0  0  0
   11.7952   -2.5950   15.8373 C   0  0  0  0  0  0
   11.9717   -1.2517   16.1558 C   0  0  0  0  0  0
   12.3178   -0.8758   17.4532 C   0  0  0  0  0  0
   12.4891    0.4368   17.7292 F   0  0  0  0  0  0
   11.4309   -2.9517   14.5859 F   0  0  0  0  0  0
   12.5483   -4.1630   19.0308 F   0  0  0  0  0  0
    6.5971    4.1150   17.0709 H   0  0  0  0  0  0
    7.1260   -0.1041   17.7564 H   0  0  0  0  0  0
    4.9595   -0.5819   16.7337 H   0  0  0  0  0  0
    2.1036    2.9950   15.1450 H   0  0  0  0  0  0
    3.8306    5.6619   16.5362 H   0  0  0  0  0  0
    4.7778    5.4802   15.0815 H   0  0  0  0  0  0
    3.0372    5.3665   14.9882 H   0  0  0  0  0  0
    8.7320    4.2222   17.1438 H   0  0  0  0  0  0
   11.7929    3.1553   19.6759 H   0  0  0  0  0  0
    8.4275    0.5313   19.3303 H   0  0  0  0  0  0
   10.1154   -0.9082   19.5258 H   0  0  0  0  0  0
    9.6781   -0.6089   21.1940 H   0  0  0  0  0  0
   12.0735   -1.0235   21.8474 H   0  0  0  0  0  0
   13.6480   -2.1004   20.2495 H   0  0  0  0  0  0
   13.3135   -0.4483   19.8647 H   0  0  0  0  0  0
   10.3862   -2.7411   21.7617 H   0  0  0  0  0  0
   10.9178   -3.2041   20.3184 H   0  0  0  0  0  0
   11.8762   -4.6147   16.5619 H   0  0  0  0  0  0
   11.8317   -0.4954   15.3990 H   0  0  0  0  0  0
  1  2  2  0  0  0
  1 31  1  0  0  0
  1  5  1  0  0  0
  2  3  1  0  0  0
  2 11  1  0  0  0
  3  4  2  0  0  0
  3 32  1  0  0  0
  4  6  1  0  0  0
  4 33  1  0  0  0
  5  6  1  0  0  0
  5  9  2  0  0  0
  6  7  2  0  0  0
  7  8  1  0  0  0
  8 34  1  0  0  0
  8  9  1  0  0  0
  9 10  1  0  0  0
 10 35  1  0  0  0
 10 36  1  0  0  0
 10 37  1  0  0  0
 11 16  1  0  0  0
 11 12  2  0  0  0
 12 13  1  0  0  0
 12 38  1  0  0  0
 13 14  2  0  0  0
 14 15  1  0  0  0
 14 39  1  0  0  0
 15 16  2  0  0  0
 15 17  1  0  0  0
 16 40  1  0  0  0
 17 18  1  0  0  0
 18 19  1  0  0  0
 18 41  1  0  0  0
 18 42  1  0  0  0
 19 20  1  0  0  0
 19 21  1  0  0  0
 19 43  1  0  0  0
 20 22  1  0  0  0
 20 44  1  0  0  0
 20 45  1  0  0  0
 21 46  1  0  0  0
 21 47  1  0  0  0
 22 23  2  0  0  0
 22 27  1  0  0  0
 23 24  1  0  0  0
 23 30  1  0  0  0
 24 25  2  0  0  0
 24 48  1  0  0  0
 25 26  1  0  0  0
 25 29  1  0  0  0
 26 27  2  0  0  0
 26 49  1  0  0  0
 27 28  1  0  0  0
M  END
> <s_m_entry_id>
2399

> <s_m_entry_name>
dock_pv.138

> <s_m_Source_Path>
/home/csk/Desktop/cluster/DUD-E-result/akt1

> <s_m_Source_File>
dock_pv.maegz

> <i_m_Source_File_Index>
138

> <chembl_id>
CHEMBL388809

> <chembl_pref_name>
None

> <i_lp_mmshare_version>
53161

> <i_f3d_flags>
0

> <r_lp_tautomer_probability>
0.0196078431372549

> <s_lp_Force_Field>
OPLS_2005

> <r_lp_Energy>
38.177792

> <b_lp_Chiralities_Consistent>
1

> <s_lp_Variant>
CHEMBL4282_lig395-2

> <s_i_glide_gridfile>
glide-grid_3cqw

> <i_i_glide_lignum>
526

> <i_i_glide_rotatable_bonds>
6

> <r_i_docking_score>
-6.90757956341479

> <r_i_glide_ligand_efficiency>
-0.230252652113826

> <r_i_glide_ligand_efficiency_sa>
-0.715448524419039

> <r_i_glide_ligand_efficiency_ln>
-1.56947734091537

> <r_i_glide_gscore>
-6.90757956341479

> <r_i_glide_lipo>
-2.65206499529472

> <r_i_glide_hbond>
-0.32

> <r_i_glide_metal>
0

> <r_i_glide_rewards>
-2.00944530827919

> <r_i_glide_evdw>
-46.7024116516113

> <r_i_glide_ecoul>
-1.11887216567993

> <r_i_glide_erotb>
0.579687232176698

> <r_i_glide_esite>
-0.00280508458502166

> <r_i_glide_emodel>
-67.4554715247169

> <r_i_glide_energy>
-47.8212838172913

> <r_i_glide_einternal>
1.94429910182953

> <i_i_glide_confnum>
22

> <i_i_glide_posenum>
175

> <r_i_glide_eff_state_penalty>
0

> <s_user_duplicate_titles>
CHEMBL4282_lig395,381938

> <s_m_subgroup_title>
dock_pv

> <s_m_subgroupid>
dock_pv

> <b_m_subgroup_collapsed>
1

$$$$
CHEMBL4282_lig2221
                    3D
 Schrodinger Suite 2021-1.
 42 44  0  0  1  0            999 V2000
   10.2464   -2.2593   18.1850 O   0  0  0  0  0  0
   11.3112   -1.7362   18.8803 C   0  0  0  0  0  0
   12.5132   -2.4526   18.9405 C   0  0  0  0  0  0
   12.6645   -3.6102   18.2535 F   0  0  0  0  0  0
   13.5660   -1.9883   19.7293 C   0  0  0  0  0  0
   13.4361   -0.8024   20.4500 C   0  0  0  0  0  0
   12.2471   -0.0777   20.3906 C   0  0  0  0  0  0
   11.1830   -0.5360   19.6088 C   0  0  0  0  0  0
   10.0133    0.2371   19.6005 N   0  0  0  0  0  0
    9.4856    0.8348   18.5145 C   0  0  0  0  0  0
    9.9892    0.7851   17.3892 O   0  0  0  0  0  0
    8.1823    1.6093   18.7510 C   0  0  0  0  0  0
    7.0480    1.1970   17.8232 C   0  0  0  0  0  0
    6.4112    2.0875   17.1499 N   0  0  0  0  0  0
    5.3168    1.7156   16.4193 C   0  0  0  0  0  0
    4.9082    0.4302   16.3466 C   0  0  0  0  0  0
    5.5282   -0.5630   17.1637 C   0  0  0  0  0  0
    5.0310   -1.6631   17.3850 O   0  0  0  0  0  0
    6.6392   -0.1107   17.7850 N   0  0  0  0  0  0
    4.6328    2.7259   15.7835 N   0  0  0  0  0  0
    5.1940    4.0386   15.3850 C   0  0  0  0  0  0
    4.4123    5.1585   16.0549 C   0  0  0  0  0  0
    3.0336    5.0370   15.7672 O   0  0  0  0  0  0
    2.5096    3.8370   16.3204 C   0  0  0  0  0  0
    3.1721    2.6642   15.5972 C   0  0  0  0  0  0
    9.4572   -2.2527   18.7527 H   0  0  0  0  0  0
   14.4843   -2.5534   19.7853 H   0  0  0  0  0  0
   14.2550   -0.4449   21.0572 H   0  0  0  0  0  0
   12.1584    0.8424   20.9521 H   0  0  0  0  0  0
    9.5641    0.3900   20.4913 H   0  0  0  0  0  0
    7.8434    1.5010   19.7825 H   0  0  0  0  0  0
    8.4089    2.6681   18.6211 H   0  0  0  0  0  0
    4.0443    0.1310   15.7850 H   0  0  0  0  0  0
    7.0308   -0.7484   18.4645 H   0  0  0  0  0  0
    6.2074    4.1122   15.7806 H   0  0  0  0  0  0
    5.4301    4.1949   14.3353 H   0  0  0  0  0  0
    4.7942    6.1429   15.7842 H   0  0  0  0  0  0
    4.5591    5.0370   17.1165 H   0  0  0  0  0  0
    1.4310    3.8063   16.1921 H   0  0  0  0  0  0
    2.6667    3.7799   17.4000 H   0  0  0  0  0  0
    2.8491    2.4358   14.5850 H   0  0  0  0  0  0
    2.7754    1.7898   16.1122 H   0  0  0  0  0  0
  1  2  1  0  0  0
  1 26  1  0  0  0
  2  3  2  0  0  0
  2  8  1  0  0  0
  3  4  1  0  0  0
  3  5  1  0  0  0
  5  6  2  0  0  0
  5 27  1  0  0  0
  6  7  1  0  0  0
  6 28  1  0  0  0
  7  8  2  0  0  0
  7 29  1  0  0  0
  8  9  1  0  0  0
  9 10  1  0  0  0
  9 30  1  0  0  0
 10 11  2  0  0  0
 10 12  1  0  0  0
 12 13  1  0  0  0
 12 31  1  0  0  0
 12 32  1  0  0  0
 13 14  2  0  0  0
 13 19  1  0  0  0
 14 15  1  0  0  0
 15 16  2  0  0  0
 15 20  1  0  0  0
 16 17  1  0  0  0
 16 33  1  0  0  0
 17 18  2  0  0  0
 17 19  1  0  0  0
 19 34  1  0  0  0
 20 21  1  0  0  0
 20 25  1  0  0  0
 21 22  1  0  0  0
 21 35  1  0  0  0
 21 36  1  0  0  0
 22 23  1  0  0  0
 22 37  1  0  0  0
 22 38  1  0  0  0
 23 24  1  0  0  0
 24 25  1  0  0  0
 24 39  1  0  0  0
 24 40  1  0  0  0
 25 41  1  0  0  0
 25 42  1  0  0  0
M  END
> <s_m_entry_id>
2400

> <s_m_entry_name>
dock_pv.139

> <s_m_Source_Path>
/home/csk/Desktop/cluster/DUD-E-result/akt1

> <s_m_Source_File>
dock_pv.maegz

> <i_m_Source_File_Index>
139

> <chembl_id>
CHEMBL3696295

> <chembl_pref_name>
None

> <i_lp_mmshare_version>
53161

> <i_f3d_flags>
0

> <r_lp_tautomer_probability>
0.994036381584116

> <s_lp_Force_Field>
OPLS_2005

> <r_lp_Energy>
32.536332

> <b_lp_Chiralities_Consistent>
1

> <s_lp_Variant>
CHEMBL4282_lig2221-1

> <s_i_glide_gridfile>
glide-grid_3cqw

> <i_i_glide_lignum>
2953

> <i_i_glide_rotatable_bonds>
6

> <r_i_docking_score>
-6.90155866651196

> <r_i_glide_ligand_efficiency>
-0.276062346660479

> <r_i_glide_ligand_efficiency_sa>
-0.807211197621804

> <r_i_glide_ligand_efficiency_ln>
-1.63587622698698

> <r_i_glide_gscore>
-6.90155866651196

> <r_i_glide_lipo>
-1.53815183178713

> <r_i_glide_hbond>
-0.333017006268843

> <r_i_glide_metal>
0

> <r_i_glide_rewards>
-2.04330185894711

> <r_i_glide_evdw>
-22.8593673706055

> <r_i_glide_ecoul>
-16.00657081604

> <r_i_glide_erotb>
0.784421812109544

> <r_i_glide_esite>
-0.22755579068215

> <r_i_glide_emodel>
-53.0818593619125

> <r_i_glide_energy>
-38.8659381866455

> <r_i_glide_einternal>
6.92107248306274

> <i_i_glide_confnum>
282

> <i_i_glide_posenum>
388

> <r_i_glide_eff_state_penalty>
0

> <s_user_duplicate_titles>
CHEMBL4282_lig2221

> <s_m_subgroup_title>
dock_pv

> <s_m_subgroupid>
dock_pv

> <b_m_subgroup_collapsed>
1

$$$$
CHEMBL4282_lig391
                    3D
 Schrodinger Suite 2021-1.
 49 52  0  0  1  0            999 V2000
    6.2852    3.0669   16.9873 C   0  0  0  0  0  0
    7.0487    2.0055   17.5025 C   0  0  0  0  0  0
    6.5467    0.6987   17.3774 C   0  0  0  0  0  0
    5.3177    0.4202   16.7806 C   0  0  0  0  0  0
    5.0338    2.8205   16.4100 C   0  0  0  0  0  0
    4.5427    1.4889   16.3182 C   0  0  0  0  0  0
    3.2888    1.4365   15.7847 N   0  0  0  0  0  0
    3.0108    2.7249   15.5355 N   0  0  0  0  0  0
    4.0084    3.6186   15.8429 C   0  0  0  0  0  0
    3.9003    5.1025   15.5993 C   0  0  0  0  0  0
    8.3786    2.2625   18.1564 C   0  0  0  0  0  0
    9.0705    3.4770   17.9933 C   0  0  0  0  0  0
   10.2737    3.7496   18.5537 N   0  0  0  0  0  0
   10.8650    2.7749   19.2829 C   0  0  0  0  0  0
   10.2975    1.5197   19.4863 C   0  0  0  0  0  0
    9.0192    1.2946   18.9509 C   0  0  0  0  0  0
   11.0541    0.5804   20.1611 O   0  0  0  0  0  0
   10.6379   -0.7849   20.1444 C   0  0  0  0  0  0
   11.8548   -1.7037   20.3879 C   0  0  2  0  0  0
   12.8769   -1.7395   19.2164 C   0  0  0  0  0  0
   11.3927   -3.0476   20.7034 N   0  0  0  0  0  0
   12.3586   -2.2796   17.8749 C   0  0  0  0  0  0
   12.0393   -1.4356   16.7933 C   0  0  0  0  0  0
   11.5802   -1.9803   15.5913 C   0  0  0  0  0  0
   11.4315   -3.3563   15.4498 C   0  0  0  0  0  0
   11.7464   -4.2000   16.5128 C   0  0  0  0  0  0
   12.2177   -3.6644   17.7112 C   0  0  0  0  0  0
   12.2304    0.4581   16.8891 Br  0  0  0  0  0  0
    6.6187    4.0869   17.0737 H   0  0  0  0  0  0
    7.1116   -0.1454   17.7399 H   0  0  0  0  0  0
    4.9560   -0.5954   16.7134 H   0  0  0  0  0  0
    2.1170    2.9943   15.1387 H   0  0  0  0  0  0
    4.7827    5.4722   15.0755 H   0  0  0  0  0  0
    3.0356    5.3566   14.9851 H   0  0  0  0  0  0
    3.8314    5.6597   16.5348 H   0  0  0  0  0  0
    8.6804    4.2847   17.3948 H   0  0  0  0  0  0
   11.8317    3.0164   19.6972 H   0  0  0  0  0  0
    8.5320    0.3559   19.1531 H   0  0  0  0  0  0
   10.1853   -1.0682   19.1932 H   0  0  0  0  0  0
    9.8774   -0.9222   20.9155 H   0  0  0  0  0  0
   12.3762   -1.3349   21.2738 H   0  0  0  0  0  0
   13.7274   -2.3530   19.5149 H   0  0  0  0  0  0
   13.3058   -0.7464   19.0823 H   0  0  0  0  0  0
   10.7678   -3.0118   21.4982 H   0  0  0  0  0  0
   10.8187   -3.3753   19.9372 H   0  0  0  0  0  0
   11.3391   -1.3323   14.7616 H   0  0  0  0  0  0
   11.0703   -3.7615   14.5172 H   0  0  0  0  0  0
   11.6314   -5.2683   16.4055 H   0  0  0  0  0  0
   12.4648   -4.3296   18.5265 H   0  0  0  0  0  0
  1  2  2  0  0  0
  1 29  1  0  0  0
  1  5  1  0  0  0
  2  3  1  0  0  0
  2 11  1  0  0  0
  3  4  2  0  0  0
  3 30  1  0  0  0
  4  6  1  0  0  0
  4 31  1  0  0  0
  5  6  1  0  0  0
  5  9  2  0  0  0
  6  7  2  0  0  0
  7  8  1  0  0  0
  8 32  1  0  0  0
  8  9  1  0  0  0
  9 10  1  0  0  0
 10 33  1  0  0  0
 10 34  1  0  0  0
 10 35  1  0  0  0
 11 16  1  0  0  0
 11 12  2  0  0  0
 12 13  1  0  0  0
 12 36  1  0  0  0
 13 14  2  0  0  0
 14 15  1  0  0  0
 14 37  1  0  0  0
 15 16  2  0  0  0
 15 17  1  0  0  0
 16 38  1  0  0  0
 17 18  1  0  0  0
 18 19  1  0  0  0
 18 39  1  0  0  0
 18 40  1  0  0  0
 19 20  1  0  0  0
 19 21  1  0  0  0
 19 41  1  0  0  0
 20 22  1  0  0  0
 20 42  1  0  0  0
 20 43  1  0  0  0
 21 44  1  0  0  0
 21 45  1  0  0  0
 22 23  2  0  0  0
 22 27  1  0  0  0
 23 24  1  0  0  0
 23 28  1  0  0  0
 24 25  2  0  0  0
 24 46  1  0  0  0
 25 26  1  0  0  0
 25 47  1  0  0  0
 26 27  2  0  0  0
 26 48  1  0  0  0
 27 49  1  0  0  0
M  END
> <s_m_entry_id>
2401

> <s_m_entry_name>
dock_pv.140

> <s_m_Source_Path>
/home/csk/Desktop/cluster/DUD-E-result/akt1

> <s_m_Source_File>
dock_pv.maegz

> <i_m_Source_File_Index>
140

> <chembl_id>
CHEMBL229854

> <chembl_pref_name>
None

> <i_lp_mmshare_version>
53161

> <i_f3d_flags>
0

> <r_lp_tautomer_probability>
0.0196078431372549

> <s_lp_Force_Field>
OPLS_2005

> <r_lp_Energy>
40.845923

> <b_lp_Chiralities_Consistent>
1

> <s_lp_Variant>
CHEMBL4282_lig391-2

> <s_i_glide_gridfile>
glide-grid_3cqw

> <i_i_glide_lignum>
518

> <i_i_glide_rotatable_bonds>
6

> <r_i_docking_score>
-6.89546857082326

> <r_i_glide_ligand_efficiency>
-0.246266734672259

> <r_i_glide_ligand_efficiency_sa>
-0.747810849814993

> <r_i_glide_ligand_efficiency_ln>
-1.59167660590067

> <r_i_glide_gscore>
-6.89546857082326

> <r_i_glide_lipo>
-3.08981303816364

> <r_i_glide_hbond>
-0.32

> <r_i_glide_metal>
0

> <r_i_glide_rewards>
-1.27312326523741

> <r_i_glide_evdw>
-49.7709083557129

> <r_i_glide_ecoul>
-1.63519597053528

> <r_i_glide_erotb>
0.52129254594372

> <r_i_glide_esite>
0

> <r_i_glide_emodel>
-71.7880655656027

> <r_i_glide_energy>
-51.4061043262482

> <r_i_glide_einternal>
2.79210352897644

> <i_i_glide_confnum>
49

> <i_i_glide_posenum>
35

> <r_i_glide_eff_state_penalty>
0

> <s_user_duplicate_titles>
CHEMBL4282_lig391,381942

> <s_m_subgroup_title>
dock_pv

> <s_m_subgroupid>
dock_pv

> <b_m_subgroup_collapsed>
1

$$$$
CHEMBL4282_lig975
                    3D
 Schrodinger Suite 2021-1.
 48 51  0  0  1  0            999 V2000
   11.8910   -0.6627   20.1560 C   0  0  0  0  0  0
   10.7365    0.3610   20.1304 C   0  0  2  0  0  0
   10.7634    1.2984   18.8802 C   0  0  0  0  0  0
    9.6946    2.0995   18.6014 N   0  0  0  0  0  0
   11.7942    1.3529   18.1986 O   0  0  0  0  0  0
    9.8312    3.1007   17.5227 C   0  0  0  0  0  0
    8.5126    3.8732   17.2810 C   0  0  0  0  0  0
    7.3129    3.0242   17.1838 N   0  0  0  0  0  0
    7.3094    1.9119   18.1533 C   0  0  0  0  0  0
    8.3832    1.9569   19.2582 C   0  0  0  0  0  0
    6.1264    3.4509   16.5850 C   0  0  0  0  0  0
    3.6787    4.5002   15.6384 N   0  0  0  0  0  0
    4.8300    5.2027   15.7706 C   0  0  0  0  0  0
    6.0387    4.7495   16.1850 N   0  0  0  0  0  0
    4.7436    1.1812   16.5198 C   0  0  0  0  0  0
    3.4310    1.0099   16.1418 C   0  0  0  0  0  0
    2.8815    2.2200   15.7851 N   0  0  0  0  0  0
    3.8350    3.2020   15.9116 C   0  0  0  0  0  0
    5.0298    2.5824   16.3825 C   0  0  0  0  0  0
   10.5709    1.1097   21.4910 C   0  0  0  0  0  0
   11.4688    2.2371   21.6890 N   0  0  0  0  0  0
   11.6337   -2.0086   19.8647 C   0  0  0  0  0  0
   12.6659   -2.9440   19.8804 C   0  0  0  0  0  0
   13.9630   -2.5379   20.1847 C   0  0  0  0  0  0
   14.2324   -1.2019   20.4763 C   0  0  0  0  0  0
   13.2004   -0.2670   20.4576 C   0  0  0  0  0  0
   15.2455   -3.6959   20.1846 Cl  0  0  0  0  0  0
    9.8401   -0.2490   20.0181 H   0  0  0  0  0  0
   10.6051    3.8246   17.7849 H   0  0  0  0  0  0
   10.0936    2.5951   16.5923 H   0  0  0  0  0  0
    8.6142    4.5185   16.4075 H   0  0  0  0  0  0
    8.3429    4.5064   18.1540 H   0  0  0  0  0  0
    7.4886    1.0106   17.5650 H   0  0  0  0  0  0
    6.3305    1.8129   18.6264 H   0  0  0  0  0  0
    8.2648    1.0401   19.8324 H   0  0  0  0  0  0
    8.1951    2.8024   19.9218 H   0  0  0  0  0  0
    4.7774    6.2523   15.5211 H   0  0  0  0  0  0
    5.4039    0.3916   16.8455 H   0  0  0  0  0  0
    2.8440    0.1048   16.0835 H   0  0  0  0  0  0
    1.9263    2.3352   15.4719 H   0  0  0  0  0  0
    9.5540    1.4865   21.5969 H   0  0  0  0  0  0
   10.7144    0.4112   22.3157 H   0  0  0  0  0  0
   11.2853    2.9424   20.9851 H   0  0  0  0  0  0
   11.2429    2.7096   22.5565 H   0  0  0  0  0  0
   10.6315   -2.3378   19.6301 H   0  0  0  0  0  0
   12.4575   -3.9804   19.6585 H   0  0  0  0  0  0
   15.2384   -0.8861   20.7098 H   0  0  0  0  0  0
   13.4192    0.7687   20.6722 H   0  0  0  0  0  0
  1 22  2  0  0  0
  1  2  1  0  0  0
  1 26  1  0  0  0
  2 20  1  0  0  0
  2  3  1  0  0  0
  2 28  1  0  0  0
  3  4  1  0  0  0
  3  5  2  0  0  0
  4 10  1  0  0  0
  4  6  1  0  0  0
  6  7  1  0  0  0
  6 29  1  0  0  0
  6 30  1  0  0  0
  7  8  1  0  0  0
  7 31  1  0  0  0
  7 32  1  0  0  0
  8 11  1  0  0  0
  8  9  1  0  0  0
  9 10  1  0  0  0
  9 33  1  0  0  0
  9 34  1  0  0  0
 10 35  1  0  0  0
 10 36  1  0  0  0
 11 14  2  0  0  0
 11 19  1  0  0  0
 12 18  1  0  0  0
 12 13  2  0  0  0
 13 14  1  0  0  0
 13 37  1  0  0  0
 15 16  2  0  0  0
 15 19  1  0  0  0
 15 38  1  0  0  0
 16 17  1  0  0  0
 16 39  1  0  0  0
 17 18  1  0  0  0
 17 40  1  0  0  0
 18 19  2  0  0  0
 20 21  1  0  0  0
 20 41  1  0  0  0
 20 42  1  0  0  0
 21 43  1  0  0  0
 21 44  1  0  0  0
 22 23  1  0  0  0
 22 45  1  0  0  0
 23 24  2  0  0  0
 23 46  1  0  0  0
 24 25  1  0  0  0
 24 27  1  0  0  0
 25 26  2  0  0  0
 25 47  1  0  0  0
 26 48  1  0  0  0
M  END
> <s_m_entry_id>
2402

> <s_m_entry_name>
dock_pv.141

> <s_m_Source_Path>
/home/csk/Desktop/cluster/DUD-E-result/akt1

> <s_m_Source_File>
dock_pv.maegz

> <i_m_Source_File_Index>
141

> <chembl_id>
CHEMBL1257402

> <chembl_pref_name>
None

> <i_lp_mmshare_version>
53161

> <i_f3d_flags>
0

> <r_lp_tautomer_probability>
0.999998369746258

> <s_lp_Force_Field>
OPLS_2005

> <r_lp_Energy>
36.314728

> <b_lp_Chiralities_Consistent>
1

> <s_lp_Variant>
CHEMBL4282_lig975-1

> <s_i_glide_gridfile>
glide-grid_3cqw

> <i_i_glide_lignum>
1371

> <i_i_glide_rotatable_bonds>
5

> <r_i_docking_score>
-6.8906982440322

> <r_i_glide_ligand_efficiency>
-0.255211046075267

> <r_i_glide_ligand_efficiency_sa>
-0.765633137384666

> <r_i_glide_ligand_efficiency_ln>
-1.60404094917166

> <r_i_glide_gscore>
-6.8906982440322

> <r_i_glide_lipo>
-1.30244497256734

> <r_i_glide_hbond>
-0.219981198120451

> <r_i_glide_metal>
0

> <r_i_glide_rewards>
-2.60185326346601

> <r_i_glide_evdw>
-40.8387641906738

> <r_i_glide_ecoul>
-6.96954774856567

> <r_i_glide_erotb>
0.367620944500217

> <r_i_glide_esite>
-0.0466693825600725

> <r_i_glide_emodel>
-66.656407950142

> <r_i_glide_energy>
-47.8083119392395

> <r_i_glide_einternal>
0.923883199691772

> <i_i_glide_confnum>
140

> <i_i_glide_posenum>
87

> <r_i_glide_eff_state_penalty>
0

> <s_user_duplicate_titles>
CHEMBL4282_lig975

> <s_m_subgroup_title>
dock_pv

> <s_m_subgroupid>
dock_pv

> <b_m_subgroup_collapsed>
1

$$$$
CHEMBL4282_lig2184
                    3D
 Schrodinger Suite 2021-1.
 43 45  0  0  1  0            999 V2000
    3.0319    4.2366   15.7854 O   0  5  0  0  0  0
    4.2586    4.1954   15.7846 N   0  3  0  0  0  0
    4.9569    5.1235   15.3950 O   0  0  0  0  0  0
    4.9347    2.9819   16.2934 C   0  0  0  0  0  0
    6.1753    3.0901   16.9410 C   0  0  0  0  0  0
    6.8227    1.9584   17.4540 C   0  0  0  0  0  0
    8.0358    2.0262   18.1561 N   0  0  0  0  0  0
    9.0590    2.8851   17.9307 C   0  0  0  0  0  0
    9.0691    3.7076   17.0136 O   0  0  0  0  0  0
   10.2931    2.8124   18.8515 C   0  0  0  0  0  0
   10.7271    1.3936   19.2032 C   0  0  0  0  0  0
   11.2088    0.5989   18.3132 N   0  0  0  0  0  0
   11.5712   -0.6794   18.6539 C   0  0  0  0  0  0
   11.4325   -1.1187   19.9323 C   0  0  0  0  0  0
   10.9107   -0.2517   20.9618 C   0  0  0  0  0  0
   10.7881   -0.5634   22.1383 O   0  0  0  0  0  0
   10.5822    0.9723   20.4933 N   0  0  0  0  0  0
   12.0798   -1.4646   17.6131 N   0  0  0  0  0  0
   12.2698   -1.0466   16.2095 C   0  0  0  0  0  0
   11.4311   -1.9277   15.2599 C   0  0  0  0  0  0
   11.8180   -3.2915   15.3960 O   0  0  0  0  0  0
   11.6464   -3.7534   16.7320 C   0  0  0  0  0  0
   12.4829   -2.8825   17.7004 C   0  0  0  0  0  0
    6.2289    0.7038   17.3121 C   0  0  0  0  0  0
    5.0191    0.5787   16.6276 C   0  0  0  0  0  0
    4.3714    1.7077   16.1234 C   0  0  0  0  0  0
    3.1952    1.5467   15.4722 F   0  0  0  0  0  0
    6.6152    4.0688   17.0734 H   0  0  0  0  0  0
    8.1773    1.3048   18.8498 H   0  0  0  0  0  0
   11.1253    3.3258   18.3692 H   0  0  0  0  0  0
   10.0675    3.3879   19.7508 H   0  0  0  0  0  0
   11.6968   -2.1086   20.2440 H   0  0  0  0  0  0
   10.2315    1.6061   21.1935 H   0  0  0  0  0  0
   11.8844   -0.0343   16.0766 H   0  0  0  0  0  0
   13.3152   -0.8812   15.9502 H   0  0  0  0  0  0
   11.5828   -1.6151   14.2281 H   0  0  0  0  0  0
   10.3667   -1.7962   15.4476 H   0  0  0  0  0  0
   11.9619   -4.7942   16.7972 H   0  0  0  0  0  0
   10.5927   -3.7478   17.0126 H   0  0  0  0  0  0
   13.5644   -3.0192   17.6866 H   0  0  0  0  0  0
   12.2570   -3.2734   18.6891 H   0  0  0  0  0  0
    6.7022   -0.1751   17.7287 H   0  0  0  0  0  0
    4.5589   -0.3908   16.5226 H   0  0  0  0  0  0
  1  2  1  0  0  0
  2  3  2  0  0  0
  2  4  1  0  0  0
  4  5  2  0  0  0
  4 26  1  0  0  0
  5  6  1  0  0  0
  5 28  1  0  0  0
  6  7  1  0  0  0
  6 24  2  0  0  0
  7  8  1  0  0  0
  7 29  1  0  0  0
  8  9  2  0  0  0
  8 10  1  0  0  0
 10 11  1  0  0  0
 10 30  1  0  0  0
 10 31  1  0  0  0
 11 12  2  0  0  0
 11 17  1  0  0  0
 12 13  1  0  0  0
 13 14  2  0  0  0
 13 18  1  0  0  0
 14 15  1  0  0  0
 14 32  1  0  0  0
 15 16  2  0  0  0
 15 17  1  0  0  0
 17 33  1  0  0  0
 18 19  1  0  0  0
 18 23  1  0  0  0
 19 20  1  0  0  0
 19 34  1  0  0  0
 19 35  1  0  0  0
 20 21  1  0  0  0
 20 36  1  0  0  0
 20 37  1  0  0  0
 21 22  1  0  0  0
 22 23  1  0  0  0
 22 38  1  0  0  0
 22 39  1  0  0  0
 23 40  1  0  0  0
 23 41  1  0  0  0
 24 25  1  0  0  0
 24 42  1  0  0  0
 25 26  2  0  0  0
 25 43  1  0  0  0
 26 27  1  0  0  0
M  CHG  2   1  -1   2   1
M  END
> <s_m_entry_id>
2403

> <s_m_entry_name>
dock_pv.142

> <s_m_Source_Path>
/home/csk/Desktop/cluster/DUD-E-result/akt1

> <s_m_Source_File>
dock_pv.maegz

> <i_m_Source_File_Index>
142

> <chembl_id>
CHEMBL2151929

> <chembl_pref_name>
None

> <i_lp_mmshare_version>
53161

> <i_f3d_flags>
0

> <r_lp_tautomer_probability>
0.994036381586735

> <s_lp_Force_Field>
OPLS_2005

> <r_lp_Energy>
34.242247

> <b_lp_Chiralities_Consistent>
1

> <s_lp_Variant>
CHEMBL4282_lig2184-1

> <s_i_glide_gridfile>
glide-grid_3cqw

> <i_i_glide_lignum>
2915

> <i_i_glide_rotatable_bonds>
6

> <r_i_docking_score>
-6.88858130095368

> <r_i_glide_ligand_efficiency>
-0.255132640776062

> <r_i_glide_ligand_efficiency_sa>
-0.765397921487312

> <r_i_glide_ligand_efficiency_ln>
-1.60354815972352

> <r_i_glide_gscore>
-6.88858130095368

> <r_i_glide_lipo>
-1.90691327547337

> <r_i_glide_hbond>
-0.32

> <r_i_glide_metal>
0

> <r_i_glide_rewards>
-1.71857851906187

> <r_i_glide_evdw>
-49.5846328735352

> <r_i_glide_ecoul>
-7.26361656188965

> <r_i_glide_erotb>
0.680145627461131

> <r_i_glide_esite>
-0.0544610059193662

> <r_i_glide_emodel>
-79.8723344615767

> <r_i_glide_energy>
-56.8482494354248

> <r_i_glide_einternal>
4.54977321624756

> <i_i_glide_confnum>
203

> <i_i_glide_posenum>
361

> <r_i_glide_eff_state_penalty>
0

> <s_user_duplicate_titles>
CHEMBL4282_lig2184

> <s_m_subgroup_title>
dock_pv

> <s_m_subgroupid>
dock_pv

> <b_m_subgroup_collapsed>
1

$$$$
CHEMBL4282_lig646
                    3D
 Schrodinger Suite 2021-1.
 41 44  0  0  1  0            999 V2000
    3.2501    3.4494   15.7912 C   0  0  0  0  0  0
    3.4263    4.7554   15.4828 N   0  0  0  0  0  0
    4.6513    5.2902   15.6597 C   0  0  0  0  0  0
    5.7291    4.5560   16.1444 C   0  0  0  0  0  0
    5.5541    3.2055   16.5077 C   0  0  0  0  0  0
    4.2772    2.6504   16.2901 C   0  0  0  0  0  0
    6.6817    2.4088   17.0984 C   0  0  0  0  0  0
    6.5383    1.0407   17.3849 C   0  0  0  0  0  0
    7.5924    0.3023   17.9106 C   0  0  0  0  0  0
    8.8131    0.9111   18.1851 C   0  0  0  0  0  0
    8.9653    2.2813   17.9463 C   0  0  0  0  0  0
    7.9157    3.0117   17.4029 C   0  0  0  0  0  0
    9.8084    0.1012   18.7565 N   0  0  0  0  0  0
   11.1447    0.2944   18.7599 C   0  0  0  0  0  0
   11.9947   -0.7461   19.5300 C   0  0  2  0  0  0
   11.7029    1.2564   18.2288 O   0  0  0  0  0  0
   13.4304   -0.8809   18.9678 C   0  0  0  0  0  0
   13.3974   -1.3201   17.6047 O   0  0  0  0  0  0
   11.3536   -2.0392   19.4904 O   0  0  0  0  0  0
   11.5477   -2.7434   18.3141 C   0  0  0  0  0  0
   12.5601   -2.3968   17.3990 C   0  0  0  0  0  0
   12.6878   -3.0968   16.2018 C   0  0  0  0  0  0
   11.8368   -4.1693   15.9352 C   0  0  0  0  0  0
   10.8699   -4.5530   16.8691 C   0  0  0  0  0  0
   10.7224   -3.8379   18.0613 C   0  0  0  0  0  0
    2.2582    3.0443   15.6423 H   0  0  0  0  0  0
    4.7661    6.3320   15.4018 H   0  0  0  0  0  0
    6.6724    5.0642   16.2395 H   0  0  0  0  0  0
    4.0410    1.6260   16.5286 H   0  0  0  0  0  0
    5.6163    0.5110   17.2076 H   0  0  0  0  0  0
    7.4353   -0.7403   18.1438 H   0  0  0  0  0  0
    9.8735    2.8080   18.1988 H   0  0  0  0  0  0
    8.1005    4.0622   17.2496 H   0  0  0  0  0  0
    9.4696   -0.7532   19.1853 H   0  0  0  0  0  0
   11.9958   -0.3929   20.5598 H   0  0  0  0  0  0
   13.9735   -1.6094   19.5712 H   0  0  0  0  0  0
   13.9848    0.0541   19.0472 H   0  0  0  0  0  0
   13.4332   -2.8039   15.4778 H   0  0  0  0  0  0
   11.9410   -4.7055   15.0037 H   0  0  0  0  0  0
   10.2323   -5.4014   16.6617 H   0  0  0  0  0  0
    9.9666   -4.1180   18.7827 H   0  0  0  0  0  0
  1  6  1  0  0  0
  1  2  2  0  0  0
  1 26  1  0  0  0
  2  3  1  0  0  0
  3  4  2  0  0  0
  3 27  1  0  0  0
  4  5  1  0  0  0
  4 28  1  0  0  0
  5  7  1  0  0  0
  5  6  2  0  0  0
  6 29  1  0  0  0
  7 12  1  0  0  0
  7  8  2  0  0  0
  8  9  1  0  0  0
  8 30  1  0  0  0
  9 10  2  0  0  0
  9 31  1  0  0  0
 10 13  1  0  0  0
 10 11  1  0  0  0
 11 12  2  0  0  0
 11 32  1  0  0  0
 12 33  1  0  0  0
 13 14  1  0  0  0
 13 34  1  0  0  0
 14 15  1  0  0  0
 14 16  2  0  0  0
 15 17  1  0  0  0
 15 19  1  0  0  0
 15 35  1  0  0  0
 17 18  1  0  0  0
 17 36  1  0  0  0
 17 37  1  0  0  0
 18 21  1  0  0  0
 19 20  1  0  0  0
 20 21  2  0  0  0
 20 25  1  0  0  0
 21 22  1  0  0  0
 22 23  2  0  0  0
 22 38  1  0  0  0
 23 24  1  0  0  0
 23 39  1  0  0  0
 24 25  2  0  0  0
 24 40  1  0  0  0
 25 41  1  0  0  0
M  END
> <s_m_entry_id>
2404

> <s_m_entry_name>
dock_pv.143

> <s_m_Source_Path>
/home/csk/Desktop/cluster/DUD-E-result/akt1

> <s_m_Source_File>
dock_pv.maegz

> <i_m_Source_File_Index>
143

> <chembl_id>
CHEMBL485213

> <chembl_pref_name>
None

> <i_lp_mmshare_version>
53161

> <i_f3d_flags>
0

> <r_lp_tautomer_probability>
1

> <s_lp_Force_Field>
OPLS_2005

> <r_lp_Energy>
25.721867

> <b_lp_Chiralities_Consistent>
1

> <s_lp_Variant>
CHEMBL4282_lig646-1

> <s_i_glide_gridfile>
glide-grid_3cqw

> <i_i_glide_lignum>
911

> <i_i_glide_rotatable_bonds>
4

> <r_i_docking_score>
-6.88480333555662

> <r_i_glide_ligand_efficiency>
-0.275392133422265

> <r_i_glide_ligand_efficiency_sa>
-0.805251482226985

> <r_i_glide_ligand_efficiency_ln>
-1.63190471143381

> <r_i_glide_gscore>
-6.88480333555662

> <r_i_glide_lipo>
-2.57328969839751

> <r_i_glide_hbond>
-0.378199766531827

> <r_i_glide_metal>
0

> <r_i_glide_rewards>
-2.15178066136798

> <r_i_glide_evdw>
-37.5234451293945

> <r_i_glide_ecoul>
-3.4229211807251

> <r_i_glide_erotb>
0.682006992820843

> <r_i_glide_esite>
-0.0739297685016628

> <r_i_glide_emodel>
-56.3942244162487

> <r_i_glide_energy>
-40.9463663101196

> <r_i_glide_einternal>
5.56352376937866

> <i_i_glide_confnum>
71

> <i_i_glide_posenum>
43

> <r_i_glide_eff_state_penalty>
0

> <s_user_duplicate_titles>
CHEMBL4282_lig646

> <s_m_subgroup_title>
dock_pv

> <s_m_subgroupid>
dock_pv

> <b_m_subgroup_collapsed>
1

$$$$
CHEMBL4282_lig2323
                    3D
 Schrodinger Suite 2021-1.
 41 44  0  0  1  0            999 V2000
    3.8829   -0.4158   16.5852 F   0  0  0  0  0  0
    4.3331    0.8526   16.4596 C   0  0  0  0  0  0
    3.5332    1.8215   15.8536 C   0  0  0  0  0  0
    3.9751    3.1422   15.7851 C   0  0  0  0  0  0
    5.2358    3.4876   16.2743 C   0  0  0  0  0  0
    6.0580    2.5075   16.8554 C   0  0  0  0  0  0
    7.3425    2.6124   17.4522 N   0  0  0  0  0  0
    7.6036    1.3645   18.1828 C   0  0  0  0  0  0
    6.5822    0.3600   17.6925 C   0  0  0  0  0  0
    5.5740    1.2068   16.9871 C   0  0  0  0  0  0
    8.1858    3.6934   17.3792 C   0  0  0  0  0  0
    7.9101    4.6370   16.6392 O   0  0  0  0  0  0
    9.5280    3.8924   18.1469 C   0  0  0  0  0  0
   10.1993    2.7132   18.8303 C   0  0  0  0  0  0
   10.7559    1.7756   18.1341 N   0  0  0  0  0  0
   11.1687    0.6265   18.7649 C   0  0  0  0  0  0
   11.1290    0.5139   20.1179 C   0  0  0  0  0  0
   10.6640    1.6117   20.9336 C   0  0  0  0  0  0
   10.7128    1.6072   22.1565 O   0  0  0  0  0  0
   10.1771    2.6364   20.1962 N   0  0  0  0  0  0
   11.4612   -0.5334   17.8751 C   0  0  0  0  0  0
   12.0197   -0.3596   16.5985 C   0  0  0  0  0  0
   12.2311   -1.4757   15.7885 C   0  0  0  0  0  0
   11.9491   -2.7425   16.1784 N   0  0  0  0  0  0
   11.4269   -2.9122   17.4167 C   0  0  0  0  0  0
   11.1681   -1.8481   18.2814 C   0  0  0  0  0  0
    2.5602    1.5552   15.4673 H   0  0  0  0  0  0
    3.3401    3.8952   15.3430 H   0  0  0  0  0  0
    5.5440    4.5196   16.2066 H   0  0  0  0  0  0
    8.5737    0.9014   18.0642 H   0  0  0  0  0  0
    7.4266    1.5667   19.2413 H   0  0  0  0  0  0
    6.2300   -0.2619   18.5123 H   0  0  0  0  0  0
    7.0486   -0.3143   16.9746 H   0  0  0  0  0  0
   10.2327    4.3042   17.4262 H   0  0  0  0  0  0
    9.3675    4.6965   18.8659 H   0  0  0  0  0  0
   11.3926   -0.3966   20.6271 H   0  0  0  0  0  0
    9.8688    3.4223   20.7596 H   0  0  0  0  0  0
   12.2619    0.6285   16.2327 H   0  0  0  0  0  0
   12.6310   -1.3655   14.7949 H   0  0  0  0  0  0
   11.2017   -3.9270   17.7121 H   0  0  0  0  0  0
   10.7175   -2.0504   19.2434 H   0  0  0  0  0  0
  1  2  1  0  0  0
  2  3  2  0  0  0
  2 10  1  0  0  0
  3  4  1  0  0  0
  3 27  1  0  0  0
  4  5  2  0  0  0
  4 28  1  0  0  0
  5  6  1  0  0  0
  5 29  1  0  0  0
  6  7  1  0  0  0
  6 10  2  0  0  0
  7  8  1  0  0  0
  7 11  1  0  0  0
  8  9  1  0  0  0
  8 30  1  0  0  0
  8 31  1  0  0  0
  9 10  1  0  0  0
  9 32  1  0  0  0
  9 33  1  0  0  0
 11 12  2  0  0  0
 11 13  1  0  0  0
 13 14  1  0  0  0
 13 34  1  0  0  0
 13 35  1  0  0  0
 14 15  2  0  0  0
 14 20  1  0  0  0
 15 16  1  0  0  0
 16 17  2  0  0  0
 16 21  1  0  0  0
 17 18  1  0  0  0
 17 36  1  0  0  0
 18 19  2  0  0  0
 18 20  1  0  0  0
 20 37  1  0  0  0
 21 22  2  0  0  0
 21 26  1  0  0  0
 22 23  1  0  0  0
 22 38  1  0  0  0
 23 24  2  0  0  0
 23 39  1  0  0  0
 24 25  1  0  0  0
 25 26  2  0  0  0
 25 40  1  0  0  0
 26 41  1  0  0  0
M  END
> <s_m_entry_id>
2405

> <s_m_entry_name>
dock_pv.144

> <s_m_Source_Path>
/home/csk/Desktop/cluster/DUD-E-result/akt1

> <s_m_Source_File>
dock_pv.maegz

> <i_m_Source_File_Index>
144

> <chembl_id>
CHEMBL3977387

> <chembl_pref_name>
None

> <i_lp_mmshare_version>
53161

> <i_f3d_flags>
0

> <r_lp_tautomer_probability>
0.839158042097895

> <s_lp_Force_Field>
OPLS_2005

> <r_lp_Energy>
43.832877

> <b_lp_Chiralities_Consistent>
1

> <s_lp_Variant>
CHEMBL4282_lig2323-1

> <s_i_glide_gridfile>
glide-grid_3cqw

> <i_i_glide_lignum>
3088

> <i_i_glide_rotatable_bonds>
4

> <r_i_docking_score>
-6.88173609353139

> <r_i_glide_ligand_efficiency>
-0.264682157443515

> <r_i_glide_ligand_efficiency_sa>
-0.784119849952414

> <r_i_glide_ligand_efficiency_ln>
-1.61615314074795

> <r_i_glide_gscore>
-6.88173609353139

> <r_i_glide_lipo>
-2.12194547726989

> <r_i_glide_hbond>
-0.16

> <r_i_glide_metal>
0

> <r_i_glide_rewards>
-1.86111492406716

> <r_i_glide_evdw>
-45.570426940918

> <r_i_glide_ecoul>
-6.38391399383545

> <r_i_glide_erotb>
0.621128868221883

> <r_i_glide_esite>
-0.123696114295012

> <r_i_glide_emodel>
-74.9369401541762

> <r_i_glide_energy>
-51.9543409347534

> <r_i_glide_einternal>
0.53763747215271

> <i_i_glide_confnum>
7

> <i_i_glide_posenum>
57

> <r_i_glide_eff_state_penalty>
0

> <s_user_duplicate_titles>
CHEMBL4282_lig2323

> <s_m_subgroup_title>
dock_pv

> <s_m_subgroupid>
dock_pv

> <b_m_subgroup_collapsed>
1

$$$$
CHEMBL4282_lig931
                    3D
 Schrodinger Suite 2021-1.
 50 53  0  0  1  0            999 V2000
   12.9528    0.5753   17.8596 C   0  0  0  0  0  0
   12.3221    0.3034   19.0762 C   0  0  0  0  0  0
   11.3456   -0.6953   19.1467 C   0  0  0  0  0  0
   11.0370   -1.4483   18.0140 C   0  0  0  0  0  0
   11.6978   -1.1928   16.8117 C   0  0  0  0  0  0
   12.6310   -0.1645   16.7251 C   0  0  0  0  0  0
   12.7173    1.0920   20.3269 C   0  0  0  0  0  0
   11.7313    2.2301   20.6982 C   0  0  1  0  0  0
   12.2310    3.0282   21.8380 N   0  0  0  0  0  0
   11.4805    3.2271   19.5248 C   0  0  0  0  0  0
   10.2137    3.5516   19.1341 N   0  0  0  0  0  0
   12.4860    3.7058   18.9850 O   0  0  0  0  0  0
    8.9605    3.0029   19.6734 C   0  0  0  0  0  0
    8.2020    2.3059   18.5197 C   0  0  0  0  0  0
    8.0457    3.1072   17.2887 N   0  0  0  0  0  0
    9.2902    3.8028   16.9050 C   0  0  0  0  0  0
    9.9969    4.5331   18.0681 C   0  0  0  0  0  0
    6.7999    3.3697   16.7109 C   0  0  0  0  0  0
    4.3257    4.1765   15.7148 N   0  0  0  0  0  0
    5.4112    4.9747   15.7850 C   0  0  0  0  0  0
    6.6326    4.6370   16.2561 N   0  0  0  0  0  0
    4.5075    2.8771   16.0730 C   0  0  0  0  0  0
    5.7556    2.3932   16.5851 C   0  0  0  0  0  0
    5.8829    1.0010   16.8545 C   0  0  0  0  0  0
    4.8131    0.1440   16.6321 C   0  0  0  0  0  0
    3.5948    0.6369   16.1850 C   0  0  0  0  0  0
    3.4278    1.9849   15.8951 C   0  0  0  0  0  0
   11.3863   -2.1637   15.4183 Cl  0  0  0  0  0  0
   13.6943    1.3585   17.7969 H   0  0  0  0  0  0
   10.8375   -0.9050   20.0783 H   0  0  0  0  0  0
   10.2978   -2.2335   18.0818 H   0  0  0  0  0  0
   13.1230    0.0448   15.7871 H   0  0  0  0  0  0
   12.7983    0.3834   21.1521 H   0  0  0  0  0  0
   13.7298    1.4826   20.2053 H   0  0  0  0  0  0
   10.8214    1.7304   21.0106 H   0  0  0  0  0  0
   11.5818    3.7950   22.0275 H   0  0  0  0  0  0
   12.2797    2.4895   22.6890 H   0  0  0  0  0  0
    9.0530    2.3455   20.5314 H   0  0  0  0  0  0
    8.3655    3.8399   20.0425 H   0  0  0  0  0  0
    7.2273    2.0062   18.9051 H   0  0  0  0  0  0
    8.7344    1.3968   18.2330 H   0  0  0  0  0  0
    9.1201    4.5113   16.0943 H   0  0  0  0  0  0
    9.9471    3.0344   16.4961 H   0  0  0  0  0  0
    9.3642    5.3396   18.4416 H   0  0  0  0  0  0
   10.9212    5.0248   17.7683 H   0  0  0  0  0  0
    5.2672    6.0037   15.4936 H   0  0  0  0  0  0
    6.8218    0.5914   17.1935 H   0  0  0  0  0  0
    4.9216   -0.9125   16.8283 H   0  0  0  0  0  0
    2.7824   -0.0554   16.0241 H   0  0  0  0  0  0
    2.4822    2.3512   15.5175 H   0  0  0  0  0  0
  1  6  1  0  0  0
  1  2  2  0  0  0
  1 29  1  0  0  0
  2  7  1  0  0  0
  2  3  1  0  0  0
  3  4  2  0  0  0
  3 30  1  0  0  0
  4  5  1  0  0  0
  4 31  1  0  0  0
  5  6  2  0  0  0
  5 28  1  0  0  0
  6 32  1  0  0  0
  7  8  1  0  0  0
  7 33  1  0  0  0
  7 34  1  0  0  0
  8  9  1  0  0  0
  8 10  1  0  0  0
  8 35  1  0  0  0
  9 36  1  0  0  0
  9 37  1  0  0  0
 10 11  1  0  0  0
 10 12  2  0  0  0
 11 17  1  0  0  0
 11 13  1  0  0  0
 13 14  1  0  0  0
 13 38  1  0  0  0
 13 39  1  0  0  0
 14 15  1  0  0  0
 14 40  1  0  0  0
 14 41  1  0  0  0
 15 16  1  0  0  0
 15 18  1  0  0  0
 16 17  1  0  0  0
 16 42  1  0  0  0
 16 43  1  0  0  0
 17 44  1  0  0  0
 17 45  1  0  0  0
 18 23  2  0  0  0
 18 21  1  0  0  0
 19 22  2  0  0  0
 19 20  1  0  0  0
 20 21  2  0  0  0
 20 46  1  0  0  0
 22 23  1  0  0  0
 22 27  1  0  0  0
 23 24  1  0  0  0
 24 25  2  0  0  0
 24 47  1  0  0  0
 25 26  1  0  0  0
 25 48  1  0  0  0
 26 27  2  0  0  0
 26 49  1  0  0  0
 27 50  1  0  0  0
M  END
> <s_m_entry_id>
2406

> <s_m_entry_name>
dock_pv.145

> <s_m_Source_Path>
/home/csk/Desktop/cluster/DUD-E-result/akt1

> <s_m_Source_File>
dock_pv.maegz

> <i_m_Source_File_Index>
145

> <chembl_id>
CHEMBL1258330

> <chembl_pref_name>
None

> <i_lp_mmshare_version>
53161

> <i_f3d_flags>
0

> <r_lp_tautomer_probability>
1

> <s_lp_Force_Field>
OPLS_2005

> <r_lp_Energy>
42.665465

> <b_lp_Chiralities_Consistent>
1

> <s_lp_Variant>
CHEMBL4282_lig931-1

> <s_i_glide_gridfile>
glide-grid_3cqw

> <i_i_glide_lignum>
1327

> <i_i_glide_rotatable_bonds>
5

> <r_i_docking_score>
-6.87843197979071

> <r_i_glide_ligand_efficiency>
-0.245658284992525

> <r_i_glide_ligand_efficiency_sa>
-0.745963238229624

> <r_i_glide_ligand_efficiency_ln>
-1.58774406047431

> <r_i_glide_gscore>
-6.87843197979071

> <r_i_glide_lipo>
-2.66702689291565

> <r_i_glide_hbond>
-0.16

> <r_i_glide_metal>
0

> <r_i_glide_rewards>
-1.40473001495525

> <r_i_glide_evdw>
-45.5509376525879

> <r_i_glide_ecoul>
-4.73529767990112

> <r_i_glide_erotb>
0.499201747397195

> <r_i_glide_esite>
-0.158035284702443

> <r_i_glide_emodel>
-69.8365628265264

> <r_i_glide_energy>
-50.286235332489

> <r_i_glide_einternal>
3.55798029899597

> <i_i_glide_confnum>
23

> <i_i_glide_posenum>
387

> <r_i_glide_eff_state_penalty>
0

> <s_user_duplicate_titles>
CHEMBL4282_lig931

> <s_m_subgroup_title>
dock_pv

> <s_m_subgroupid>
dock_pv

> <b_m_subgroup_collapsed>
1

$$$$
CHEMBL4282_lig2327
                    3D
 Schrodinger Suite 2021-1.
 41 44  0  0  1  0            999 V2000
   10.7693   -4.0740   17.5782 F   0  0  0  0  0  0
   11.2283   -2.8385   17.2787 C   0  0  0  0  0  0
   10.8807   -1.7685   18.1050 C   0  0  0  0  0  0
   11.3207   -0.4728   17.7896 C   0  0  0  0  0  0
   12.1217   -0.3128   16.6494 C   0  0  0  0  0  0
   12.4260   -1.4289   15.8730 C   0  0  0  0  0  0
   11.9934   -2.6784   16.1698 N   0  0  0  0  0  0
   10.9329    0.6903   18.6274 C   0  0  0  0  0  0
   10.7760    0.6087   19.9738 C   0  0  0  0  0  0
   10.2714    1.7425   20.7161 C   0  0  0  0  0  0
   10.3060    1.8339   21.9347 O   0  0  0  0  0  0
    9.8020    2.7209   19.9103 N   0  0  0  0  0  0
    9.9304    2.7550   18.5491 C   0  0  0  0  0  0
   10.5515    1.8085   17.9284 N   0  0  0  0  0  0
    9.3095    3.8965   17.7689 C   0  0  0  0  0  0
    7.9315    3.6978   17.0678 C   0  0  0  0  0  0
    7.6218    4.6373   16.3395 O   0  0  0  0  0  0
    7.0910    2.6188   17.1730 N   0  0  0  0  0  0
    7.4276    1.3297   17.7921 C   0  0  0  0  0  0
    6.3405    0.3554   17.3779 C   0  0  0  0  0  0
    5.2879    1.2368   16.7997 C   0  0  0  0  0  0
    3.9984    0.9111   16.3864 C   0  0  0  0  0  0
    3.5305   -0.3413   16.5851 F   0  0  0  0  0  0
    3.1678    1.8980   15.8557 C   0  0  0  0  0  0
    3.6150    3.2162   15.7845 C   0  0  0  0  0  0
    4.9113    3.5403   16.1853 C   0  0  0  0  0  0
    5.7692    2.5368   16.6661 C   0  0  0  0  0  0
   10.2434   -1.9443   18.9622 H   0  0  0  0  0  0
   12.4853    0.6634   16.3634 H   0  0  0  0  0  0
   13.0289   -1.3271   14.9856 H   0  0  0  0  0  0
   11.0007   -0.2882   20.5261 H   0  0  0  0  0  0
    9.4938    3.5366   20.4273 H   0  0  0  0  0  0
   10.0129    4.2079   16.9979 H   0  0  0  0  0  0
    9.2135    4.7675   18.4172 H   0  0  0  0  0  0
    8.3765    0.9008   17.4855 H   0  0  0  0  0  0
    7.3891    1.4614   18.8754 H   0  0  0  0  0  0
    6.0303   -0.3019   18.1862 H   0  0  0  0  0  0
    6.7216   -0.2885   16.5871 H   0  0  0  0  0  0
    2.1643    1.6555   15.5412 H   0  0  0  0  0  0
    2.9545    3.9828   15.4076 H   0  0  0  0  0  0
    5.2211    4.5725   16.1232 H   0  0  0  0  0  0
  1  2  1  0  0  0
  2  3  2  0  0  0
  2  7  1  0  0  0
  3  4  1  0  0  0
  3 28  1  0  0  0
  4  5  2  0  0  0
  4  8  1  0  0  0
  5  6  1  0  0  0
  5 29  1  0  0  0
  6  7  2  0  0  0
  6 30  1  0  0  0
  8  9  2  0  0  0
  8 14  1  0  0  0
  9 10  1  0  0  0
  9 31  1  0  0  0
 10 11  2  0  0  0
 10 12  1  0  0  0
 12 13  1  0  0  0
 12 32  1  0  0  0
 13 14  2  0  0  0
 13 15  1  0  0  0
 15 16  1  0  0  0
 15 33  1  0  0  0
 15 34  1  0  0  0
 16 17  2  0  0  0
 16 18  1  0  0  0
 18 19  1  0  0  0
 18 27  1  0  0  0
 19 20  1  0  0  0
 19 35  1  0  0  0
 19 36  1  0  0  0
 20 21  1  0  0  0
 20 37  1  0  0  0
 20 38  1  0  0  0
 21 22  2  0  0  0
 21 27  1  0  0  0
 22 23  1  0  0  0
 22 24  1  0  0  0
 24 25  2  0  0  0
 24 39  1  0  0  0
 25 26  1  0  0  0
 25 40  1  0  0  0
 26 27  2  0  0  0
 26 41  1  0  0  0
M  END
> <s_m_entry_id>
2407

> <s_m_entry_name>
dock_pv.146

> <s_m_Source_Path>
/home/csk/Desktop/cluster/DUD-E-result/akt1

> <s_m_Source_File>
dock_pv.maegz

> <i_m_Source_File_Index>
146

> <chembl_id>
CHEMBL3986565

> <chembl_pref_name>
None

> <i_lp_mmshare_version>
53161

> <i_f3d_flags>
0

> <r_lp_tautomer_probability>
0.839158042097895

> <s_lp_Force_Field>
OPLS_2005

> <r_lp_Energy>
43.059861

> <b_lp_Chiralities_Consistent>
1

> <s_lp_Variant>
CHEMBL4282_lig2327-1

> <s_i_glide_gridfile>
glide-grid_3cqw

> <i_i_glide_lignum>
3096

> <i_i_glide_rotatable_bonds>
4

> <r_i_docking_score>
-6.87758771830168

> <r_i_glide_ligand_efficiency>
-0.25472547104821

> <r_i_glide_ligand_efficiency_sa>
-0.764176412305098

> <r_i_glide_ligand_efficiency_ln>
-1.60098903492551

> <r_i_glide_gscore>
-6.87758771830168

> <r_i_glide_lipo>
-2.33530785070127

> <r_i_glide_hbond>
-0.115393541240414

> <r_i_glide_metal>
0

> <r_i_glide_rewards>
-1.83403180527374

> <r_i_glide_evdw>
-45.7064476013184

> <r_i_glide_ecoul>
-5.12008762359619

> <r_i_glide_erotb>
0.56809705994922

> <r_i_glide_esite>
-0.107616057430124

> <r_i_glide_emodel>
-74.301408686889

> <r_i_glide_energy>
-50.8265352249146

> <r_i_glide_einternal>
0.273248881101608

> <i_i_glide_confnum>
6

> <i_i_glide_posenum>
284

> <r_i_glide_eff_state_penalty>
0

> <s_user_duplicate_titles>
CHEMBL4282_lig2327

> <s_m_subgroup_title>
dock_pv

> <s_m_subgroupid>
dock_pv

> <b_m_subgroup_collapsed>
1

$$$$
CHEMBL4282_lig3568
                    3D
 Schrodinger Suite 2021-1.
 41 45  0  0  1  0            999 V2000
   10.0662    2.3574   18.5687 N   0  0  0  0  0  0
    9.1772    4.1084   17.6630 N   0  0  0  0  0  0
   10.2921    3.6429   18.3136 N   0  0  0  0  0  0
    3.1705    4.2370   15.4016 N   0  0  0  0  0  0
    2.6310    3.0327   15.6288 N   0  0  0  0  0  0
    8.8248    1.9585   18.1113 C   0  0  0  0  0  0
    8.2843    3.1341   17.5553 C   0  0  0  0  0  0
    8.3509    0.5298   18.3312 C   0  0  0  0  0  0
    6.9454    3.4208   16.9357 C   0  0  0  0  0  0
    7.4634   -0.2887   17.4141 C   0  0  0  0  0  0
    8.9499   -0.5630   17.4895 C   0  0  0  0  0  0
    4.6713    2.7894   16.4090 C   0  0  0  0  0  0
    5.8903    2.5087   17.0328 C   0  0  0  0  0  0
    4.4503    4.0726   15.8334 C   0  0  0  0  0  0
    6.7318    4.6370   16.2732 C   0  0  0  0  0  0
   11.0792    1.5885   19.3004 C   0  0  0  0  0  0
    5.4829    5.0069   15.7850 C   0  0  0  0  0  0
    3.4575    2.0979   16.1850 C   0  0  0  0  0  0
   11.7559    0.4697   18.5058 C   0  0  0  0  0  0
   12.0315   -0.7471   19.1375 C   0  0  0  0  0  0
   12.0803    0.6370   17.1549 C   0  0  0  0  0  0
   12.5921   -1.7991   18.4168 C   0  0  0  0  0  0
   12.6310   -0.4175   16.4320 C   0  0  0  0  0  0
   12.8817   -1.6326   17.0644 C   0  0  0  0  0  0
    1.6610    2.8615   15.3817 H   0  0  0  0  0  0
    8.2310    0.2923   19.3850 H   0  0  0  0  0  0
    6.7624   -0.9630   17.9047 H   0  0  0  0  0  0
    7.0310    0.1300   16.5079 H   0  0  0  0  0  0
    9.5796   -0.3058   16.6424 H   0  0  0  0  0  0
    9.3365   -1.4328   18.0182 H   0  0  0  0  0  0
    5.9813    1.6111   17.6120 H   0  0  0  0  0  0
    7.5368    5.3498   16.1850 H   0  0  0  0  0  0
   10.5817    1.1842   20.1834 H   0  0  0  0  0  0
   11.8504    2.2670   19.6708 H   0  0  0  0  0  0
    5.3151    5.9919   15.3850 H   0  0  0  0  0  0
    3.0960    1.1068   16.4153 H   0  0  0  0  0  0
   11.7874   -0.8897   20.1807 H   0  0  0  0  0  0
   11.8709    1.5694   16.6544 H   0  0  0  0  0  0
   12.7882   -2.7431   18.9039 H   0  0  0  0  0  0
   12.8606   -0.2948   15.3850 H   0  0  0  0  0  0
   13.3069   -2.4506   16.5017 H   0  0  0  0  0  0
  1  3  1  0  0  0
  1  6  1  0  0  0
  1 16  1  0  0  0
  2  3  2  0  0  0
  2  7  1  0  0  0
  4  5  1  0  0  0
  4 14  2  0  0  0
  5 25  1  0  0  0
  5 18  1  0  0  0
  6  7  2  0  0  0
  6  8  1  0  0  0
  7  9  1  0  0  0
  8 10  1  0  0  0
  8 11  1  0  0  0
  8 26  1  0  0  0
  9 15  1  0  0  0
  9 13  2  0  0  0
 10 11  1  0  0  0
 10 27  1  0  0  0
 10 28  1  0  0  0
 11 29  1  0  0  0
 11 30  1  0  0  0
 12 13  1  0  0  0
 12 14  1  0  0  0
 12 18  2  0  0  0
 13 31  1  0  0  0
 14 17  1  0  0  0
 15 17  2  0  0  0
 15 32  1  0  0  0
 16 19  1  0  0  0
 16 33  1  0  0  0
 16 34  1  0  0  0
 17 35  1  0  0  0
 18 36  1  0  0  0
 19 20  2  0  0  0
 19 21  1  0  0  0
 20 22  1  0  0  0
 20 37  1  0  0  0
 21 23  2  0  0  0
 21 38  1  0  0  0
 22 24  2  0  0  0
 22 39  1  0  0  0
 23 24  1  0  0  0
 23 40  1  0  0  0
 24 41  1  0  0  0
M  END
> <s_m_entry_id>
2408

> <s_m_entry_name>
dock_pv.147

> <s_m_Source_Path>
/home/csk/Desktop/cluster/DUD-E-result/akt1

> <s_m_Source_File>
dock_pv.maegz

> <i_m_Source_File_Index>
147

> <chembl_id>
CHEMBL1975418

> <chembl_pref_name>
None

> <i_lp_mmshare_version>
53161

> <i_f3d_flags>
0

> <r_lp_tautomer_probability>
0.0196078431372549

> <s_lp_Force_Field>
OPLS_2005

> <r_lp_Energy>
32.733255

> <b_lp_Chiralities_Consistent>
1

> <s_lp_Variant>
CHEMBL4282_lig3568-2

> <s_i_glide_gridfile>
glide-grid_3cqw

> <i_i_glide_lignum>
4740

> <i_i_glide_rotatable_bonds>
4

> <r_i_docking_score>
-6.86798237483919

> <r_i_glide_ligand_efficiency>
-0.286165932284966

> <r_i_glide_ligand_efficiency_sa>
-0.825445384874786

> <r_i_glide_ligand_efficiency_ln>
-1.64382333347467

> <r_i_glide_gscore>
-6.86798237483919

> <r_i_glide_lipo>
-2.30747347421804

> <r_i_glide_hbond>
-0.470817997271409

> <r_i_glide_metal>
0

> <r_i_glide_rewards>
-2.30382877272727

> <r_i_glide_evdw>
-34.7817802429199

> <r_i_glide_ecoul>
-3.37441682815552

> <r_i_glide_erotb>
0.523677963144374

> <r_i_glide_esite>
-0.0642885573975147

> <r_i_glide_emodel>
-54.0011466618051

> <r_i_glide_energy>
-38.1561970710754

> <r_i_glide_einternal>
0.705271005630493

> <i_i_glide_confnum>
10

> <i_i_glide_posenum>
360

> <r_i_glide_eff_state_penalty>
0

> <s_user_duplicate_titles>
CHEMBL4282_lig3568

> <s_m_subgroup_title>
dock_pv

> <s_m_subgroupid>
dock_pv

> <b_m_subgroup_collapsed>
1

$$$$
CHEMBL4282_lig841
                    3D
 Schrodinger Suite 2021-1.
 49 52  0  0  1  0            999 V2000
   12.7530   -0.3998   19.9692 C   0  0  0  0  0  0
   13.4308   -0.4230   18.7499 C   0  0  0  0  0  0
   13.0304   -1.2878   17.7371 C   0  0  0  0  0  0
   11.9543   -2.1536   17.9367 C   0  0  0  0  0  0
   11.2811   -2.1407   19.1638 C   0  0  0  0  0  0
   11.6743   -1.2632   20.1733 C   0  0  0  0  0  0
    6.3118    3.5474   16.8154 C   0  0  0  0  0  0
    7.2998    2.7373   17.3876 C   0  0  0  0  0  0
    7.0468    1.3701   17.5721 C   0  0  0  0  0  0
    5.8545    0.7996   17.1407 C   0  0  0  0  0  0
    8.5696    3.3656   17.8440 C   0  0  0  0  0  0
   10.0039    2.4375   18.1848 S   0  0  0  0  0  0
   10.7678    3.8930   18.7636 C   0  0  0  0  0  0
   10.0592    4.9746   18.5903 N   0  0  0  0  0  0
    8.8627    4.6985   18.1208 C   0  0  0  0  0  0
   11.9943    3.8865   19.3838 N   0  0  0  0  0  0
   12.8084    2.7091   19.6673 C   0  0  0  0  0  0
   12.5309    1.9765   21.0135 C   0  0  2  0  0  0
   13.1944    0.5754   21.0652 C   0  0  0  0  0  0
   11.1135    1.8370   21.3201 N   0  0  0  0  0  0
   11.5423   -3.0969   16.8067 C   0  0  0  0  0  0
   10.6308   -3.9911   17.1924 F   0  0  0  0  0  0
   11.0316   -2.3862   15.8006 F   0  0  0  0  0  0
   12.6080   -3.7600   16.3553 F   0  0  0  0  0  0
    5.0801    3.0018   16.4524 C   0  0  0  0  0  0
    4.8723    1.6138   16.5846 C   0  0  0  0  0  0
    3.5760    1.0922   16.1841 C   0  0  0  0  0  0
    2.6308    1.8372   15.7553 N   0  0  0  0  0  0
    2.8324    3.2049   15.6992 N   0  0  0  0  0  0
    3.9668    3.9169   15.9535 C   0  0  0  0  0  0
    4.0262    5.1363   15.7851 O   0  0  0  0  0  0
   14.2671    0.2398   18.5822 H   0  0  0  0  0  0
   13.5507   -1.2870   16.7915 H   0  0  0  0  0  0
   10.4441   -2.8000   19.3431 H   0  0  0  0  0  0
   11.1347   -1.2555   21.1097 H   0  0  0  0  0  0
    6.4795    4.6089   16.6999 H   0  0  0  0  0  0
    7.7777    0.7325   18.0486 H   0  0  0  0  0  0
    5.6919   -0.2585   17.2911 H   0  0  0  0  0  0
    8.1618    5.5068   18.0254 H   0  0  0  0  0  0
   12.2473    4.6916   19.9416 H   0  0  0  0  0  0
   13.8570    3.0034   19.6233 H   0  0  0  0  0  0
   12.6774    2.0298   18.8284 H   0  0  0  0  0  0
   12.9532    2.5825   21.8175 H   0  0  0  0  0  0
   13.0239    0.1170   22.0419 H   0  0  0  0  0  0
   14.2774    0.6898   21.0068 H   0  0  0  0  0  0
   10.6919    2.7621   21.3838 H   0  0  0  0  0  0
   10.6409    1.3681   20.5611 H   0  0  0  0  0  0
    3.3607    0.0282   16.2314 H   0  0  0  0  0  0
    2.0292    3.7178   15.3578 H   0  0  0  0  0  0
  1 19  1  0  0  0
  1  6  1  0  0  0
  1  2  2  0  0  0
  2  3  1  0  0  0
  2 32  1  0  0  0
  3  4  2  0  0  0
  3 33  1  0  0  0
  4  5  1  0  0  0
  4 21  1  0  0  0
  5  6  2  0  0  0
  5 34  1  0  0  0
  6 35  1  0  0  0
  7  8  2  0  0  0
  7 25  1  0  0  0
  7 36  1  0  0  0
  8  9  1  0  0  0
  8 11  1  0  0  0
  9 10  2  0  0  0
  9 37  1  0  0  0
 10 26  1  0  0  0
 10 38  1  0  0  0
 11 15  2  0  0  0
 11 12  1  0  0  0
 12 13  1  0  0  0
 13 16  1  0  0  0
 13 14  2  0  0  0
 14 15  1  0  0  0
 15 39  1  0  0  0
 16 17  1  0  0  0
 16 40  1  0  0  0
 17 18  1  0  0  0
 17 41  1  0  0  0
 17 42  1  0  0  0
 18 19  1  0  0  0
 18 20  1  0  0  0
 18 43  1  0  0  0
 19 44  1  0  0  0
 19 45  1  0  0  0
 20 46  1  0  0  0
 20 47  1  0  0  0
 21 22  1  0  0  0
 21 23  1  0  0  0
 21 24  1  0  0  0
 25 26  2  0  0  0
 25 30  1  0  0  0
 26 27  1  0  0  0
 27 28  2  0  0  0
 27 48  1  0  0  0
 28 29  1  0  0  0
 29 30  1  0  0  0
 29 49  1  0  0  0
 30 31  2  0  0  0
M  END
> <s_m_entry_id>
2409

> <s_m_entry_name>
dock_pv.148

> <s_m_Source_Path>
/home/csk/Desktop/cluster/DUD-E-result/akt1

> <s_m_Source_File>
dock_pv.maegz

> <i_m_Source_File_Index>
148

> <chembl_id>
CHEMBL1082030

> <chembl_pref_name>
None

> <i_lp_mmshare_version>
53161

> <i_f3d_flags>
0

> <r_lp_tautomer_probability>
1

> <s_lp_Force_Field>
OPLS_2005

> <r_lp_Energy>
23.458123

> <b_lp_Chiralities_Consistent>
1

> <s_lp_Variant>
CHEMBL4282_lig841-1

> <s_i_glide_gridfile>
glide-grid_3cqw

> <i_i_glide_lignum>
1226

> <i_i_glide_rotatable_bonds>
7

> <r_i_docking_score>
-6.86324506317802

> <r_i_glide_ligand_efficiency>
-0.221395002038001

> <r_i_glide_ligand_efficiency_sa>
-0.695485975142231

> <r_i_glide_ligand_efficiency_ln>
-1.54787209494777

> <r_i_glide_gscore>
-6.86324506317802

> <r_i_glide_lipo>
-1.67587250732822

> <r_i_glide_hbond>
-0.432681763573112

> <r_i_glide_metal>
0

> <r_i_glide_rewards>
-2.12780606357367

> <r_i_glide_evdw>
-45.7172431945801

> <r_i_glide_ecoul>
-4.62308931350708

> <r_i_glide_erotb>
0.423487593349824

> <r_i_glide_esite>
-0.0710467652977767

> <r_i_glide_emodel>
-68.9617031593245

> <r_i_glide_energy>
-50.3403325080872

> <r_i_glide_einternal>
5.18105459213257

> <i_i_glide_confnum>
11

> <i_i_glide_posenum>
5

> <r_i_glide_eff_state_penalty>
0

> <s_user_duplicate_titles>
CHEMBL4282_lig841

> <s_m_subgroup_title>
dock_pv

> <s_m_subgroupid>
dock_pv

> <b_m_subgroup_collapsed>
1

$$$$
CHEMBL4282_lig648
                    3D
 Schrodinger Suite 2021-1.
 43 46  0  0  1  0            999 V2000
    4.9622    3.0974   16.4774 C   0  0  0  0  0  0
    6.2262    2.5339   17.0520 C   0  0  0  0  0  0
    7.3198    3.3659   17.3152 C   0  0  0  0  0  0
    8.5020    2.8671   17.8893 C   0  0  0  0  0  0
    8.5847    1.4872   18.1643 C   0  0  0  0  0  0
    7.4830    0.6589   17.9378 C   0  0  0  0  0  0
    6.3143    1.1779   17.3836 C   0  0  0  0  0  0
    9.7455    0.8918   18.6852 N   0  0  0  0  0  0
   10.9648    0.9341   18.0984 C   0  0  0  0  0  0
   12.1709    0.2887   18.8363 C   0  0  1  0  0  0
   11.1579    1.4364   16.9869 O   0  0  0  0  0  0
   11.8163   -0.6204   20.0488 C   0  0  0  0  0  0
   11.0312   -1.7388   19.6316 O   0  0  0  0  0  0
   12.9329   -0.4728   17.8761 O   0  0  0  0  0  0
   12.4093   -1.7295   17.6162 C   0  0  0  0  0  0
   11.5172   -2.3658   18.5003 C   0  0  0  0  0  0
   11.0277   -3.6370   18.2029 C   0  0  0  0  0  0
   11.4314   -4.2762   17.0277 C   0  0  0  0  0  0
   12.3231   -3.6471   16.1548 C   0  0  0  0  0  0
   12.8176   -2.3752   16.4527 C   0  0  0  0  0  0
    3.7707    2.4436   16.1845 C   0  0  0  0  0  0
    2.8922    3.4123   15.7848 N   0  0  0  0  0  0
    3.4322    4.6301   15.7546 N   0  0  0  0  0  0
    4.6747    4.4331   16.1272 C   0  0  0  0  0  0
    9.5877    3.6651   18.2062 O   0  0  0  0  0  0
    9.4652    5.0815   18.1465 C   0  0  0  0  0  0
    7.2398    4.4150   17.0897 H   0  0  0  0  0  0
    7.5347   -0.3917   18.1863 H   0  0  0  0  0  0
    5.4772    0.5181   17.2198 H   0  0  0  0  0  0
    9.6076    0.2461   19.4502 H   0  0  0  0  0  0
   12.7623    1.1430   19.1691 H   0  0  0  0  0  0
   11.2999   -0.0621   20.8307 H   0  0  0  0  0  0
   12.7439   -0.9808   20.4935 H   0  0  0  0  0  0
   10.3284   -4.1106   18.8786 H   0  0  0  0  0  0
   11.0521   -5.2604   16.7938 H   0  0  0  0  0  0
   12.6309   -4.1447   15.2465 H   0  0  0  0  0  0
   13.5030   -1.8804   15.7852 H   0  0  0  0  0  0
    3.4577    1.4130   16.2703 H   0  0  0  0  0  0
    1.9249    3.2513   15.5243 H   0  0  0  0  0  0
    5.3616    5.2628   16.1849 H   0  0  0  0  0  0
   10.3850    5.5391   18.5087 H   0  0  0  0  0  0
    9.3033    5.4273   17.1250 H   0  0  0  0  0  0
    8.6518    5.4380   18.7795 H   0  0  0  0  0  0
  1 21  2  0  0  0
  1 24  1  0  0  0
  1  2  1  0  0  0
  2  7  1  0  0  0
  2  3  2  0  0  0
  3  4  1  0  0  0
  3 27  1  0  0  0
  4  5  2  0  0  0
  4 25  1  0  0  0
  5  8  1  0  0  0
  5  6  1  0  0  0
  6  7  2  0  0  0
  6 28  1  0  0  0
  7 29  1  0  0  0
  8  9  1  0  0  0
  8 30  1  0  0  0
  9 10  1  0  0  0
  9 11  2  0  0  0
 10 14  1  0  0  0
 10 12  1  0  0  0
 10 31  1  0  0  0
 12 13  1  0  0  0
 12 32  1  0  0  0
 12 33  1  0  0  0
 13 16  1  0  0  0
 14 15  1  0  0  0
 15 16  2  0  0  0
 15 20  1  0  0  0
 16 17  1  0  0  0
 17 18  2  0  0  0
 17 34  1  0  0  0
 18 19  1  0  0  0
 18 35  1  0  0  0
 19 20  2  0  0  0
 19 36  1  0  0  0
 20 37  1  0  0  0
 21 22  1  0  0  0
 21 38  1  0  0  0
 22 23  1  0  0  0
 22 39  1  0  0  0
 23 24  2  0  0  0
 24 40  1  0  0  0
 25 26  1  0  0  0
 26 41  1  0  0  0
 26 42  1  0  0  0
 26 43  1  0  0  0
M  END
> <s_m_entry_id>
2410

> <s_m_entry_name>
dock_pv.149

> <s_m_Source_Path>
/home/csk/Desktop/cluster/DUD-E-result/akt1

> <s_m_Source_File>
dock_pv.maegz

> <i_m_Source_File_Index>
149

> <chembl_id>
CHEMBL485215

> <chembl_pref_name>
None

> <i_lp_mmshare_version>
53161

> <i_f3d_flags>
0

> <r_lp_tautomer_probability>
0.5

> <s_lp_Force_Field>
OPLS_2005

> <r_lp_Energy>
27.824559

> <b_lp_Chiralities_Consistent>
1

> <s_lp_Variant>
CHEMBL4282_lig648-2

> <s_i_glide_gridfile>
glide-grid_3cqw

> <i_i_glide_lignum>
918

> <i_i_glide_rotatable_bonds>
5

> <r_i_docking_score>
-6.86242625326589

> <r_i_glide_ligand_efficiency>
-0.263939471279457

> <r_i_glide_ligand_efficiency_sa>
-0.781919645113722

> <r_i_glide_ligand_efficiency_ln>
-1.61161828812235

> <r_i_glide_gscore>
-6.86242625326589

> <r_i_glide_lipo>
-1.78283214054385

> <r_i_glide_hbond>
-0.608

> <r_i_glide_metal>
0

> <r_i_glide_rewards>
-1.94989536857021

> <r_i_glide_evdw>
-43.2721138000488

> <r_i_glide_ecoul>
-5.01605129241943

> <r_i_glide_erotb>
0.43257116420003

> <r_i_glide_esite>
-0.0382565244865006

> <r_i_glide_emodel>
-65.4884780111814

> <r_i_glide_energy>
-48.2881650924683

> <r_i_glide_einternal>
5.1744384765625

> <i_i_glide_confnum>
34

> <i_i_glide_posenum>
147

> <r_i_glide_eff_state_penalty>
0

> <s_user_duplicate_titles>
CHEMBL4282_lig648

> <s_m_subgroup_title>
dock_pv

> <s_m_subgroupid>
dock_pv

> <b_m_subgroup_collapsed>
1

$$$$
CHEMBL4282_lig901
                    3D
 Schrodinger Suite 2021-1.
 51 54  0  0  1  0            999 V2000
    9.5765    1.8259   18.9516 C   0  0  2  0  0  0
    6.1717   -0.1634   17.3428 N   0  0  0  0  0  0
    5.0311   -0.7941   16.9851 C   0  0  0  0  0  0
    3.8801   -0.2283   16.5850 N   0  0  0  0  0  0
    6.2284    1.1957   17.2464 C   0  0  0  0  0  0
    4.7794    3.2304   16.1604 C   0  0  0  0  0  0
    5.1469    1.8958   16.6167 C   0  0  0  0  0  0
    4.0037    1.0734   16.3475 C   0  0  0  0  0  0
    3.0052    1.8556   15.8400 N   0  0  0  0  0  0
    3.4517    3.1392   15.7675 C   0  0  0  0  0  0
    7.4166    1.7482   17.7848 N   0  0  0  0  0  0
    8.2489    1.0736   18.7890 C   0  0  0  0  0  0
    7.8301    3.1426   17.9313 C   0  0  0  0  0  0
    9.0783    3.2565   18.8183 C   0  0  0  0  0  0
   10.6202    1.4603   17.8545 C   0  0  0  0  0  0
   10.8443    0.0194   17.7383 N   0  0  0  0  0  0
   10.1612    1.5759   20.2588 N   0  0  0  0  0  0
   11.7731   -0.5926   16.9890 C   0  0  0  0  0  0
   12.6255    0.0082   16.3307 O   0  0  0  0  0  0
   11.6439   -2.0962   16.9319 C   0  0  0  0  0  0
   11.0312   -2.8197   17.9707 C   0  0  0  0  0  0
   10.8429   -4.1936   17.8574 C   0  0  0  0  0  0
   11.2751   -4.8557   16.7140 C   0  0  0  0  0  0
   11.9278   -4.1595   15.7023 C   0  0  0  0  0  0
   12.1108   -2.7850   15.8070 C   0  0  0  0  0  0
   11.0575   -6.1832   16.5852 F   0  0  0  0  0  0
    5.6158    4.4821   16.1233 C   0  0  0  0  0  0
    4.8652    5.7378   15.6490 C   0  0  0  0  0  0
    5.0073   -1.8636   17.1355 H   0  0  0  0  0  0
    2.0712    1.5764   15.5762 H   0  0  0  0  0  0
    2.7800    3.8944   15.3863 H   0  0  0  0  0  0
    8.3946    0.0216   18.5442 H   0  0  0  0  0  0
    7.6681    1.0370   19.7123 H   0  0  0  0  0  0
    7.0324    3.6537   18.4666 H   0  0  0  0  0  0
    7.9809    3.6278   16.9689 H   0  0  0  0  0  0
    8.7917    3.6621   19.7919 H   0  0  0  0  0  0
    9.8340    3.9306   18.4131 H   0  0  0  0  0  0
   11.5644    1.9718   18.0550 H   0  0  0  0  0  0
   10.2740    1.8258   16.8859 H   0  0  0  0  0  0
   10.1905   -0.5640   18.2384 H   0  0  0  0  0  0
    9.5974    2.0218   20.9715 H   0  0  0  0  0  0
   10.1481    0.5856   20.4535 H   0  0  0  0  0  0
   10.6699   -2.3323   18.8666 H   0  0  0  0  0  0
   10.3532   -4.7411   18.6501 H   0  0  0  0  0  0
   12.2796   -4.6805   14.8268 H   0  0  0  0  0  0
   12.5946   -2.2555   14.9979 H   0  0  0  0  0  0
    5.9540    4.6427   17.1308 H   0  0  0  0  0  0
    6.4998    4.3430   15.5015 H   0  0  0  0  0  0
    5.4660    6.6357   15.7850 H   0  0  0  0  0  0
    4.6302    5.6560   14.5886 H   0  0  0  0  0  0
    3.9360    5.8941   16.1977 H   0  0  0  0  0  0
  1 15  1  0  0  0
  1 17  1  0  0  0
  1 12  1  0  0  0
  1 14  1  0  0  0
  2  3  2  0  0  0
  2  5  1  0  0  0
  3  4  1  0  0  0
  3 29  1  0  0  0
  4  8  2  0  0  0
  5  7  2  0  0  0
  5 11  1  0  0  0
  6  7  1  0  0  0
  6 10  2  0  0  0
  6 27  1  0  0  0
  7  8  1  0  0  0
  8  9  1  0  0  0
  9 10  1  0  0  0
  9 30  1  0  0  0
 10 31  1  0  0  0
 11 12  1  0  0  0
 11 13  1  0  0  0
 12 32  1  0  0  0
 12 33  1  0  0  0
 13 14  1  0  0  0
 13 34  1  0  0  0
 13 35  1  0  0  0
 14 36  1  0  0  0
 14 37  1  0  0  0
 15 16  1  0  0  0
 15 38  1  0  0  0
 15 39  1  0  0  0
 16 18  1  0  0  0
 16 40  1  0  0  0
 17 41  1  0  0  0
 17 42  1  0  0  0
 18 19  2  0  0  0
 18 20  1  0  0  0
 20 21  2  0  0  0
 20 25  1  0  0  0
 21 22  1  0  0  0
 21 43  1  0  0  0
 22 23  2  0  0  0
 22 44  1  0  0  0
 23 24  1  0  0  0
 23 26  1  0  0  0
 24 25  2  0  0  0
 24 45  1  0  0  0
 25 46  1  0  0  0
 27 28  1  0  0  0
 27 47  1  0  0  0
 27 48  1  0  0  0
 28 49  1  0  0  0
 28 50  1  0  0  0
 28 51  1  0  0  0
M  END
> <s_m_entry_id>
2411

> <s_m_entry_name>
dock_pv.150

> <s_m_Source_Path>
/home/csk/Desktop/cluster/DUD-E-result/akt1

> <s_m_Source_File>
dock_pv.maegz

> <i_m_Source_File_Index>
150

> <chembl_id>
CHEMBL1170261

> <chembl_pref_name>
None

> <i_lp_mmshare_version>
53161

> <i_f3d_flags>
0

> <r_lp_tautomer_probability>
0.999998369746258

> <s_lp_Force_Field>
OPLS_2005

> <r_lp_Energy>
34.449389

> <b_lp_Chiralities_Consistent>
1

> <s_lp_Variant>
CHEMBL4282_lig901-1

> <s_i_glide_gridfile>
glide-grid_3cqw

> <i_i_glide_lignum>
1287

> <i_i_glide_rotatable_bonds>
6

> <r_i_docking_score>
-6.84945882311604

> <r_i_glide_ligand_efficiency>
-0.244623529397001

> <r_i_glide_ligand_efficiency_sa>
-0.742821110803159

> <r_i_glide_ligand_efficiency_ln>
-1.58105620522495

> <r_i_glide_gscore>
-6.84945882311604

> <r_i_glide_lipo>
-2.63822605256595

> <r_i_glide_hbond>
0

> <r_i_glide_metal>
0

> <r_i_glide_rewards>
-1.87677747913708

> <r_i_glide_evdw>
-46.7176780700684

> <r_i_glide_ecoul>
-3.28188276290894

> <r_i_glide_erotb>
0.531166166214111

> <r_i_glide_esite>
-0.0374551396873673

> <r_i_glide_emodel>
-65.776298843363

> <r_i_glide_energy>
-49.9995608329773

> <r_i_glide_einternal>
6.02680921554565

> <i_i_glide_confnum>
7

> <i_i_glide_posenum>
119

> <r_i_glide_eff_state_penalty>
0

> <s_user_duplicate_titles>
CHEMBL4282_lig901,649396

> <s_m_subgroup_title>
dock_pv

> <s_m_subgroupid>
dock_pv

> <b_m_subgroup_collapsed>
1

$$$$
CHEMBL4282_lig649
                    3D
 Schrodinger Suite 2021-1.
 54 57  0  0  1  0            999 V2000
    5.1015    3.1392   16.4739 C   0  0  0  0  0  0
    6.3806    2.6045   17.0365 C   0  0  0  0  0  0
    7.5426    3.3862   17.0577 C   0  0  0  0  0  0
    8.7319    2.8885   17.5987 C   0  0  0  0  0  0
    8.7788    1.5721   18.1011 C   0  0  0  0  0  0
    7.6049    0.8177   18.1354 C   0  0  0  0  0  0
    6.4232    1.3234   17.5952 C   0  0  0  0  0  0
    9.9409    0.9621   18.6078 N   0  0  0  0  0  0
   11.1426    0.8977   17.9886 C   0  0  0  0  0  0
   12.3086    0.1513   18.6966 C   0  0  1  0  0  0
   11.3623    1.3899   16.8806 O   0  0  0  0  0  0
   11.9080   -0.7341   19.9107 C   0  0  0  0  0  0
   11.0316   -1.7866   19.5035 O   0  0  0  0  0  0
   12.9911   -0.6591   17.7183 O   0  0  0  0  0  0
   12.3748   -1.8731   17.4654 C   0  0  0  0  0  0
   11.4592   -2.4484   18.3667 C   0  0  0  0  0  0
   10.8884   -3.6886   18.0828 C   0  0  0  0  0  0
   11.2280   -4.3551   16.9026 C   0  0  0  0  0  0
   12.1370   -3.7813   16.0092 C   0  0  0  0  0  0
   12.7171   -2.5442   16.2941 C   0  0  0  0  0  0
    3.9259    2.4591   16.1849 C   0  0  0  0  0  0
    3.0243    3.4072   15.7857 N   0  0  0  0  0  0
    3.5361    4.6365   15.7617 N   0  0  0  0  0  0
    4.7841    4.4677   16.1290 C   0  0  0  0  0  0
    9.8315    3.7042   17.6205 O   0  0  0  0  0  0
    9.9586    4.5084   18.7919 C   0  0  0  0  0  0
   11.4522    4.7709   19.0883 C   0  0  0  0  0  0
   12.2127    3.5714   19.4779 N   0  0  0  0  0  0
   13.6407    3.8618   19.4829 C   0  0  0  0  0  0
   11.8311    3.0831   20.8022 C   0  0  0  0  0  0
    7.5350    4.3904   16.6632 H   0  0  0  0  0  0
    7.6093   -0.1739   18.5658 H   0  0  0  0  0  0
    5.5341    0.7120   17.6257 H   0  0  0  0  0  0
    9.7926    0.3361   19.3869 H   0  0  0  0  0  0
   12.9801    0.9456   19.0164 H   0  0  0  0  0  0
   11.4537   -0.1434   20.7064 H   0  0  0  0  0  0
   12.8154   -1.1661   20.3385 H   0  0  0  0  0  0
   10.1767   -4.1174   18.7740 H   0  0  0  0  0  0
   10.7861   -5.3150   16.6775 H   0  0  0  0  0  0
   12.3969   -4.2984   15.0961 H   0  0  0  0  0  0
   13.4293   -2.0986   15.6176 H   0  0  0  0  0  0
    3.6457    1.4197   16.2649 H   0  0  0  0  0  0
    2.0633    3.2227   15.5224 H   0  0  0  0  0  0
    5.4521    5.3119   16.1846 H   0  0  0  0  0  0
    9.4592    5.4606   18.6056 H   0  0  0  0  0  0
    9.4593    4.0716   19.6595 H   0  0  0  0  0  0
   11.8953    5.1982   18.1858 H   0  0  0  0  0  0
   11.5396    5.5381   19.8596 H   0  0  0  0  0  0
   14.2254    2.9737   19.7195 H   0  0  0  0  0  0
   13.9596    4.2077   18.4997 H   0  0  0  0  0  0
   13.8832    4.6360   20.2134 H   0  0  0  0  0  0
   12.4181    2.2080   21.0778 H   0  0  0  0  0  0
   11.9858    3.8367   21.5723 H   0  0  0  0  0  0
   10.7841    2.7813   20.8336 H   0  0  0  0  0  0
  1 21  2  0  0  0
  1 24  1  0  0  0
  1  2  1  0  0  0
  2  7  1  0  0  0
  2  3  2  0  0  0
  3  4  1  0  0  0
  3 31  1  0  0  0
  4  5  2  0  0  0
  4 25  1  0  0  0
  5  8  1  0  0  0
  5  6  1  0  0  0
  6  7  2  0  0  0
  6 32  1  0  0  0
  7 33  1  0  0  0
  8  9  1  0  0  0
  8 34  1  0  0  0
  9 10  1  0  0  0
  9 11  2  0  0  0
 10 12  1  0  0  0
 10 14  1  0  0  0
 10 35  1  0  0  0
 12 13  1  0  0  0
 12 36  1  0  0  0
 12 37  1  0  0  0
 13 16  1  0  0  0
 14 15  1  0  0  0
 15 16  2  0  0  0
 15 20  1  0  0  0
 16 17  1  0  0  0
 17 18  2  0  0  0
 17 38  1  0  0  0
 18 19  1  0  0  0
 18 39  1  0  0  0
 19 20  2  0  0  0
 19 40  1  0  0  0
 20 41  1  0  0  0
 21 22  1  0  0  0
 21 42  1  0  0  0
 22 23  1  0  0  0
 22 43  1  0  0  0
 23 24  2  0  0  0
 24 44  1  0  0  0
 25 26  1  0  0  0
 26 27  1  0  0  0
 26 45  1  0  0  0
 26 46  1  0  0  0
 27 28  1  0  0  0
 27 47  1  0  0  0
 27 48  1  0  0  0
 28 29  1  0  0  0
 28 30  1  0  0  0
 29 49  1  0  0  0
 29 50  1  0  0  0
 29 51  1  0  0  0
 30 52  1  0  0  0
 30 53  1  0  0  0
 30 54  1  0  0  0
M  END
> <s_m_entry_id>
2412

> <s_m_entry_name>
dock_pv.151

> <s_m_Source_Path>
/home/csk/Desktop/cluster/DUD-E-result/akt1

> <s_m_Source_File>
dock_pv.maegz

> <i_m_Source_File_Index>
151

> <chembl_id>
CHEMBL521179

> <chembl_pref_name>
SR-3677

> <i_lp_mmshare_version>
53161

> <i_f3d_flags>
0

> <r_lp_tautomer_probability>
0.5

> <s_lp_Force_Field>
OPLS_2005

> <r_lp_Energy>
32.84374

> <b_lp_Chiralities_Consistent>
1

> <s_lp_Variant>
CHEMBL4282_lig649-2

> <s_i_glide_gridfile>
glide-grid_3cqw

> <i_i_glide_lignum>
920

> <i_i_glide_rotatable_bonds>
8

> <r_i_docking_score>
-6.84611150384417

> <r_i_glide_ligand_efficiency>
-0.228203716794806

> <r_i_glide_ligand_efficiency_sa>
-0.7090820060004

> <r_i_glide_ligand_efficiency_ln>
-1.55551112803277

> <r_i_glide_gscore>
-6.84611150384417

> <r_i_glide_lipo>
-1.90853954617989

> <r_i_glide_hbond>
-0.514587823962404

> <r_i_glide_metal>
0

> <r_i_glide_rewards>
-1.56785873767093

> <r_i_glide_evdw>
-46.3371505737305

> <r_i_glide_ecoul>
-7.25102949142456

> <r_i_glide_erotb>
0.578061868107289

> <r_i_glide_esite>
-0.0286753117380381

> <r_i_glide_emodel>
-71.3132621185935

> <r_i_glide_energy>
-53.588180065155

> <r_i_glide_einternal>
10.6001405715942

> <i_i_glide_confnum>
50

> <i_i_glide_posenum>
278

> <r_i_glide_eff_state_penalty>
0

> <s_user_duplicate_titles>
CHEMBL4282_lig649

> <s_m_subgroup_title>
dock_pv

> <s_m_subgroupid>
dock_pv

> <b_m_subgroup_collapsed>
1

$$$$
CHEMBL4282_lig2321
                    3D
 Schrodinger Suite 2021-1.
 48 51  0  0  1  0            999 V2000
   11.1843   -2.0441   15.7005 C   0  0  0  0  0  0
   12.5697   -1.4257   15.9594 C   0  0  1  0  0  0
   12.5292   -0.0274   16.6201 C   0  0  0  0  0  0
   12.1227   -0.0986   18.0387 N   0  0  0  0  0  0
   12.9862   -1.0648   18.7515 C   0  0  0  0  0  0
   13.0269   -2.4418   18.0521 C   0  0  0  0  0  0
   13.4321   -2.2849   16.6988 O   0  0  0  0  0  0
   11.3156    0.8455   18.6733 C   0  0  0  0  0  0
   11.0515    0.8196   20.0019 C   0  0  0  0  0  0
   10.2179    1.8255   20.6063 C   0  0  0  0  0  0
    9.9199    1.8372   21.7858 O   0  0  0  0  0  0
    9.7900    2.7538   19.7289 N   0  0  0  0  0  0
   10.0543    2.7585   18.3925 C   0  0  0  0  0  0
   10.7970    1.8371   17.8740 N   0  0  0  0  0  0
    9.4259    3.8417   17.5323 C   0  0  0  0  0  0
    7.9785    3.6747   16.9853 C   0  0  0  0  0  0
    7.6027    4.6370   16.3168 O   0  0  0  0  0  0
    7.1563    2.5904   17.1530 N   0  0  0  0  0  0
    7.5463    1.3217   17.7863 C   0  0  0  0  0  0
    6.4805    0.3099   17.4116 C   0  0  0  0  0  0
    5.3952    1.1491   16.8223 C   0  0  0  0  0  0
    4.1185    0.7739   16.4102 C   0  0  0  0  0  0
    3.7050   -0.5012   16.5851 F   0  0  0  0  0  0
    3.2514    1.7281   15.8747 C   0  0  0  0  0  0
    3.6524    3.0603   15.7853 C   0  0  0  0  0  0
    4.9357    3.4329   16.1852 C   0  0  0  0  0  0
    5.8306    2.4636   16.6696 C   0  0  0  0  0  0
   10.6132   -1.4292   15.0085 H   0  0  0  0  0  0
   11.2757   -3.0371   15.2589 H   0  0  0  0  0  0
   10.6107   -2.1313   16.6223 H   0  0  0  0  0  0
   13.0249   -1.3043   14.9851 H   0  0  0  0  0  0
   11.8277    0.5738   16.0466 H   0  0  0  0  0  0
   13.4402    0.5569   16.5247 H   0  0  0  0  0  0
   13.9621   -0.6343   18.9806 H   0  0  0  0  0  0
   12.5993   -1.2696   19.7476 H   0  0  0  0  0  0
   13.7431   -3.0847   18.5637 H   0  0  0  0  0  0
   12.0688   -2.9568   18.1328 H   0  0  0  0  0  0
   11.4272    0.0677   20.6669 H   0  0  0  0  0  0
    9.2835    3.5095   20.1662 H   0  0  0  0  0  0
   10.0595    4.0297   16.6679 H   0  0  0  0  0  0
    9.4459    4.7789   18.0899 H   0  0  0  0  0  0
    8.5080    0.9194   17.4755 H   0  0  0  0  0  0
    7.5138    1.4752   18.8672 H   0  0  0  0  0  0
    6.2027   -0.3159   18.2596 H   0  0  0  0  0  0
    6.8686   -0.3568   16.6431 H   0  0  0  0  0  0
    2.2557    1.4431   15.5624 H   0  0  0  0  0  0
    2.9666    3.8013   15.4003 H   0  0  0  0  0  0
    5.2096    4.4739   16.1077 H   0  0  0  0  0  0
  1  2  1  0  0  0
  1 28  1  0  0  0
  1 29  1  0  0  0
  1 30  1  0  0  0
  2  3  1  0  0  0
  2  7  1  0  0  0
  2 31  1  0  0  0
  3  4  1  0  0  0
  3 32  1  0  0  0
  3 33  1  0  0  0
  4  5  1  0  0  0
  4  8  1  0  0  0
  5  6  1  0  0  0
  5 34  1  0  0  0
  5 35  1  0  0  0
  6  7  1  0  0  0
  6 36  1  0  0  0
  6 37  1  0  0  0
  8  9  2  0  0  0
  8 14  1  0  0  0
  9 10  1  0  0  0
  9 38  1  0  0  0
 10 11  2  0  0  0
 10 12  1  0  0  0
 12 13  1  0  0  0
 12 39  1  0  0  0
 13 14  2  0  0  0
 13 15  1  0  0  0
 15 16  1  0  0  0
 15 40  1  0  0  0
 15 41  1  0  0  0
 16 17  2  0  0  0
 16 18  1  0  0  0
 18 19  1  0  0  0
 18 27  1  0  0  0
 19 20  1  0  0  0
 19 42  1  0  0  0
 19 43  1  0  0  0
 20 21  1  0  0  0
 20 44  1  0  0  0
 20 45  1  0  0  0
 21 22  2  0  0  0
 21 27  1  0  0  0
 22 23  1  0  0  0
 22 24  1  0  0  0
 24 25  2  0  0  0
 24 46  1  0  0  0
 25 26  1  0  0  0
 25 47  1  0  0  0
 26 27  2  0  0  0
 26 48  1  0  0  0
M  END
> <s_m_entry_id>
2413

> <s_m_entry_name>
dock_pv.152

> <s_m_Source_Path>
/home/csk/Desktop/cluster/DUD-E-result/akt1

> <s_m_Source_File>
dock_pv.maegz

> <i_m_Source_File_Index>
152

> <chembl_id>
CHEMBL3928308

> <chembl_pref_name>
None

> <i_lp_mmshare_version>
53161

> <i_f3d_flags>
0

> <r_lp_tautomer_probability>
0.994036381586735

> <s_lp_Force_Field>
OPLS_2005

> <r_lp_Energy>
52.881785

> <b_lp_Chiralities_Consistent>
1

> <s_lp_Variant>
CHEMBL4282_lig2321-2

> <s_i_glide_gridfile>
glide-grid_3cqw

> <i_i_glide_lignum>
3083

> <i_i_glide_rotatable_bonds>
4

> <r_i_docking_score>
-6.84362939686232

> <r_i_glide_ligand_efficiency>
-0.253467755439345

> <r_i_glide_ligand_efficiency_sa>
-0.760403265482647

> <r_i_glide_ligand_efficiency_ln>
-1.59308409754111

> <r_i_glide_gscore>
-6.84362939686232

> <r_i_glide_lipo>
-2.77557074783733

> <r_i_glide_hbond>
-0.0126469944669067

> <r_i_glide_metal>
0

> <r_i_glide_rewards>
-1.82039785644759

> <r_i_glide_evdw>
-43.4928932189941

> <r_i_glide_ecoul>
-3.47393941879272

> <r_i_glide_erotb>
0.557083363978318

> <r_i_glide_esite>
-0.0963615883201894

> <r_i_glide_emodel>
-65.9128170450467

> <r_i_glide_energy>
-46.9668326377869

> <r_i_glide_einternal>
0.679502248764038

> <i_i_glide_confnum>
32

> <i_i_glide_posenum>
379

> <r_i_glide_eff_state_penalty>
0

> <s_user_duplicate_titles>
CHEMBL4282_lig2321

> <s_m_subgroup_title>
dock_pv

> <s_m_subgroupid>
dock_pv

> <b_m_subgroup_collapsed>
1

$$$$
CHEMBL4282_lig3051
                    3D
 Schrodinger Suite 2021-1.
 59 63  0  0  1  0            999 V2000
    5.2446    0.3843   16.7136 C   0  0  0  0  0  0
    6.4913    0.6395   17.2822 C   0  0  0  0  0  0
    7.0051    1.9387   17.4278 C   0  0  0  0  0  0
    6.2323    3.0223   16.9850 C   0  0  0  0  0  0
    8.3651    2.1731   18.0131 C   0  0  0  0  0  0
    8.9902    1.2281   18.8428 C   0  0  0  0  0  0
   10.2968    1.4294   19.3250 C   0  0  0  0  0  0
   10.9096    2.6405   19.0089 C   0  0  0  0  0  0
   10.3275    3.5944   18.2444 N   0  0  0  0  0  0
    9.0960    3.3410   17.7446 C   0  0  0  0  0  0
   11.0193    0.5127   20.0669 O   0  0  0  0  0  0
   10.4082   -0.7393   20.3579 C   0  0  0  0  0  0
   11.3893   -1.7184   21.0408 C   0  0  2  0  0  0
   12.4743   -2.3296   20.1021 C   0  0  0  0  0  0
   10.6306   -2.7657   21.7094 N   0  0  0  0  0  0
    3.2082    1.4402   15.7737 N   0  0  0  0  0  0
    4.4709    1.4697   16.2913 C   0  0  0  0  0  0
    4.9751    2.7971   16.4124 C   0  0  0  0  0  0
    3.9605    3.6142   15.8558 C   0  0  0  0  0  0
    2.9466    2.7374   15.5520 N   0  0  0  0  0  0
    3.8839    5.0989   15.6088 C   0  0  0  0  0  0
   12.0008   -2.8602   18.7279 C   0  0  0  0  0  0
   12.1511   -2.0552   17.5826 C   0  0  0  0  0  0
   11.7358   -2.5354   16.3354 C   0  0  0  0  0  0
   11.1560   -3.7884   16.2014 C   0  0  0  0  0  0
   11.4105   -4.1671   18.6136 C   0  0  0  0  0  0
   10.9700   -4.6151   17.3254 C   0  0  0  0  0  0
   10.3531   -5.8858   17.1885 C   0  0  0  0  0  0
   10.1848   -6.7086   18.2951 C   0  0  0  0  0  0
   10.6307   -6.3025   19.5455 C   0  0  0  0  0  0
   11.2420   -5.0630   19.7116 C   0  0  0  0  0  0
   12.7305   -0.8079   17.7405 O   0  0  0  0  0  0
   12.7787    0.1043   16.6512 C   0  0  0  0  0  0
    4.8742   -0.6261   16.6253 H   0  0  0  0  0  0
    7.0683   -0.2125   17.6071 H   0  0  0  0  0  0
    6.5813    4.0383   17.0907 H   0  0  0  0  0  0
    8.4598    0.3264   19.1053 H   0  0  0  0  0  0
   11.9010    2.8612   19.3770 H   0  0  0  0  0  0
    8.7131    4.1183   17.1030 H   0  0  0  0  0  0
   10.0263   -1.1946   19.4427 H   0  0  0  0  0  0
    9.5437   -0.5482   20.9992 H   0  0  0  0  0  0
   11.9084   -1.1714   21.8302 H   0  0  0  0  0  0
   13.0396   -3.1030   20.6230 H   0  0  0  0  0  0
   13.2215   -1.5515   19.9352 H   0  0  0  0  0  0
    9.9705   -2.3663   22.3657 H   0  0  0  0  0  0
   10.0485   -3.2207   21.0097 H   0  0  0  0  0  0
    2.0557    3.0277   15.1648 H   0  0  0  0  0  0
    3.8310    5.6602   16.5427 H   0  0  0  0  0  0
    4.7713    5.4508   15.0838 H   0  0  0  0  0  0
    3.0328    5.3685   14.9867 H   0  0  0  0  0  0
   11.8578   -1.9420   15.4415 H   0  0  0  0  0  0
   10.8446   -4.1463   15.2298 H   0  0  0  0  0  0
   10.0194   -6.2200   16.2164 H   0  0  0  0  0  0
    9.7211   -7.6784   18.1808 H   0  0  0  0  0  0
   10.5151   -6.9616   20.3959 H   0  0  0  0  0  0
   11.6021   -4.8019   20.6940 H   0  0  0  0  0  0
   13.2172    1.0394   16.9971 H   0  0  0  0  0  0
   13.4085   -0.2678   15.8406 H   0  0  0  0  0  0
   11.7853    0.3300   16.2676 H   0  0  0  0  0  0
  1 17  1  0  0  0
  1 34  1  0  0  0
  1  2  2  0  0  0
  2 35  1  0  0  0
  2  3  1  0  0  0
  3  5  1  0  0  0
  3  4  2  0  0  0
  4 36  1  0  0  0
  4 18  1  0  0  0
  5 10  2  0  0  0
  5  6  1  0  0  0
  6  7  2  0  0  0
  6 37  1  0  0  0
  7  8  1  0  0  0
  7 11  1  0  0  0
  8  9  2  0  0  0
  8 38  1  0  0  0
  9 10  1  0  0  0
 10 39  1  0  0  0
 11 12  1  0  0  0
 12 13  1  0  0  0
 12 40  1  0  0  0
 12 41  1  0  0  0
 13 14  1  0  0  0
 13 15  1  0  0  0
 13 42  1  0  0  0
 14 22  1  0  0  0
 14 43  1  0  0  0
 14 44  1  0  0  0
 15 45  1  0  0  0
 15 46  1  0  0  0
 16 20  1  0  0  0
 16 17  2  0  0  0
 17 18  1  0  0  0
 18 19  2  0  0  0
 19 20  1  0  0  0
 19 21  1  0  0  0
 20 47  1  0  0  0
 21 48  1  0  0  0
 21 49  1  0  0  0
 21 50  1  0  0  0
 22 23  2  0  0  0
 22 26  1  0  0  0
 23 24  1  0  0  0
 23 32  1  0  0  0
 24 25  2  0  0  0
 24 51  1  0  0  0
 25 27  1  0  0  0
 25 52  1  0  0  0
 26 27  1  0  0  0
 26 31  2  0  0  0
 27 28  2  0  0  0
 28 29  1  0  0  0
 28 53  1  0  0  0
 29 30  2  0  0  0
 29 54  1  0  0  0
 30 31  1  0  0  0
 30 55  1  0  0  0
 31 56  1  0  0  0
 32 33  1  0  0  0
 33 57  1  0  0  0
 33 58  1  0  0  0
 33 59  1  0  0  0
M  END
> <s_m_entry_id>
2414

> <s_m_entry_name>
dock_pv.153

> <s_m_Source_Path>
/home/csk/Desktop/cluster/DUD-E-result/akt1

> <s_m_Source_File>
dock_pv.maegz

> <i_m_Source_File_Index>
153

> <chembl_id>
CHEMBL210403

> <chembl_pref_name>
None

> <i_lp_mmshare_version>
53161

> <i_f3d_flags>
0

> <r_lp_tautomer_probability>
0.0196078431372549

> <s_lp_Force_Field>
OPLS_2005

> <r_lp_Energy>
50.22255

> <b_lp_Chiralities_Consistent>
1

> <s_lp_Variant>
CHEMBL4282_lig3051-2

> <s_i_glide_gridfile>
glide-grid_3cqw

> <i_i_glide_lignum>
3963

> <i_i_glide_rotatable_bonds>
7

> <r_i_docking_score>
-6.84323488560424

> <r_i_glide_ligand_efficiency>
-0.207370754109219

> <r_i_glide_ligand_efficiency_sa>
-0.665148812067211

> <r_i_glide_ligand_efficiency_ln>
-1.52190000618444

> <r_i_glide_gscore>
-6.84323488560424

> <r_i_glide_lipo>
-2.99816038011643

> <r_i_glide_hbond>
-0.326575798260733

> <r_i_glide_metal>
0

> <r_i_glide_rewards>
-1.27750781753869

> <r_i_glide_evdw>
-51.0679817199707

> <r_i_glide_ecoul>
-2.06713581085205

> <r_i_glide_erotb>
0.622478567937961

> <r_i_glide_esite>
0

> <r_i_glide_emodel>
-74.7977384247103

> <r_i_glide_energy>
-53.1351175308228

> <r_i_glide_einternal>
2.55179500579834

> <i_i_glide_confnum>
8

> <i_i_glide_posenum>
55

> <r_i_glide_eff_state_penalty>
0

> <s_user_duplicate_titles>
CHEMBL4282_lig3051,350576

> <s_m_subgroup_title>
dock_pv

> <s_m_subgroupid>
dock_pv

> <b_m_subgroup_collapsed>
1

$$$$
CHEMBL4282_lig2352
                    3D
 Schrodinger Suite 2021-1.
 48 51  0  0  1  0            999 V2000
   10.7846    1.6024   21.5061 C   0  0  0  0  0  0
   10.1047    0.4424   20.7336 C   0  0  2  0  0  0
   10.6492   -0.9102   21.2031 C   0  0  0  0  0  0
   11.5823   -1.3238   20.1079 C   0  0  0  0  0  0
   12.4212   -2.4368   20.0379 C   0  0  0  0  0  0
   13.0654   -2.7429   18.8393 C   0  0  0  0  0  0
   12.8539   -1.9513   17.7108 C   0  0  0  0  0  0
   13.4506   -2.2752   16.5425 F   0  0  0  0  0  0
   12.0151   -0.8389   17.7795 C   0  0  0  0  0  0
   11.3886   -0.5120   18.9915 C   0  0  0  0  0  0
   10.4418    0.4932   19.2927 N   0  0  0  0  0  0
   10.0249    1.4957   18.4661 C   0  0  0  0  0  0
   10.5649    1.7428   17.3851 O   0  0  0  0  0  0
    8.7722    2.3201   18.8342 C   0  0  0  0  0  0
    7.5537    1.7844   18.0921 C   0  0  0  0  0  0
    6.8154    2.5640   17.3765 N   0  0  0  0  0  0
    5.7606    2.0312   16.6794 C   0  0  0  0  0  0
    5.5283    0.7007   16.6455 C   0  0  0  0  0  0
    6.2285   -0.1645   17.5420 C   0  0  0  0  0  0
    5.8345   -1.2961   17.7813 O   0  0  0  0  0  0
    7.2446    0.4520   18.1768 N   0  0  0  0  0  0
    4.9447    2.9142   16.0024 N   0  0  0  0  0  0
    5.3458    4.2371   15.4815 C   0  0  0  0  0  0
    4.3379    5.3187   15.9086 C   0  0  0  0  0  0
    3.0321    4.9213   15.5526 O   0  0  0  0  0  0
    2.6470    3.7509   16.2700 C   0  0  0  0  0  0
    3.5252    2.6215   15.7201 C   0  0  0  0  0  0
   10.5292    1.5638   22.5655 H   0  0  0  0  0  0
   11.8721    1.5407   21.4468 H   0  0  0  0  0  0
   10.4860    2.5881   21.1483 H   0  0  0  0  0  0
    9.0289    0.4802   20.9081 H   0  0  0  0  0  0
    9.8318   -1.6289   21.2521 H   0  0  0  0  0  0
   11.0908   -0.8816   22.2001 H   0  0  0  0  0  0
   12.5472   -3.0877   20.8908 H   0  0  0  0  0  0
   13.7036   -3.6114   18.7763 H   0  0  0  0  0  0
   11.8585   -0.2610   16.8825 H   0  0  0  0  0  0
    8.5694    2.3549   19.9017 H   0  0  0  0  0  0
    8.9643    3.3587   18.5619 H   0  0  0  0  0  0
    4.7266    0.2686   16.0745 H   0  0  0  0  0  0
    7.6678   -0.1281   18.8988 H   0  0  0  0  0  0
    6.3066    4.5162   15.9149 H   0  0  0  0  0  0
    5.6037    4.2365   14.4250 H   0  0  0  0  0  0
    4.5862    6.2885   15.4805 H   0  0  0  0  0  0
    4.3203    5.4362   16.9809 H   0  0  0  0  0  0
    1.5843    3.5358   16.1846 H   0  0  0  0  0  0
    2.7932    3.8525   17.3486 H   0  0  0  0  0  0
    3.3274    2.2569   14.7124 H   0  0  0  0  0  0
    3.2250    1.7519   16.3043 H   0  0  0  0  0  0
  1  2  1  0  0  0
  1 28  1  0  0  0
  1 29  1  0  0  0
  1 30  1  0  0  0
  2  3  1  0  0  0
  2 11  1  0  0  0
  2 31  1  0  0  0
  3  4  1  0  0  0
  3 32  1  0  0  0
  3 33  1  0  0  0
  4  5  2  0  0  0
  4 10  1  0  0  0
  5  6  1  0  0  0
  5 34  1  0  0  0
  6  7  2  0  0  0
  6 35  1  0  0  0
  7  8  1  0  0  0
  7  9  1  0  0  0
  9 10  2  0  0  0
  9 36  1  0  0  0
 10 11  1  0  0  0
 11 12  1  0  0  0
 12 13  2  0  0  0
 12 14  1  0  0  0
 14 15  1  0  0  0
 14 37  1  0  0  0
 14 38  1  0  0  0
 15 16  2  0  0  0
 15 21  1  0  0  0
 16 17  1  0  0  0
 17 18  2  0  0  0
 17 22  1  0  0  0
 18 19  1  0  0  0
 18 39  1  0  0  0
 19 20  2  0  0  0
 19 21  1  0  0  0
 21 40  1  0  0  0
 22 23  1  0  0  0
 22 27  1  0  0  0
 23 24  1  0  0  0
 23 41  1  0  0  0
 23 42  1  0  0  0
 24 25  1  0  0  0
 24 43  1  0  0  0
 24 44  1  0  0  0
 25 26  1  0  0  0
 26 27  1  0  0  0
 26 45  1  0  0  0
 26 46  1  0  0  0
 27 47  1  0  0  0
 27 48  1  0  0  0
M  END
> <s_m_entry_id>
2415

> <s_m_entry_name>
dock_pv.154

> <s_m_Source_Path>
/home/csk/Desktop/cluster/DUD-E-result/akt1

> <s_m_Source_File>
dock_pv.maegz

> <i_m_Source_File_Index>
154

> <chembl_id>
CHEMBL3896158

> <chembl_pref_name>
None

> <i_lp_mmshare_version>
53161

> <i_f3d_flags>
0

> <r_lp_tautomer_probability>
0.994036381586735

> <s_lp_Force_Field>
OPLS_2005

> <r_lp_Energy>
54.301433

> <b_lp_Chiralities_Consistent>
1

> <s_lp_Variant>
CHEMBL4282_lig2352-1

> <s_i_glide_gridfile>
glide-grid_3cqw

> <i_i_glide_lignum>
3142

> <i_i_glide_rotatable_bonds>
4

> <r_i_docking_score>
-6.83920118567461

> <r_i_glide_ligand_efficiency>
-0.253303747617578

> <r_i_glide_ligand_efficiency_sa>
-0.759911242017887

> <r_i_glide_ligand_efficiency_ln>
-1.59205328298137

> <r_i_glide_gscore>
-6.83920118567461

> <r_i_glide_lipo>
-1.71005386471814

> <r_i_glide_hbond>
-0.417709163233679

> <r_i_glide_metal>
0

> <r_i_glide_rewards>
-1.68180528463006

> <r_i_glide_evdw>
-33.4941825866699

> <r_i_glide_ecoul>
-11.6649732589722

> <r_i_glide_erotb>
0.557083363978318

> <r_i_glide_esite>
-0.162261118891728

> <r_i_glide_emodel>
-59.0078858228139

> <r_i_glide_energy>
-45.1591558456421

> <r_i_glide_einternal>
5.7466778755188

> <i_i_glide_confnum>
69

> <i_i_glide_posenum>
134

> <r_i_glide_eff_state_penalty>
0

> <s_user_duplicate_titles>
CHEMBL4282_lig2352

> <s_m_subgroup_title>
dock_pv

> <s_m_subgroupid>
dock_pv

> <b_m_subgroup_collapsed>
1

$$$$
CHEMBL4282_lig2355
                    3D
 Schrodinger Suite 2021-1.
 48 51  0  0  1  0            999 V2000
    9.4887    5.1803   18.9573 C   0  0  0  0  0  0
    9.5619    3.9154   18.0580 C   0  0  2  0  0  0
    8.1921    3.6966   17.3260 C   0  0  0  0  0  0
    7.8778    4.6349   16.5860 O   0  0  0  0  0  0
    7.3630    2.6072   17.4336 N   0  0  0  0  0  0
    7.7322    1.3279   18.0608 C   0  0  0  0  0  0
    6.6365    0.3368   17.6987 C   0  0  0  0  0  0
    5.6280    1.1588   16.9672 C   0  0  0  0  0  0
    4.3858    0.7837   16.4552 C   0  0  0  0  0  0
    3.9591   -0.4932   16.5853 F   0  0  0  0  0  0
    3.5645    1.7358   15.8497 C   0  0  0  0  0  0
    3.9757    3.0664   15.7851 C   0  0  0  0  0  0
    5.2254    3.4384   16.2864 C   0  0  0  0  0  0
    6.0824    2.4701   16.8374 C   0  0  0  0  0  0
   10.2454    2.7301   18.7710 C   0  0  0  0  0  0
   10.8892    1.8373   18.0890 N   0  0  0  0  0  0
   11.4692    0.7652   18.7244 C   0  0  0  0  0  0
   11.3979    0.6433   20.0722 C   0  0  0  0  0  0
   10.7131    1.6250   20.8737 C   0  0  0  0  0  0
   10.6311    1.5591   22.0931 O   0  0  0  0  0  0
   10.1808    2.6165   20.1349 N   0  0  0  0  0  0
   12.1182   -0.1609   17.9040 N   0  0  0  0  0  0
   12.3765   -0.0284   16.4568 C   0  0  0  0  0  0
   11.8463   -1.2644   15.6886 C   0  0  0  0  0  0
   12.4989   -2.4357   16.1687 O   0  0  0  0  0  0
   12.2424   -2.6297   17.5568 C   0  0  0  0  0  0
   12.7533   -1.4140   18.3621 C   0  0  0  0  0  0
    8.7802    5.0583   19.7806 H   0  0  0  0  0  0
   10.4618    5.4286   19.3837 H   0  0  0  0  0  0
    9.1733    6.0607   18.3957 H   0  0  0  0  0  0
   10.2306    4.1972   17.2458 H   0  0  0  0  0  0
    8.6531    0.9369   17.6273 H   0  0  0  0  0  0
    7.7768    1.4520   19.1481 H   0  0  0  0  0  0
    6.2311   -0.1413   18.5847 H   0  0  0  0  0  0
    7.0273   -0.4532   17.0576 H   0  0  0  0  0  0
    2.5982    1.4476   15.4626 H   0  0  0  0  0  0
    3.3257    3.8095   15.3504 H   0  0  0  0  0  0
    5.5040    4.4805   16.2331 H   0  0  0  0  0  0
   11.8378   -0.1693   20.6145 H   0  0  0  0  0  0
    9.7893    3.3660   20.6972 H   0  0  0  0  0  0
   11.8284    0.8282   16.0676 H   0  0  0  0  0  0
   13.3984    0.2845   16.2378 H   0  0  0  0  0  0
   12.0422   -1.1635   14.6219 H   0  0  0  0  0  0
   10.7621   -1.3618   15.7815 H   0  0  0  0  0  0
   12.7465   -3.5342   17.8954 H   0  0  0  0  0  0
   11.1804   -2.8003   17.7435 H   0  0  0  0  0  0
   13.8309   -1.3192   18.4841 H   0  0  0  0  0  0
   12.4604   -1.6307   19.3858 H   0  0  0  0  0  0
  1  2  1  0  0  0
  1 28  1  0  0  0
  1 29  1  0  0  0
  1 30  1  0  0  0
  2  3  1  0  0  0
  2 15  1  0  0  0
  2 31  1  0  0  0
  3  4  2  0  0  0
  3  5  1  0  0  0
  5  6  1  0  0  0
  5 14  1  0  0  0
  6  7  1  0  0  0
  6 32  1  0  0  0
  6 33  1  0  0  0
  7  8  1  0  0  0
  7 34  1  0  0  0
  7 35  1  0  0  0
  8  9  2  0  0  0
  8 14  1  0  0  0
  9 10  1  0  0  0
  9 11  1  0  0  0
 11 12  2  0  0  0
 11 36  1  0  0  0
 12 13  1  0  0  0
 12 37  1  0  0  0
 13 14  2  0  0  0
 13 38  1  0  0  0
 15 16  2  0  0  0
 15 21  1  0  0  0
 16 17  1  0  0  0
 17 18  2  0  0  0
 17 22  1  0  0  0
 18 19  1  0  0  0
 18 39  1  0  0  0
 19 20  2  0  0  0
 19 21  1  0  0  0
 21 40  1  0  0  0
 22 23  1  0  0  0
 22 27  1  0  0  0
 23 24  1  0  0  0
 23 41  1  0  0  0
 23 42  1  0  0  0
 24 25  1  0  0  0
 24 43  1  0  0  0
 24 44  1  0  0  0
 25 26  1  0  0  0
 26 27  1  0  0  0
 26 45  1  0  0  0
 26 46  1  0  0  0
 27 47  1  0  0  0
 27 48  1  0  0  0
M  END
> <s_m_entry_id>
2416

> <s_m_entry_name>
dock_pv.155

> <s_m_Source_Path>
/home/csk/Desktop/cluster/DUD-E-result/akt1

> <s_m_Source_File>
dock_pv.maegz

> <i_m_Source_File_Index>
155

> <chembl_id>
CHEMBL3937375

> <chembl_pref_name>
None

> <i_lp_mmshare_version>
53161

> <i_f3d_flags>
0

> <r_lp_tautomer_probability>
0.994036381586735

> <s_lp_Force_Field>
OPLS_2005

> <r_lp_Energy>
53.897936

> <b_lp_Chiralities_Consistent>
1

> <s_lp_Variant>
CHEMBL4282_lig2355-1

> <s_i_glide_gridfile>
glide-grid_3cqw

> <i_i_glide_lignum>
3148

> <i_i_glide_rotatable_bonds>
4

> <r_i_docking_score>
-6.83429282596133

> <r_i_glide_ligand_efficiency>
-0.253121956517086

> <r_i_glide_ligand_efficiency_sa>
-0.75936586871701

> <r_i_glide_ligand_efficiency_ln>
-1.59091069776076

> <r_i_glide_gscore>
-6.83429282596133

> <r_i_glide_lipo>
-2.18613682508513

> <r_i_glide_hbond>
-0.15089688793932

> <r_i_glide_metal>
0

> <r_i_glide_rewards>
-1.81690801292449

> <r_i_glide_evdw>
-44.5695533752441

> <r_i_glide_ecoul>
-5.92471504211426

> <r_i_glide_erotb>
0.557083363978318

> <r_i_glide_esite>
-0.120249538911355

> <r_i_glide_emodel>
-69.1528883302986

> <r_i_glide_energy>
-50.4942684173584

> <r_i_glide_einternal>
5.01196670532227

> <i_i_glide_confnum>
35

> <i_i_glide_posenum>
125

> <r_i_glide_eff_state_penalty>
0

> <s_user_duplicate_titles>
CHEMBL4282_lig2355

> <s_m_subgroup_title>
dock_pv

> <s_m_subgroupid>
dock_pv

> <b_m_subgroup_collapsed>
1

$$$$
CHEMBL4282_lig2358
                    3D
 Schrodinger Suite 2021-1.
 46 49  0  0  1  0            999 V2000
    7.8145    4.6367   16.8672 O   0  0  0  0  0  0
    8.2091    3.6671   17.5162 C   0  0  0  0  0  0
    9.6095    3.8982   18.1691 C   0  0  0  0  0  0
   10.3765    2.7523   18.8217 C   0  0  0  0  0  0
   10.9143    1.8192   18.1099 N   0  0  0  0  0  0
   11.4978    0.7415   18.7283 C   0  0  0  0  0  0
   11.6025    0.6842   20.0791 C   0  0  0  0  0  0
   11.0610    1.7329   20.9066 C   0  0  0  0  0  0
   11.1206    1.7297   22.1286 O   0  0  0  0  0  0
   10.4707    2.7096   20.1848 N   0  0  0  0  0  0
   11.9292   -0.2821   17.8876 N   0  0  0  0  0  0
   12.3379   -0.0923   16.4815 C   0  0  0  0  0  0
   11.9003   -1.2922   15.6109 C   0  0  0  0  0  0
   12.4687   -2.4922   16.1192 O   0  0  0  0  0  0
   12.0057   -2.7463   17.4393 C   0  0  0  0  0  0
   12.4109   -1.5897   18.3794 C   0  0  0  0  0  0
    7.4335    2.5373   17.6115 N   0  0  0  0  0  0
    7.8987    1.2709   18.1846 C   0  0  0  0  0  0
    6.7676    0.2900   18.0420 C   0  0  0  0  0  0
    5.8279    0.9519   17.0989 C   0  0  0  0  0  0
    4.6054    0.4717   16.6165 C   0  0  0  0  0  0
    3.7573    1.3467   15.9300 C   0  0  0  0  0  0
    4.1086    2.6894   15.7853 C   0  0  0  0  0  0
    5.3186    3.1642   16.2951 C   0  0  0  0  0  0
    6.2115    2.2838   16.9256 C   0  0  0  0  0  0
    4.1669   -0.8776   16.9849 C   0  0  0  0  0  0
    3.8307   -1.9420   17.2945 N   0  0  0  0  0  0
   10.2376    4.3222   17.3880 H   0  0  0  0  0  0
    9.4875    4.7089   18.8886 H   0  0  0  0  0  0
   12.0572   -0.1427   20.5915 H   0  0  0  0  0  0
   10.1508    3.4948   20.7511 H   0  0  0  0  0  0
   11.8358    0.7842   16.0709 H   0  0  0  0  0  0
   13.3873    0.1901   16.3895 H   0  0  0  0  0  0
   12.2300   -1.1532   14.5851 H   0  0  0  0  0  0
   10.8116   -1.3640   15.5611 H   0  0  0  0  0  0
   12.4338   -3.6828   17.7977 H   0  0  0  0  0  0
   10.9234   -2.8935   17.4531 H   0  0  0  0  0  0
   13.4672   -1.5640   18.6483 H   0  0  0  0  0  0
   11.9305   -1.8171   19.3309 H   0  0  0  0  0  0
    8.6869    0.9053   17.5273 H   0  0  0  0  0  0
    8.2890    1.2969   19.2016 H   0  0  0  0  0  0
    6.2384    0.2375   18.9849 H   0  0  0  0  0  0
    7.0993   -0.7195   17.7998 H   0  0  0  0  0  0
    2.7955    1.0133   15.5643 H   0  0  0  0  0  0
    3.4249    3.3708   15.3004 H   0  0  0  0  0  0
    5.5331    4.2173   16.2008 H   0  0  0  0  0  0
  1  2  2  0  0  0
  2  3  1  0  0  0
  2 17  1  0  0  0
  3  4  1  0  0  0
  3 28  1  0  0  0
  3 29  1  0  0  0
  4  5  2  0  0  0
  4 10  1  0  0  0
  5  6  1  0  0  0
  6  7  2  0  0  0
  6 11  1  0  0  0
  7  8  1  0  0  0
  7 30  1  0  0  0
  8  9  2  0  0  0
  8 10  1  0  0  0
 10 31  1  0  0  0
 11 12  1  0  0  0
 11 16  1  0  0  0
 12 13  1  0  0  0
 12 32  1  0  0  0
 12 33  1  0  0  0
 13 14  1  0  0  0
 13 34  1  0  0  0
 13 35  1  0  0  0
 14 15  1  0  0  0
 15 16  1  0  0  0
 15 36  1  0  0  0
 15 37  1  0  0  0
 16 38  1  0  0  0
 16 39  1  0  0  0
 17 18  1  0  0  0
 17 25  1  0  0  0
 18 19  1  0  0  0
 18 40  1  0  0  0
 18 41  1  0  0  0
 19 20  1  0  0  0
 19 42  1  0  0  0
 19 43  1  0  0  0
 20 21  2  0  0  0
 20 25  1  0  0  0
 21 22  1  0  0  0
 21 26  1  0  0  0
 22 23  2  0  0  0
 22 44  1  0  0  0
 23 24  1  0  0  0
 23 45  1  0  0  0
 24 25  2  0  0  0
 24 46  1  0  0  0
 26 27  3  0  0  0
M  END
> <s_m_entry_id>
2417

> <s_m_entry_name>
dock_pv.156

> <s_m_Source_Path>
/home/csk/Desktop/cluster/DUD-E-result/akt1

> <s_m_Source_File>
dock_pv.maegz

> <i_m_Source_File_Index>
156

> <chembl_id>
CHEMBL3922497

> <chembl_pref_name>
None

> <i_lp_mmshare_version>
53161

> <i_f3d_flags>
0

> <r_lp_tautomer_probability>
0.994036381586735

> <s_lp_Force_Field>
OPLS_2005

> <r_lp_Energy>
55.180886

> <b_lp_Chiralities_Consistent>
1

> <s_lp_Variant>
CHEMBL4282_lig2358-1

> <s_i_glide_gridfile>
glide-grid_3cqw

> <i_i_glide_lignum>
3154

> <i_i_glide_rotatable_bonds>
4

> <r_i_docking_score>
-6.82743203562202

> <r_i_glide_ligand_efficiency>
-0.252867853171186

> <r_i_glide_ligand_efficiency_sa>
-0.758603558680147

> <r_i_glide_ligand_efficiency_ln>
-1.58931361887874

> <r_i_glide_gscore>
-6.82743203562202

> <r_i_glide_lipo>
-2.09326673983135

> <r_i_glide_hbond>
-0.322266746717336

> <r_i_glide_metal>
0

> <r_i_glide_rewards>
-1.71948527926695

> <r_i_glide_evdw>
-41.1342658996582

> <r_i_glide_ecoul>
-7.22859191894531

> <r_i_glide_erotb>
0.576316634779472

> <r_i_glide_esite>
-0.127727821761154

> <r_i_glide_emodel>
-69.6544823950407

> <r_i_glide_energy>
-48.3628578186035

> <r_i_glide_einternal>
0.668187081813812

> <i_i_glide_confnum>
19

> <i_i_glide_posenum>
344

> <r_i_glide_eff_state_penalty>
0

> <s_user_duplicate_titles>
CHEMBL4282_lig2358

> <s_m_subgroup_title>
dock_pv

> <s_m_subgroupid>
dock_pv

> <b_m_subgroup_collapsed>
1

$$$$
CHEMBL4282_lig811
                    3D
 Schrodinger Suite 2021-1.
 49 52  0  0  1  0            999 V2000
    5.0757    4.6091   15.6693 C   0  0  0  0  0  0
    6.3716    4.5600   16.1869 C   0  0  0  0  0  0
    6.8689    3.4391   16.8682 C   0  0  0  0  0  0
    6.0737    2.2918   16.9818 C   0  0  0  0  0  0
    3.0309    3.1254   15.3972 N   0  0  0  0  0  0
    4.3125    3.4449   15.7850 C   0  0  0  0  0  0
    4.8065    2.2711   16.3940 C   0  0  0  0  0  0
    3.7706    1.2983   16.2281 C   0  0  0  0  0  0
    2.7387    1.8372   15.6323 N   0  0  0  0  0  0
    3.7076   -0.1428   16.7109 C   0  0  0  0  0  0
    8.2400    3.4523   17.4746 C   0  0  0  0  0  0
    8.9495    2.0253   18.1882 S   0  0  0  0  0  0
   10.3341    2.9930   18.5843 C   0  0  0  0  0  0
   10.2312    4.2360   18.1859 N   0  0  0  0  0  0
    9.0246    4.5037   17.5488 N   0  0  0  0  0  0
   11.4264    2.4653   19.2234 N   0  0  0  0  0  0
   11.4729    1.1741   19.9040 C   0  0  0  0  0  0
   12.8937    0.6082   20.0853 C   0  0  2  0  0  0
   13.6268    0.2610   18.7625 C   0  0  0  0  0  0
   12.9755   -0.7902   17.8562 C   0  0  0  0  0  0
   12.3816   -0.4015   16.6507 C   0  0  0  0  0  0
   11.8621   -1.3636   15.7866 C   0  0  0  0  0  0
   11.9179   -2.7108   16.1351 C   0  0  0  0  0  0
   12.4976   -3.1062   17.3379 C   0  0  0  0  0  0
   13.0308   -2.1467   18.1943 C   0  0  0  0  0  0
   12.8180   -0.5612   20.9460 N   0  0  0  0  0  0
    5.0395   -0.8835   16.6447 C   0  0  0  0  0  0
    4.6992    5.4983   15.1870 H   0  0  0  0  0  0
    6.9943    5.4347   16.0797 H   0  0  0  0  0  0
    6.4271    1.4146   17.4969 H   0  0  0  0  0  0
    2.3428    3.7124   14.9456 H   0  0  0  0  0  0
    3.3820   -0.2067   17.7380 H   0  0  0  0  0  0
    2.9467   -0.7033   16.1850 H   0  0  0  0  0  0
   12.1434    3.1029   19.5390 H   0  0  0  0  0  0
   10.8679    0.4414   19.3684 H   0  0  0  0  0  0
   11.0004    1.3120   20.8785 H   0  0  0  0  0  0
   13.4929    1.3498   20.6172 H   0  0  0  0  0  0
   14.6356   -0.0789   18.9979 H   0  0  0  0  0  0
   13.7778    1.1772   18.1903 H   0  0  0  0  0  0
   12.3408    0.6424   16.3732 H   0  0  0  0  0  0
   11.4306   -1.0661   14.8430 H   0  0  0  0  0  0
   11.5150   -3.4553   15.4636 H   0  0  0  0  0  0
   12.5424   -4.1524   17.6026 H   0  0  0  0  0  0
   13.5012   -2.4608   19.1146 H   0  0  0  0  0  0
   12.3434   -0.3222   21.8053 H   0  0  0  0  0  0
   12.2458   -1.2636   20.4968 H   0  0  0  0  0  0
    4.8763   -1.9599   16.5872 H   0  0  0  0  0  0
    5.6241   -0.5629   15.7839 H   0  0  0  0  0  0
    5.6455   -0.6951   17.5315 H   0  0  0  0  0  0
  1  2  2  0  0  0
  1  6  1  0  0  0
  1 28  1  0  0  0
  2  3  1  0  0  0
  2 29  1  0  0  0
  3  4  2  0  0  0
  3 11  1  0  0  0
  4  7  1  0  0  0
  4 30  1  0  0  0
  5  6  1  0  0  0
  5  9  1  0  0  0
  5 31  1  0  0  0
  6  7  2  0  0  0
  7  8  1  0  0  0
  8  9  2  0  0  0
  8 10  1  0  0  0
 10 27  1  0  0  0
 10 32  1  0  0  0
 10 33  1  0  0  0
 11 12  1  0  0  0
 11 15  2  0  0  0
 12 13  1  0  0  0
 13 14  2  0  0  0
 13 16  1  0  0  0
 14 15  1  0  0  0
 16 17  1  0  0  0
 16 34  1  0  0  0
 17 18  1  0  0  0
 17 35  1  0  0  0
 17 36  1  0  0  0
 18 19  1  0  0  0
 18 26  1  0  0  0
 18 37  1  0  0  0
 19 20  1  0  0  0
 19 38  1  0  0  0
 19 39  1  0  0  0
 20 21  2  0  0  0
 20 25  1  0  0  0
 21 22  1  0  0  0
 21 40  1  0  0  0
 22 23  2  0  0  0
 22 41  1  0  0  0
 23 24  1  0  0  0
 23 42  1  0  0  0
 24 25  2  0  0  0
 24 43  1  0  0  0
 25 44  1  0  0  0
 26 45  1  0  0  0
 26 46  1  0  0  0
 27 47  1  0  0  0
 27 48  1  0  0  0
 27 49  1  0  0  0
M  END
> <s_m_entry_id>
2418

> <s_m_entry_name>
dock_pv.157

> <s_m_Source_Path>
/home/csk/Desktop/cluster/DUD-E-result/akt1

> <s_m_Source_File>
dock_pv.maegz

> <i_m_Source_File_Index>
157

> <chembl_id>
CHEMBL1081426

> <chembl_pref_name>
None

> <i_lp_mmshare_version>
53161

> <i_f3d_flags>
0

> <r_lp_tautomer_probability>
0.980392156862745

> <s_lp_Force_Field>
OPLS_2005

> <r_lp_Energy>
15.762218

> <b_lp_Chiralities_Consistent>
1

> <s_lp_Variant>
CHEMBL4282_lig811-1

> <s_i_glide_gridfile>
glide-grid_3cqw

> <i_i_glide_lignum>
1186

> <i_i_glide_rotatable_bonds>
7

> <r_i_docking_score>
-6.82312643657015

> <r_i_glide_ligand_efficiency>
-0.252708386539635

> <r_i_glide_ligand_efficiency_sa>
-0.75812515878602

> <r_i_glide_ligand_efficiency_ln>
-1.58831134640281

> <r_i_glide_gscore>
-6.82312643657015

> <r_i_glide_lipo>
-3.42820272096712

> <r_i_glide_hbond>
-0.199390393141471

> <r_i_glide_metal>
0

> <r_i_glide_rewards>
-1.803444

> <r_i_glide_evdw>
-42.7703857421875

> <r_i_glide_ecoul>
0.921787977218628

> <r_i_glide_erotb>
0.676392501801197

> <r_i_glide_esite>
-0.06823073373617

> <r_i_glide_emodel>
-57.2231831589577

> <r_i_glide_energy>
-41.8485977649689

> <r_i_glide_einternal>
5.47456550598145

> <i_i_glide_confnum>
3

> <i_i_glide_posenum>
294

> <r_i_glide_eff_state_penalty>
0

> <s_user_duplicate_titles>
CHEMBL4282_lig811,612879

> <s_m_subgroup_title>
dock_pv

> <s_m_subgroupid>
dock_pv

> <b_m_subgroup_collapsed>
1

$$$$
CHEMBL4282_lig616
                    3D
 Schrodinger Suite 2021-1.
 32 33  0  0  1  0            999 V2000
    9.8399    3.2908   19.3714 C   0  0  0  0  0  0
    9.7026    3.8723   18.1213 C   0  0  0  0  0  0
    8.5130    3.7424   17.4032 C   0  0  0  0  0  0
    8.7485    2.6370   19.9480 C   0  0  0  0  0  0
    7.5721    2.4767   19.2175 C   0  0  0  0  0  0
    7.4461    2.9696   17.9065 C   0  0  0  0  0  0
    6.5265    0.1234   17.3850 C   0  0  0  0  0  0
    5.8310   -0.9630   17.7850 O   0  0  0  0  0  0
    5.7022    1.3274   16.9559 C   0  0  0  0  0  0
    6.1996    2.6515   17.1152 C   0  0  0  0  0  0
    5.4452    3.7133   16.5850 C   0  0  0  0  0  0
    4.1983    3.5110   16.0064 C   0  0  0  0  0  0
    3.6921    2.2298   15.8984 C   0  0  0  0  0  0
    4.4263    1.1518   16.3748 C   0  0  0  0  0  0
    7.7506    0.1119   17.4177 O   0  0  0  0  0  0
    3.8073   -0.0620   16.2947 O   0  0  0  0  0  0
    8.4363    4.4490   16.0764 C   0  0  0  0  0  0
   11.0310    3.4370   20.0346 O   0  0  0  0  0  0
    3.4310    4.5615   15.5830 O   0  0  0  0  0  0
    8.8096    2.1751   21.2348 O   0  0  0  0  0  0
   10.5257    4.4487   17.7241 H   0  0  0  0  0  0
    6.7527    1.9378   19.6738 H   0  0  0  0  0  0
    6.4168   -1.4195   18.3961 H   0  0  0  0  0  0
    5.7891    4.7268   16.7030 H   0  0  0  0  0  0
    2.7116    2.0745   15.4713 H   0  0  0  0  0  0
    2.9351   -0.0104   15.8995 H   0  0  0  0  0  0
    9.4310    4.6369   15.6762 H   0  0  0  0  0  0
    7.9033    3.8370   15.3648 H   0  0  0  0  0  0
    7.9027    5.3908   16.1850 H   0  0  0  0  0  0
   10.8775    4.0164   20.8038 H   0  0  0  0  0  0
    2.5838    4.2370   15.2629 H   0  0  0  0  0  0
    9.2115    2.8245   21.8246 H   0  0  0  0  0  0
  1  2  2  0  0  0
  1 18  1  0  0  0
  1  4  1  0  0  0
  2  3  1  0  0  0
  2 21  1  0  0  0
  3  6  2  0  0  0
  3 17  1  0  0  0
  4  5  2  0  0  0
  4 20  1  0  0  0
  5  6  1  0  0  0
  5 22  1  0  0  0
  6 10  1  0  0  0
  7 15  2  0  0  0
  7  9  1  0  0  0
  7  8  1  0  0  0
  8 23  1  0  0  0
  9 10  2  0  0  0
  9 14  1  0  0  0
 10 11  1  0  0  0
 11 12  2  0  0  0
 11 24  1  0  0  0
 12 13  1  0  0  0
 12 19  1  0  0  0
 13 14  2  0  0  0
 13 25  1  0  0  0
 14 16  1  0  0  0
 16 26  1  0  0  0
 17 27  1  0  0  0
 17 28  1  0  0  0
 17 29  1  0  0  0
 18 30  1  0  0  0
 19 31  1  0  0  0
 20 32  1  0  0  0
M  END
> <s_m_entry_id>
2419

> <s_m_entry_name>
dock_pv.158

> <s_m_Source_Path>
/home/csk/Desktop/cluster/DUD-E-result/akt1

> <s_m_Source_File>
dock_pv.maegz

> <i_m_Source_File_Index>
158

> <chembl_id>
CHEMBL483532

> <chembl_pref_name>
DESMETHYLALTENUSIN

> <i_lp_mmshare_version>
53161

> <i_f3d_flags>
0

> <r_lp_tautomer_probability>
0.999999999999776

> <s_lp_Force_Field>
OPLS_2005

> <r_lp_Energy>
21.556619

> <b_lp_Chiralities_Consistent>
1

> <s_lp_Variant>
CHEMBL4282_lig616-1

> <s_i_glide_gridfile>
glide-grid_3cqw

> <i_i_glide_lignum>
856

> <i_i_glide_rotatable_bonds>
7

> <r_i_docking_score>
-6.82141935794752

> <r_i_glide_ligand_efficiency>
-0.341070967897376

> <r_i_glide_ligand_efficiency_sa>
-0.925809042845221

> <r_i_glide_ligand_efficiency_ln>
-1.70717627982623

> <r_i_glide_gscore>
-6.82141935794752

> <r_i_glide_lipo>
-2.13504973224198

> <r_i_glide_hbond>
-0.256826550842259

> <r_i_glide_metal>
0

> <r_i_glide_rewards>
-2.04671292213202

> <r_i_glide_evdw>
-22.716588973999

> <r_i_glide_ecoul>
-11.0737342834473

> <r_i_glide_erotb>
0.471455290711079

> <r_i_glide_esite>
-0.057395852225305

> <r_i_glide_emodel>
-40.7083822693665

> <r_i_glide_energy>
-33.7903232574463

> <r_i_glide_einternal>
13.7078065872192

> <i_i_glide_confnum>
13

> <i_i_glide_posenum>
221

> <r_i_glide_eff_state_penalty>
0

> <s_user_duplicate_titles>
CHEMBL4282_lig616

> <s_m_subgroup_title>
dock_pv

> <s_m_subgroupid>
dock_pv

> <b_m_subgroup_collapsed>
1

$$$$
CHEMBL4282_lig896
                    3D
 Schrodinger Suite 2021-1.
 46 49  0  0  1  0            999 V2000
    9.1252    4.4152   18.4264 C   0  0  2  0  0  0
    6.9635    0.8420   17.5981 N   0  0  0  0  0  0
    6.2233   -0.2559   17.3861 C   0  0  0  0  0  0
    5.0313   -0.3447   16.7626 N   0  0  0  0  0  0
    6.5019    2.0313   17.1308 C   0  0  0  0  0  0
    4.2866    3.0911   15.9740 C   0  0  0  0  0  0
    5.2198    2.1118   16.5140 C   0  0  0  0  0  0
    4.5698    0.8428   16.3775 C   0  0  0  0  0  0
    3.3484    1.0415   15.8021 N   0  0  0  0  0  0
    3.1701    2.3741   15.5889 C   0  0  0  0  0  0
    7.4071    3.0850   17.3233 N   0  0  0  0  0  0
    8.5714    3.0072   18.2203 C   0  0  0  0  0  0
    7.4871    4.3915   16.6729 C   0  0  0  0  0  0
    8.8831    4.9374   17.0242 C   0  0  0  0  0  0
   10.6190    4.4927   18.8631 C   0  0  0  0  0  0
   11.0607    3.4370   19.7849 N   0  0  0  0  0  0
    8.2869    5.1296   19.3846 N   0  0  0  0  0  0
   11.6283    2.2612   19.4659 C   0  0  0  0  0  0
   11.8410    1.9141   18.3027 O   0  0  0  0  0  0
   11.9936    1.3707   20.6326 C   0  0  0  0  0  0
   11.2546    1.4137   21.8299 C   0  0  0  0  0  0
   11.5987    0.5975   22.9078 C   0  0  0  0  0  0
   12.6781   -0.2739   22.8085 C   0  0  0  0  0  0
   13.4200   -0.3274   21.6319 C   0  0  0  0  0  0
   13.0885    0.4892   20.5500 C   0  0  0  0  0  0
    4.3592    4.5362   15.8694 C   0  0  0  0  0  0
    4.3978    5.6880   15.7849 N   0  0  0  0  0  0
   13.8540    0.4110   19.4344 F   0  0  0  0  0  0
   13.0053   -1.0649   23.8558 F   0  0  0  0  0  0
    6.6282   -1.1664   17.7869 H   0  0  0  0  0  0
    2.6495    0.3439   15.5921 H   0  0  0  0  0  0
    2.2356    2.7041   15.1748 H   0  0  0  0  0  0
    8.3022    2.5596   19.1793 H   0  0  0  0  0  0
    9.3106    2.3534   17.7556 H   0  0  0  0  0  0
    7.4033    4.2747   15.5913 H   0  0  0  0  0  0
    6.7033    5.0380   17.0539 H   0  0  0  0  0  0
    9.6016    4.5289   16.3115 H   0  0  0  0  0  0
    9.0305    6.0162   16.9844 H   0  0  0  0  0  0
   11.2709    4.5179   17.9953 H   0  0  0  0  0  0
   10.8102    5.4527   19.3471 H   0  0  0  0  0  0
   10.9341    3.6746   20.7642 H   0  0  0  0  0  0
    7.3482    4.7499   19.3447 H   0  0  0  0  0  0
    8.6354    4.9580   20.3268 H   0  0  0  0  0  0
   10.4056    2.0768   21.9405 H   0  0  0  0  0  0
   11.0311    0.6372   23.8249 H   0  0  0  0  0  0
   14.2607   -1.0000   21.5578 H   0  0  0  0  0  0
  1 15  1  0  0  0
  1 17  1  0  0  0
  1 12  1  0  0  0
  1 14  1  0  0  0
  2  3  2  0  0  0
  2  5  1  0  0  0
  3  4  1  0  0  0
  3 30  1  0  0  0
  4  8  2  0  0  0
  5  7  2  0  0  0
  5 11  1  0  0  0
  6  7  1  0  0  0
  6 10  2  0  0  0
  6 26  1  0  0  0
  7  8  1  0  0  0
  8  9  1  0  0  0
  9 10  1  0  0  0
  9 31  1  0  0  0
 10 32  1  0  0  0
 11 12  1  0  0  0
 11 13  1  0  0  0
 12 33  1  0  0  0
 12 34  1  0  0  0
 13 14  1  0  0  0
 13 35  1  0  0  0
 13 36  1  0  0  0
 14 37  1  0  0  0
 14 38  1  0  0  0
 15 16  1  0  0  0
 15 39  1  0  0  0
 15 40  1  0  0  0
 16 18  1  0  0  0
 16 41  1  0  0  0
 17 42  1  0  0  0
 17 43  1  0  0  0
 18 19  2  0  0  0
 18 20  1  0  0  0
 20 21  2  0  0  0
 20 25  1  0  0  0
 21 22  1  0  0  0
 21 44  1  0  0  0
 22 23  2  0  0  0
 22 45  1  0  0  0
 23 24  1  0  0  0
 23 29  1  0  0  0
 24 25  2  0  0  0
 24 46  1  0  0  0
 25 28  1  0  0  0
 26 27  3  0  0  0
M  END
> <s_m_entry_id>
2420

> <s_m_entry_name>
dock_pv.159

> <s_m_Source_Path>
/home/csk/Desktop/cluster/DUD-E-result/akt1

> <s_m_Source_File>
dock_pv.maegz

> <i_m_Source_File_Index>
159

> <chembl_id>
CHEMBL1170447

> <chembl_pref_name>
None

> <i_lp_mmshare_version>
53161

> <i_f3d_flags>
0

> <r_lp_tautomer_probability>
1

> <s_lp_Force_Field>
OPLS_2005

> <r_lp_Energy>
39.305905

> <b_lp_Chiralities_Consistent>
1

> <s_lp_Variant>
CHEMBL4282_lig896-1

> <s_i_glide_gridfile>
glide-grid_3cqw

> <i_i_glide_lignum>
1282

> <i_i_glide_rotatable_bonds>
5

> <r_i_docking_score>
-6.82067519280555

> <r_i_glide_ligand_efficiency>
-0.23519569630364

> <r_i_glide_ligand_efficiency_sa>
-0.722595694271506

> <r_i_glide_ligand_efficiency_ln>
-1.56176166175275

> <r_i_glide_gscore>
-6.82067519280555

> <r_i_glide_lipo>
-1.45424555809894

> <r_i_glide_hbond>
-0.270303256708371

> <r_i_glide_metal>
0

> <r_i_glide_rewards>
-1.91201587007971

> <r_i_glide_evdw>
-39.9134559631348

> <r_i_glide_ecoul>
-9.90425109863281

> <r_i_glide_erotb>
0.49582569272319

> <r_i_glide_esite>
-0.198625737690054

> <r_i_glide_emodel>
-66.5424556039582

> <r_i_glide_energy>
-49.8177070617676

> <r_i_glide_einternal>
3.3303530216217

> <i_i_glide_confnum>
6

> <i_i_glide_posenum>
10

> <r_i_glide_eff_state_penalty>
0

> <s_user_duplicate_titles>
CHEMBL4282_lig896,649401

> <s_m_subgroup_title>
dock_pv

> <s_m_subgroupid>
dock_pv

> <b_m_subgroup_collapsed>
1

$$$$
CHEMBL4282_lig1224
                    3D
 Schrodinger Suite 2021-1.
 48 50  0  0  1  0            999 V2000
   12.8715    1.7400   19.6083 P   0  0  2  0  0  0
   12.6931    1.3497   18.0432 O   0  0  0  0  0  0
   12.6311    5.7345   20.6637 O   0  0  0  0  0  0
   11.7254    0.9857   20.4715 O   0  0  0  0  0  0
   12.7517    3.3453   19.8081 O   0  0  0  0  0  0
   13.2166    4.2765   21.0541 P   0  0  0  0  0  0
   14.6660    4.2362   21.3825 O   0  0  0  0  0  0
   12.2310    3.8363   22.2562 O   0  0  0  0  0  0
   14.2602    1.2277   20.0865 N   0  0  0  0  0  0
   10.6427    0.1454   17.0662 O   0  0  0  0  0  0
    9.6862    0.4812   18.0550 C   0  0  0  0  0  0
    9.5597    2.0084   18.2457 C   0  0  2  0  0  0
    8.6907    2.3897   19.4382 C   0  0  1  0  0  0
    9.4117    2.2917   20.6633 O   0  0  0  0  0  0
    8.1705    3.7817   19.0671 C   0  0  1  0  0  0
    9.0304    4.8642   19.3846 O   0  0  0  0  0  0
    8.0965    3.6729   17.5321 C   0  0  1  0  0  0
    8.9395    2.6361   17.1316 O   0  0  0  0  0  0
    6.7198    3.5202   16.9096 N   0  0  0  0  0  0
    6.0073    4.4351   16.2148 C   0  0  0  0  0  0
    4.8419    4.0020   15.8002 N   0  0  0  0  0  0
    4.8233    2.7116   16.1765 C   0  0  0  0  0  0
    3.8695    1.6832   15.9860 C   0  0  0  0  0  0
    2.6312    1.8712   15.3849 N   0  0  0  0  0  0
    4.1753    0.4277   16.4027 N   0  0  0  0  0  0
    5.3590    0.2354   16.9933 C   0  0  0  0  0  0
    6.3052    1.1312   17.2952 N   0  0  0  0  0  0
    5.9852    2.3689   16.8467 C   0  0  0  0  0  0
   12.2302   -0.0567   17.3749 P   0  0  1  0  0  0
   13.0139   -0.4818   16.1854 O   0  0  0  0  0  0
   12.2491   -1.0974   18.6190 O   0  0  0  0  0  0
   14.2082    0.5901   20.8659 H   0  0  0  0  0  0
    8.7286    0.0754   17.7321 H   0  0  0  0  0  0
    9.9161   -0.0205   18.9950 H   0  0  0  0  0  0
   10.5311    2.4848   18.3480 H   0  0  0  0  0  0
    7.8325    1.7145   19.4854 H   0  0  0  0  0  0
    8.9156    2.7533   21.3523 H   0  0  0  0  0  0
    7.1813    3.9364   19.4930 H   0  0  0  0  0  0
    9.2334    4.8790   20.3396 H   0  0  0  0  0  0
    8.4943    4.5897   17.0885 H   0  0  0  0  0  0
    6.3886    5.4354   16.0713 H   0  0  0  0  0  0
    2.3039    2.8088   15.1974 H   0  0  0  0  0  0
    1.9998    1.0866   15.3522 H   0  0  0  0  0  0
    5.5554   -0.7738   17.3250 H   0  0  0  0  0  0
   11.8652   -0.7499   19.4487 H   0  0  0  0  0  0
   11.3181    4.2271   22.1892 H   0  0  0  0  0  0
   10.9369    1.5424   20.6876 H   0  0  0  0  0  0
   11.6703    5.8376   20.8293 H   0  0  0  0  0  0
  1  2  1  0  0  0
  1  4  1  0  0  0
  1  5  1  0  0  0
  1  9  2  0  0  0
  2 29  1  0  0  0
  3  6  1  0  0  0
  3 48  1  0  0  0
  4 47  1  0  0  0
  5  6  1  0  0  0
  6  7  2  0  0  0
  6  8  1  0  0  0
  8 46  1  0  0  0
  9 32  1  0  0  0
 10 11  1  0  0  0
 10 29  1  0  0  0
 11 12  1  0  0  0
 11 33  1  0  0  0
 11 34  1  0  0  0
 12 13  1  0  0  0
 12 18  1  0  0  0
 12 35  1  0  0  0
 13 14  1  0  0  0
 13 15  1  0  0  0
 13 36  1  0  0  0
 14 37  1  0  0  0
 15 16  1  0  0  0
 15 17  1  0  0  0
 15 38  1  0  0  0
 16 39  1  0  0  0
 17 18  1  0  0  0
 17 19  1  0  0  0
 17 40  1  0  0  0
 19 20  1  0  0  0
 19 28  1  0  0  0
 20 21  2  0  0  0
 20 41  1  0  0  0
 21 22  1  0  0  0
 22 23  1  0  0  0
 22 28  2  0  0  0
 23 24  1  0  0  0
 23 25  2  0  0  0
 24 42  1  0  0  0
 24 43  1  0  0  0
 25 26  1  0  0  0
 26 27  2  0  0  0
 26 44  1  0  0  0
 27 28  1  0  0  0
 29 30  2  0  0  0
 29 31  1  0  0  0
 31 45  1  0  0  0
M  END
> <s_m_entry_id>
2421

> <s_m_entry_name>
dock_pv.160

> <s_m_Source_Path>
/home/csk/Desktop/cluster/DUD-E-result/akt1

> <s_m_Source_File>
dock_pv.maegz

> <i_m_Source_File_Index>
160

> <chembl_id>
CHEMBL2177838

> <chembl_pref_name>
ADENYLYL IMIDODIPHOSPHATE TETRALITHIUM SALT

> <i_lp_mmshare_version>
53161

> <i_f3d_flags>
0

> <r_lp_tautomer_probability>
0.999997216410988

> <s_lp_Force_Field>
OPLS_2005

> <r_lp_Energy>
29.89314

> <b_lp_Chiralities_Consistent>
1

> <s_lp_Variant>
CHEMBL4282_lig1224-1

> <s_i_glide_gridfile>
glide-grid_3cqw

> <i_i_glide_lignum>
1702

> <i_i_glide_rotatable_bonds>
14

> <r_i_docking_score>
-6.81922749482894

> <r_i_glide_ligand_efficiency>
-0.219975080478353

> <r_i_glide_ligand_efficiency_sa>
-0.691025461031946

> <r_i_glide_ligand_efficiency_ln>
-1.53794478430859

> <r_i_glide_gscore>
-6.81922749482894

> <r_i_glide_lipo>
-0.602539738459593

> <r_i_glide_hbond>
-0.125977133186927

> <r_i_glide_metal>
0

> <r_i_glide_rewards>
-1.16271577033866

> <r_i_glide_evdw>
-42.4860191345215

> <r_i_glide_ecoul>
-23.481840133667

> <r_i_glide_erotb>
0.718582123932362

> <r_i_glide_esite>
0

> <r_i_glide_emodel>
-95.0287613254015

> <r_i_glide_energy>
-65.9678592681885

> <r_i_glide_einternal>
9.02152347564697

> <i_i_glide_confnum>
16

> <i_i_glide_posenum>
50

> <r_i_glide_eff_state_penalty>
0

> <s_user_duplicate_titles>
CHEMBL4282_lig1224

> <s_m_subgroup_title>
dock_pv

> <s_m_subgroupid>
dock_pv

> <b_m_subgroup_collapsed>
1

$$$$
CHEMBL4282_lig2284
                    3D
 Schrodinger Suite 2021-1.
 43 45  0  0  1  0            999 V2000
    7.1574   -0.0936   17.7849 O   0  0  0  0  0  0
    6.2310    0.7863   17.2615 C   0  0  0  0  0  0
    6.5330    2.1620   17.1890 C   0  0  0  0  0  0
    7.7415    2.5981   17.7739 N   0  0  0  0  0  0
    8.4490    3.7397   17.5922 C   0  0  0  0  0  0
    8.1472    4.6072   16.7724 O   0  0  0  0  0  0
    9.7465    3.9452   18.4142 C   0  0  0  0  0  0
   10.3293    2.6850   19.0552 C   0  0  0  0  0  0
   10.6707    1.6686   18.3361 N   0  0  0  0  0  0
   11.1011    0.5205   18.9495 C   0  0  0  0  0  0
   11.2127    0.4419   20.2982 C   0  0  0  0  0  0
   10.8736    1.5705   21.1307 C   0  0  0  0  0  0
   10.9606    1.5517   22.3513 O   0  0  0  0  0  0
   10.4483    2.6369   20.4153 N   0  0  0  0  0  0
   11.3956   -0.5340   18.0944 N   0  0  0  0  0  0
   11.5361   -1.9167   18.5930 C   0  0  0  0  0  0
   11.3216   -2.9631   17.4782 C   0  0  0  0  0  0
   12.2038   -2.7157   16.3910 O   0  0  0  0  0  0
   11.9642   -1.4320   15.8316 C   0  0  0  0  0  0
   12.2146   -0.3286   16.8828 C   0  0  0  0  0  0
    5.6152    3.0370   16.5851 C   0  0  0  0  0  0
    4.4126    2.5544   16.0745 C   0  0  0  0  0  0
    4.0977    1.2027   16.1839 C   0  0  0  0  0  0
    4.9940    0.3151   16.7857 C   0  0  0  0  0  0
    4.5713   -1.0692   16.9850 C   0  0  0  0  0  0
    4.2310   -2.1624   17.1556 N   0  0  0  0  0  0
    7.0300   -0.3110   18.7216 H   0  0  0  0  0  0
    8.1764    1.9001   18.3600 H   0  0  0  0  0  0
   10.5032    4.3916   17.7687 H   0  0  0  0  0  0
    9.5342    4.6970   19.1756 H   0  0  0  0  0  0
   11.5482   -0.4521   20.7917 H   0  0  0  0  0  0
   10.2313    3.4674   20.9720 H   0  0  0  0  0  0
   12.4661   -2.0601   19.1455 H   0  0  0  0  0  0
   10.7576   -2.0966   19.3380 H   0  0  0  0  0  0
   10.2818   -2.9647   17.1458 H   0  0  0  0  0  0
   11.5079   -3.9633   17.8705 H   0  0  0  0  0  0
   10.9536   -1.3627   15.4250 H   0  0  0  0  0  0
   12.6319   -1.2905   14.9843 H   0  0  0  0  0  0
   11.9388    0.6157   16.4113 H   0  0  0  0  0  0
   13.2686   -0.1906   17.1265 H   0  0  0  0  0  0
    5.8031    4.0982   16.5287 H   0  0  0  0  0  0
    3.7065    3.2355   15.6219 H   0  0  0  0  0  0
    3.1381    0.8612   15.8183 H   0  0  0  0  0  0
  1  2  1  0  0  0
  1 27  1  0  0  0
  2  3  2  0  0  0
  2 24  1  0  0  0
  3  4  1  0  0  0
  3 21  1  0  0  0
  4  5  1  0  0  0
  4 28  1  0  0  0
  5  6  2  0  0  0
  5  7  1  0  0  0
  7  8  1  0  0  0
  7 29  1  0  0  0
  7 30  1  0  0  0
  8  9  2  0  0  0
  8 14  1  0  0  0
  9 10  1  0  0  0
 10 11  2  0  0  0
 10 15  1  0  0  0
 11 12  1  0  0  0
 11 31  1  0  0  0
 12 13  2  0  0  0
 12 14  1  0  0  0
 14 32  1  0  0  0
 15 16  1  0  0  0
 15 20  1  0  0  0
 16 17  1  0  0  0
 16 33  1  0  0  0
 16 34  1  0  0  0
 17 18  1  0  0  0
 17 35  1  0  0  0
 17 36  1  0  0  0
 18 19  1  0  0  0
 19 20  1  0  0  0
 19 37  1  0  0  0
 19 38  1  0  0  0
 20 39  1  0  0  0
 20 40  1  0  0  0
 21 22  2  0  0  0
 21 41  1  0  0  0
 22 23  1  0  0  0
 22 42  1  0  0  0
 23 24  2  0  0  0
 23 43  1  0  0  0
 24 25  1  0  0  0
 25 26  3  0  0  0
M  END
> <s_m_entry_id>
2422

> <s_m_entry_name>
dock_pv.161

> <s_m_Source_Path>
/home/csk/Desktop/cluster/DUD-E-result/akt1

> <s_m_Source_File>
dock_pv.maegz

> <i_m_Source_File_Index>
161

> <chembl_id>
CHEMBL3699809

> <chembl_pref_name>
None

> <i_lp_mmshare_version>
53161

> <i_f3d_flags>
0

> <r_lp_tautomer_probability>
0.994036381586735

> <s_lp_Force_Field>
OPLS_2005

> <r_lp_Energy>
34.030529

> <b_lp_Chiralities_Consistent>
1

> <s_lp_Variant>
CHEMBL4282_lig2284-1

> <s_i_glide_gridfile>
glide-grid_3cqw

> <i_i_glide_lignum>
3025

> <i_i_glide_rotatable_bonds>
6

> <r_i_docking_score>
-6.81839479611623

> <r_i_glide_ligand_efficiency>
-0.262245953696778

> <r_i_glide_ligand_efficiency_sa>
-0.776902605938706

> <r_i_glide_ligand_efficiency_ln>
-1.60127764488975

> <r_i_glide_gscore>
-6.81839479611623

> <r_i_glide_lipo>
-1.71180526545473

> <r_i_glide_hbond>
-0.395850689749341

> <r_i_glide_metal>
0

> <r_i_glide_rewards>
-1.51735610409456

> <r_i_glide_evdw>
-44.378791809082

> <r_i_glide_ecoul>
-10.5561017990112

> <r_i_glide_erotb>
0.757074857325951

> <r_i_glide_esite>
-0.14810273383777

> <r_i_glide_emodel>
-75.6514233143099

> <r_i_glide_energy>
-54.9348936080933

> <r_i_glide_einternal>
6.56654834747314

> <i_i_glide_confnum>
71

> <i_i_glide_posenum>
302

> <r_i_glide_eff_state_penalty>
0

> <s_user_duplicate_titles>
CHEMBL4282_lig2284

> <s_m_subgroup_title>
dock_pv

> <s_m_subgroupid>
dock_pv

> <b_m_subgroup_collapsed>
1

$$$$
CHEMBL4282_lig484
                    3D
 Schrodinger Suite 2021-1.
 30 33  0  0  1  0            999 V2000
    7.5514    2.0170   18.2335 C   0  0  0  0  0  0
    8.9718    1.3873   18.2888 C   0  0  0  0  0  0
    9.9667    2.4985   18.5184 C   0  0  0  0  0  0
   11.1617    2.4129   19.0835 N   0  0  0  0  0  0
   11.5978    3.6526   19.1199 C   0  0  0  0  0  0
   10.7061    4.5470   18.5850 N   0  0  0  0  0  0
    9.6463    3.7919   18.1710 C   0  0  0  0  0  0
    8.3429    4.2357   17.5399 C   0  0  0  0  0  0
    7.4012    3.1161   17.2452 N   0  0  0  0  0  0
    6.1725    3.3931   16.6189 C   0  0  0  0  0  0
    5.9839    4.6734   16.1850 N   0  0  0  0  0  0
    4.7559    5.0386   15.7514 C   0  0  0  0  0  0
    3.6593    4.2591   15.6240 N   0  0  0  0  0  0
    3.9044    2.9801   15.9141 C   0  0  0  0  0  0
    3.0064    1.9493   15.7878 N   0  0  0  0  0  0
    3.6019    0.7783   16.1850 C   0  0  0  0  0  0
    4.9137    1.0199   16.5385 C   0  0  0  0  0  0
    5.1342    2.4411   16.4095 C   0  0  0  0  0  0
    7.2694    2.3952   19.2187 H   0  0  0  0  0  0
    6.8681    1.2003   18.0599 H   0  0  0  0  0  0
    9.1721    0.8129   17.3852 H   0  0  0  0  0  0
    9.0061    0.6547   19.0967 H   0  0  0  0  0  0
   10.8062    5.5505   18.5137 H   0  0  0  0  0  0
   12.5283    4.0024   19.5426 H   0  0  0  0  0  0
    8.5603    4.7699   16.6140 H   0  0  0  0  0  0
    7.8403    4.9689   18.1730 H   0  0  0  0  0  0
    4.6315    6.0789   15.4891 H   0  0  0  0  0  0
    2.0448    2.0162   15.4828 H   0  0  0  0  0  0
    3.0345   -0.1416   16.1850 H   0  0  0  0  0  0
    5.5957    0.2463   16.8551 H   0  0  0  0  0  0
  1  2  1  0  0  0
  1  9  1  0  0  0
  1 19  1  0  0  0
  1 20  1  0  0  0
  2 21  1  0  0  0
  2 22  1  0  0  0
  2  3  1  0  0  0
  3  7  2  0  0  0
  3  4  1  0  0  0
  4  5  2  0  0  0
  5  6  1  0  0  0
  5 24  1  0  0  0
  6  7  1  0  0  0
  6 23  1  0  0  0
  7  8  1  0  0  0
  8  9  1  0  0  0
  8 25  1  0  0  0
  8 26  1  0  0  0
  9 10  1  0  0  0
 10 11  2  0  0  0
 10 18  1  0  0  0
 11 12  1  0  0  0
 12 13  2  0  0  0
 12 27  1  0  0  0
 13 14  1  0  0  0
 14 15  1  0  0  0
 14 18  2  0  0  0
 15 16  1  0  0  0
 15 28  1  0  0  0
 16 17  2  0  0  0
 16 29  1  0  0  0
 17 18  1  0  0  0
 17 30  1  0  0  0
M  END
> <s_m_entry_id>
2423

> <s_m_entry_name>
dock_pv.162

> <s_m_Source_Path>
/home/csk/Desktop/cluster/DUD-E-result/akt1

> <s_m_Source_File>
dock_pv.maegz

> <i_m_Source_File_Index>
162

> <chembl_id>
CHEMBL407891

> <chembl_pref_name>
None

> <i_lp_mmshare_version>
53161

> <i_f3d_flags>
0

> <r_lp_tautomer_probability>
0.499999184873128

> <s_lp_Force_Field>
OPLS_2005

> <r_lp_Energy>
14.65037

> <b_lp_Chiralities_Consistent>
1

> <s_lp_Variant>
CHEMBL4282_lig484-2

> <s_i_glide_gridfile>
glide-grid_3cqw

> <i_i_glide_lignum>
641

> <i_i_glide_rotatable_bonds>
1

> <r_i_docking_score>
-6.81548067348905

> <r_i_glide_ligand_efficiency>
-0.378637815193836

> <r_i_glide_ligand_efficiency_sa>
-0.992311794735255

> <r_i_glide_ligand_efficiency_ln>
-1.75188416368073

> <r_i_glide_gscore>
-6.81548067348905

> <r_i_glide_lipo>
-1.19751388713194

> <r_i_glide_hbond>
0

> <r_i_glide_metal>
0

> <r_i_glide_rewards>
-3.55631442704467

> <r_i_glide_evdw>
-35.0319519042969

> <r_i_glide_ecoul>
-3.20475649833679

> <r_i_glide_erotb>
0.299682752049268

> <r_i_glide_esite>
-0.12902404139634

> <r_i_glide_emodel>
-52.6496490447758

> <r_i_glide_energy>
-38.2367084026337

> <r_i_glide_einternal>
1.425452709198

> <i_i_glide_confnum>
2

> <i_i_glide_posenum>
163

> <r_i_glide_eff_state_penalty>
0

> <s_user_duplicate_titles>
CHEMBL4282_lig484,427581

> <s_m_subgroup_title>
dock_pv

> <s_m_subgroupid>
dock_pv

> <b_m_subgroup_collapsed>
1

$$$$
CHEMBL4282_lig2320
                    3D
 Schrodinger Suite 2021-1.
 48 51  0  0  1  0            999 V2000
   10.3261   -4.1703   17.2203 F   0  0  0  0  0  0
   10.7596   -3.1267   17.9288 C   0  0  0  0  0  0
   12.2277   -2.7472   17.6245 C   0  0  2  0  0  0
   12.7463   -1.5648   18.4806 C   0  0  0  0  0  0
   12.1531   -0.2749   18.0658 N   0  0  0  0  0  0
   12.3884   -0.0748   16.6188 C   0  0  0  0  0  0
   11.8723   -1.2737   15.7885 C   0  0  0  0  0  0
   12.4917   -2.4698   16.2462 O   0  0  0  0  0  0
   11.6688    0.6941   18.9476 C   0  0  0  0  0  0
   11.7017    0.5555   20.2981 C   0  0  0  0  0  0
   11.1285    1.5587   21.1615 C   0  0  0  0  0  0
   11.0493    1.4339   22.3762 O   0  0  0  0  0  0
   10.6496    2.6202   20.4779 N   0  0  0  0  0  0
   10.6263    2.7437   19.1187 C   0  0  0  0  0  0
   11.1421    1.8244   18.3719 N   0  0  0  0  0  0
    9.9574    3.9752   18.5277 C   0  0  0  0  0  0
    8.7309    3.7960   17.5868 C   0  0  0  0  0  0
    8.6393    4.6379   16.6948 O   0  0  0  0  0  0
    7.7628    2.8376   17.7205 N   0  0  0  0  0  0
    8.0122    1.5192   18.3123 C   0  0  0  0  0  0
    6.7742    0.6874   18.0508 C   0  0  0  0  0  0
    5.9764    1.5177   17.0994 C   0  0  0  0  0  0
    4.7556    1.2363   16.4848 C   0  0  0  0  0  0
    4.2081    0.0033   16.5849 F   0  0  0  0  0  0
    4.0707    2.2482   15.8101 C   0  0  0  0  0  0
    4.5924    3.5429   15.7845 C   0  0  0  0  0  0
    5.8300    3.8135   16.3684 C   0  0  0  0  0  0
    6.5550    2.7809   16.9846 C   0  0  0  0  0  0
   10.6403   -3.3983   18.9777 H   0  0  0  0  0  0
   10.0738   -2.2995   17.7493 H   0  0  0  0  0  0
   12.8198   -3.6307   17.8725 H   0  0  0  0  0  0
   13.8294   -1.4768   18.5547 H   0  0  0  0  0  0
   12.4725   -1.8044   19.5050 H   0  0  0  0  0  0
   11.8325    0.7942   16.2681 H   0  0  0  0  0  0
   13.4097    0.2414   16.4082 H   0  0  0  0  0  0
   10.7859   -1.3514   15.8221 H   0  0  0  0  0  0
   12.1178   -1.1304   14.7374 H   0  0  0  0  0  0
   12.1141   -0.3014   20.7945 H   0  0  0  0  0  0
   10.2696    3.3617   21.0615 H   0  0  0  0  0  0
   10.7199    4.5275   17.9792 H   0  0  0  0  0  0
    9.6419    4.6463   19.3305 H   0  0  0  0  0  0
    8.7931    1.0670   17.6995 H   0  0  0  0  0  0
    8.3393    1.4935   19.3529 H   0  0  0  0  0  0
    6.2303    0.6298   18.9852 H   0  0  0  0  0  0
    6.9990   -0.3352   17.7466 H   0  0  0  0  0  0
    3.1134    2.0383   15.3565 H   0  0  0  0  0  0
    4.0382    4.3381   15.3079 H   0  0  0  0  0  0
    6.2047    4.8259   16.3428 H   0  0  0  0  0  0
  1  2  1  0  0  0
  2  3  1  0  0  0
  2 29  1  0  0  0
  2 30  1  0  0  0
  3  4  1  0  0  0
  3  8  1  0  0  0
  3 31  1  0  0  0
  4  5  1  0  0  0
  4 32  1  0  0  0
  4 33  1  0  0  0
  5  6  1  0  0  0
  5  9  1  0  0  0
  6  7  1  0  0  0
  6 34  1  0  0  0
  6 35  1  0  0  0
  7  8  1  0  0  0
  7 36  1  0  0  0
  7 37  1  0  0  0
  9 10  2  0  0  0
  9 15  1  0  0  0
 10 11  1  0  0  0
 10 38  1  0  0  0
 11 12  2  0  0  0
 11 13  1  0  0  0
 13 14  1  0  0  0
 13 39  1  0  0  0
 14 15  2  0  0  0
 14 16  1  0  0  0
 16 17  1  0  0  0
 16 40  1  0  0  0
 16 41  1  0  0  0
 17 18  2  0  0  0
 17 19  1  0  0  0
 19 20  1  0  0  0
 19 28  1  0  0  0
 20 21  1  0  0  0
 20 42  1  0  0  0
 20 43  1  0  0  0
 21 22  1  0  0  0
 21 44  1  0  0  0
 21 45  1  0  0  0
 22 23  2  0  0  0
 22 28  1  0  0  0
 23 24  1  0  0  0
 23 25  1  0  0  0
 25 26  2  0  0  0
 25 46  1  0  0  0
 26 27  1  0  0  0
 26 47  1  0  0  0
 27 28  2  0  0  0
 27 48  1  0  0  0
M  END
> <s_m_entry_id>
2424

> <s_m_entry_name>
dock_pv.163

> <s_m_Source_Path>
/home/csk/Desktop/cluster/DUD-E-result/akt1

> <s_m_Source_File>
dock_pv.maegz

> <i_m_Source_File_Index>
163

> <chembl_id>
CHEMBL3984868

> <chembl_pref_name>
None

> <i_lp_mmshare_version>
53161

> <i_f3d_flags>
0

> <r_lp_tautomer_probability>
0.994036381586735

> <s_lp_Force_Field>
OPLS_2005

> <r_lp_Energy>
52.446884

> <b_lp_Chiralities_Consistent>
1

> <s_lp_Variant>
CHEMBL4282_lig2320-1

> <s_i_glide_gridfile>
glide-grid_3cqw

> <i_i_glide_lignum>
3080

> <i_i_glide_rotatable_bonds>
5

> <r_i_docking_score>
-6.81470005489588

> <r_i_glide_ligand_efficiency>
-0.24338214481771

> <r_i_glide_ligand_efficiency_sa>
-0.739051536084013

> <r_i_glide_ligand_efficiency_ln>
-1.57303286095796

> <r_i_glide_gscore>
-6.81470005489588

> <r_i_glide_lipo>
-2.06163607178903

> <r_i_glide_hbond>
-0.16

> <r_i_glide_metal>
0

> <r_i_glide_rewards>
-1.64777804215277

> <r_i_glide_evdw>
-43.3398323059082

> <r_i_glide_ecoul>
-7.55303955078125

> <r_i_glide_erotb>
0.511915125789154

> <r_i_glide_esite>
-0.15725351883063

> <r_i_glide_emodel>
-70.2291636938202

> <r_i_glide_energy>
-50.8928718566895

> <r_i_glide_einternal>
4.88401985168457

> <i_i_glide_confnum>
29

> <i_i_glide_posenum>
174

> <r_i_glide_eff_state_penalty>
0

> <s_user_duplicate_titles>
CHEMBL4282_lig2320

> <s_m_subgroup_title>
dock_pv

> <s_m_subgroupid>
dock_pv

> <b_m_subgroup_collapsed>
1

$$$$
CHEMBL4282_lig375
                    3D
 Schrodinger Suite 2021-1.
 52 55  0  0  1  0            999 V2000
    6.3004    3.0978   16.9851 C   0  0  0  0  0  0
    7.0690    2.0437   17.4985 C   0  0  0  0  0  0
    6.5826    0.7324   17.3770 C   0  0  0  0  0  0
    5.3549    0.4405   16.7847 C   0  0  0  0  0  0
    5.0507    2.8398   16.4109 C   0  0  0  0  0  0
    4.5709    1.5012   16.3198 C   0  0  0  0  0  0
    3.3173    1.4371   15.7847 N   0  0  0  0  0  0
    3.0303    2.7246   15.5395 N   0  0  0  0  0  0
    4.0198    3.6274   15.8422 C   0  0  0  0  0  0
    3.8995    5.1099   15.5962 C   0  0  0  0  0  0
    8.3899    2.3156   18.1512 C   0  0  0  0  0  0
    9.1352    3.4723   17.8738 C   0  0  0  0  0  0
   10.3282    3.7579   18.4486 N   0  0  0  0  0  0
   10.8541    2.8467   19.3017 C   0  0  0  0  0  0
   10.2228    1.6484   19.6285 C   0  0  0  0  0  0
    8.9555    1.4165   19.0703 C   0  0  0  0  0  0
   10.8915    0.7715   20.4596 O   0  0  0  0  0  0
   10.3998   -0.5597   20.5864 C   0  0  0  0  0  0
   11.5242   -1.4840   21.0993 C   0  0  2  0  0  0
   12.7353   -1.5989   20.1356 C   0  0  0  0  0  0
   10.9756   -2.8005   21.3861 N   0  0  0  0  0  0
   12.4109   -2.0009   18.6951 C   0  0  0  0  0  0
   12.0847   -3.3241   18.3831 C   0  0  0  0  0  0
   11.7832   -3.6870   17.0705 C   0  0  0  0  0  0
   11.8385   -2.7347   16.0480 C   0  0  0  0  0  0
   12.1630   -1.4101   16.3558 C   0  0  0  0  0  0
   12.4422   -1.0447   17.6741 C   0  0  0  0  0  0
   11.5390   -3.1402   14.6164 C   0  0  0  0  0  0
   11.4351   -4.9642   16.7931 F   0  0  0  0  0  0
    6.6320    4.1205   17.0733 H   0  0  0  0  0  0
    7.1607   -0.1017   17.7475 H   0  0  0  0  0  0
    5.0026   -0.5779   16.7232 H   0  0  0  0  0  0
    2.1334    2.9872   15.1458 H   0  0  0  0  0  0
    3.8312    5.6670   16.5307 H   0  0  0  0  0  0
    4.7723    5.4909   15.0671 H   0  0  0  0  0  0
    3.0312    5.3522   14.9889 H   0  0  0  0  0  0
    8.7911    4.2170   17.1741 H   0  0  0  0  0  0
   11.8137    3.0937   19.7307 H   0  0  0  0  0  0
    8.4106    0.5300   19.3531 H   0  0  0  0  0  0
   10.0408   -0.9495   19.6319 H   0  0  0  0  0  0
    9.5487   -0.5645   21.2673 H   0  0  0  0  0  0
   11.8925   -1.0785   22.0441 H   0  0  0  0  0  0
   13.4667   -2.3033   20.5386 H   0  0  0  0  0  0
   13.2576   -0.6400   20.1199 H   0  0  0  0  0  0
   10.2750   -2.7309   22.1110 H   0  0  0  0  0  0
   10.4658   -3.1193   20.5715 H   0  0  0  0  0  0
   12.0549   -4.0753   19.1594 H   0  0  0  0  0  0
   12.2011   -0.6604   15.5778 H   0  0  0  0  0  0
   12.6821   -0.0152   17.9003 H   0  0  0  0  0  0
   12.3407   -3.7632   14.2278 H   0  0  0  0  0  0
   10.6313   -3.7410   14.5823 H   0  0  0  0  0  0
   11.4084   -2.2804   13.9594 H   0  0  0  0  0  0
  1  2  2  0  0  0
  1 30  1  0  0  0
  1  5  1  0  0  0
  2  3  1  0  0  0
  2 11  1  0  0  0
  3  4  2  0  0  0
  3 31  1  0  0  0
  4  6  1  0  0  0
  4 32  1  0  0  0
  5  6  1  0  0  0
  5  9  2  0  0  0
  6  7  2  0  0  0
  7  8  1  0  0  0
  8 33  1  0  0  0
  8  9  1  0  0  0
  9 10  1  0  0  0
 10 34  1  0  0  0
 10 35  1  0  0  0
 10 36  1  0  0  0
 11 16  1  0  0  0
 11 12  2  0  0  0
 12 13  1  0  0  0
 12 37  1  0  0  0
 13 14  2  0  0  0
 14 15  1  0  0  0
 14 38  1  0  0  0
 15 16  2  0  0  0
 15 17  1  0  0  0
 16 39  1  0  0  0
 17 18  1  0  0  0
 18 19  1  0  0  0
 18 40  1  0  0  0
 18 41  1  0  0  0
 19 20  1  0  0  0
 19 21  1  0  0  0
 19 42  1  0  0  0
 20 22  1  0  0  0
 20 43  1  0  0  0
 20 44  1  0  0  0
 21 45  1  0  0  0
 21 46  1  0  0  0
 22 23  2  0  0  0
 22 27  1  0  0  0
 23 24  1  0  0  0
 23 47  1  0  0  0
 24 25  2  0  0  0
 24 29  1  0  0  0
 25 26  1  0  0  0
 25 28  1  0  0  0
 26 27  2  0  0  0
 26 48  1  0  0  0
 27 49  1  0  0  0
 28 50  1  0  0  0
 28 51  1  0  0  0
 28 52  1  0  0  0
M  END
> <s_m_entry_id>
2425

> <s_m_entry_name>
dock_pv.164

> <s_m_Source_Path>
/home/csk/Desktop/cluster/DUD-E-result/akt1

> <s_m_Source_File>
dock_pv.maegz

> <i_m_Source_File_Index>
164

> <chembl_id>
CHEMBL227050

> <chembl_pref_name>
None

> <i_lp_mmshare_version>
53161

> <i_f3d_flags>
0

> <r_lp_tautomer_probability>
0.0196078431372549

> <s_lp_Force_Field>
OPLS_2005

> <r_lp_Energy>
39.951195

> <b_lp_Chiralities_Consistent>
1

> <s_lp_Variant>
CHEMBL4282_lig375-2

> <s_i_glide_gridfile>
glide-grid_3cqw

> <i_i_glide_lignum>
486

> <i_i_glide_rotatable_bonds>
6

> <r_i_docking_score>
-6.81174625521836

> <r_i_glide_ligand_efficiency>
-0.234887801904082

> <r_i_glide_ligand_efficiency_sa>
-0.721649745128271

> <r_i_glide_ligand_efficiency_ln>
-1.55971716146361

> <r_i_glide_gscore>
-6.81174625521836

> <r_i_glide_lipo>
-2.82056063818452

> <r_i_glide_hbond>
-0.306718617177735

> <r_i_glide_metal>
0

> <r_i_glide_rewards>
-1.82165494756752

> <r_i_glide_evdw>
-47.3427734375

> <r_i_glide_ecoul>
-1.75533926486969

> <r_i_glide_erotb>
0.76762750931686

> <r_i_glide_esite>
0

> <r_i_glide_emodel>
-67.1118527374341

> <r_i_glide_energy>
-49.0981127023697

> <r_i_glide_einternal>
5.1302056312561

> <i_i_glide_confnum>
5

> <i_i_glide_posenum>
112

> <r_i_glide_eff_state_penalty>
0

> <s_user_duplicate_titles>
CHEMBL4282_lig375,381979

> <s_m_subgroup_title>
dock_pv

> <s_m_subgroupid>
dock_pv

> <b_m_subgroup_collapsed>
1

$$$$
CHEMBL4282_lig2190
                    3D
 Schrodinger Suite 2021-1.
 48 50  0  0  1  0            999 V2000
    2.2669    3.8068   16.7085 C   0  0  0  0  0  0
    3.0311    4.1325   15.5497 O   0  0  0  0  0  0
    4.4378    4.2576   15.7246 C   0  0  0  0  0  0
    5.1435    3.0172   16.2779 C   0  0  0  0  0  0
    6.3311    3.2152   16.9852 C   0  0  0  0  0  0
    7.0379    2.1364   17.5305 C   0  0  0  0  0  0
    8.2390    2.2951   18.2407 N   0  0  0  0  0  0
    9.2076    3.2153   18.0040 C   0  0  0  0  0  0
    9.1541    4.0403   17.0909 O   0  0  0  0  0  0
   10.4691    3.2033   18.8869 C   0  0  0  0  0  0
   10.9565    1.8035   19.2402 C   0  0  0  0  0  0
   11.4774    1.0287   18.3496 N   0  0  0  0  0  0
   11.8416   -0.2518   18.6809 C   0  0  0  0  0  0
   11.6805   -0.7077   19.9500 C   0  0  0  0  0  0
   11.1462    0.1491   20.9825 C   0  0  0  0  0  0
   11.0310   -0.1664   22.1603 O   0  0  0  0  0  0
   10.7973    1.3684   20.5225 N   0  0  0  0  0  0
   12.3431   -1.0309   17.6327 N   0  0  0  0  0  0
   12.7954   -2.4328   17.7253 C   0  0  0  0  0  0
   11.8614   -3.3664   16.9177 C   0  0  0  0  0  0
   11.8570   -2.9719   15.5475 O   0  0  0  0  0  0
   11.4213   -1.6228   15.3967 C   0  0  0  0  0  0
   12.3441   -0.6747   16.1987 C   0  0  0  0  0  0
    6.5302    0.8440   17.3859 C   0  0  0  0  0  0
    5.3635    0.6317   16.6524 C   0  0  0  0  0  0
    4.6746    1.7079   16.0933 C   0  0  0  0  0  0
    3.5499    1.4588   15.3839 F   0  0  0  0  0  0
    1.2618    4.2062   16.5850 H   0  0  0  0  0  0
    2.6882    4.2158   17.6280 H   0  0  0  0  0  0
    2.1598    2.7328   16.8392 H   0  0  0  0  0  0
    4.8885    4.5020   14.7650 H   0  0  0  0  0  0
    4.6287    5.1187   16.3667 H   0  0  0  0  0  0
    6.6946    4.2236   17.1266 H   0  0  0  0  0  0
    8.4186    1.5933   18.9431 H   0  0  0  0  0  0
   11.2676    3.7375   18.3734 H   0  0  0  0  0  0
   10.2543    3.7843   19.7846 H   0  0  0  0  0  0
   11.9257   -1.7071   20.2528 H   0  0  0  0  0  0
   10.4395    1.9971   21.2253 H   0  0  0  0  0  0
   13.8649   -2.5461   17.5574 H   0  0  0  0  0  0
   12.7300   -2.7772   18.7538 H   0  0  0  0  0  0
   10.8515   -3.3657   17.3321 H   0  0  0  0  0  0
   12.2147   -4.3962   16.9923 H   0  0  0  0  0  0
   10.3852   -1.5084   15.7153 H   0  0  0  0  0  0
   11.4326   -1.3640   14.3384 H   0  0  0  0  0  0
   11.9144    0.3188   16.0725 H   0  0  0  0  0  0
   13.3423   -0.4972   15.8000 H   0  0  0  0  0  0
    7.0473    0.0009   17.8273 H   0  0  0  0  0  0
    4.9814   -0.3690   16.5291 H   0  0  0  0  0  0
  1  2  1  0  0  0
  1 28  1  0  0  0
  1 29  1  0  0  0
  1 30  1  0  0  0
  2  3  1  0  0  0
  3  4  1  0  0  0
  3 31  1  0  0  0
  3 32  1  0  0  0
  4  5  2  0  0  0
  4 26  1  0  0  0
  5  6  1  0  0  0
  5 33  1  0  0  0
  6  7  1  0  0  0
  6 24  2  0  0  0
  7  8  1  0  0  0
  7 34  1  0  0  0
  8  9  2  0  0  0
  8 10  1  0  0  0
 10 11  1  0  0  0
 10 35  1  0  0  0
 10 36  1  0  0  0
 11 12  2  0  0  0
 11 17  1  0  0  0
 12 13  1  0  0  0
 13 14  2  0  0  0
 13 18  1  0  0  0
 14 15  1  0  0  0
 14 37  1  0  0  0
 15 16  2  0  0  0
 15 17  1  0  0  0
 17 38  1  0  0  0
 18 19  1  0  0  0
 18 23  1  0  0  0
 19 20  1  0  0  0
 19 39  1  0  0  0
 19 40  1  0  0  0
 20 21  1  0  0  0
 20 41  1  0  0  0
 20 42  1  0  0  0
 21 22  1  0  0  0
 22 23  1  0  0  0
 22 43  1  0  0  0
 22 44  1  0  0  0
 23 45  1  0  0  0
 23 46  1  0  0  0
 24 25  1  0  0  0
 24 47  1  0  0  0
 25 26  2  0  0  0
 25 48  1  0  0  0
 26 27  1  0  0  0
M  END
> <s_m_entry_id>
2426

> <s_m_entry_name>
dock_pv.165

> <s_m_Source_Path>
/home/csk/Desktop/cluster/DUD-E-result/akt1

> <s_m_Source_File>
dock_pv.maegz

> <i_m_Source_File_Index>
165

> <chembl_id>
CHEMBL3696286

> <chembl_pref_name>
None

> <i_lp_mmshare_version>
53161

> <i_f3d_flags>
0

> <r_lp_tautomer_probability>
0.994036381586735

> <s_lp_Force_Field>
OPLS_2005

> <r_lp_Energy>
35.605851

> <b_lp_Chiralities_Consistent>
1

> <s_lp_Variant>
CHEMBL4282_lig2190-1

> <s_i_glide_gridfile>
glide-grid_3cqw

> <i_i_glide_lignum>
2921

> <i_i_glide_rotatable_bonds>
7

> <r_i_docking_score>
-6.80866412227887

> <r_i_glide_ligand_efficiency>
-0.252172745269588

> <r_i_glide_ligand_efficiency_sa>
-0.756518234977644

> <r_i_glide_ligand_efficiency_ln>
-1.58494475806568

> <r_i_glide_gscore>
-6.80866412227887

> <r_i_glide_lipo>
-2.40182797988835

> <r_i_glide_hbond>
-0.511342332126325

> <r_i_glide_metal>
0

> <r_i_glide_rewards>
-1.43053874053265

> <r_i_glide_evdw>
-45.3258857727051

> <r_i_glide_ecoul>
-6.42119598388672

> <r_i_glide_erotb>
0.819847072682915

> <r_i_glide_esite>
-0.0553284561962024

> <r_i_glide_emodel>
-71.2285564910631

> <r_i_glide_energy>
-51.7470817565918

> <r_i_glide_einternal>
7.25549507141113

> <i_i_glide_confnum>
2

> <i_i_glide_posenum>
362

> <r_i_glide_eff_state_penalty>
0

> <s_user_duplicate_titles>
CHEMBL4282_lig2190

> <s_m_subgroup_title>
dock_pv

> <s_m_subgroupid>
dock_pv

> <b_m_subgroup_collapsed>
1

$$$$
CHEMBL4282_lig1786
                    3D
 Schrodinger Suite 2021-1.
 45 48  0  0  1  0            999 V2000
    4.2644    0.2530   16.5842 F   0  0  0  0  0  0
    4.8400    1.4738   16.4958 C   0  0  0  0  0  0
    4.1891    2.4972   15.8102 C   0  0  0  0  0  0
    4.7477    3.7754   15.7793 C   0  0  0  0  0  0
    5.9820    4.0184   16.3807 C   0  0  0  0  0  0
    6.6661    2.9807   17.0348 C   0  0  0  0  0  0
    7.8612    3.0099   17.8008 N   0  0  0  0  0  0
    8.0691    1.6702   18.3698 C   0  0  0  0  0  0
    6.8223    0.8564   18.0703 C   0  0  0  0  0  0
    6.0576    1.7269   17.1291 C   0  0  0  0  0  0
    8.8019    4.0126   17.7981 C   0  0  0  0  0  0
    8.6309    5.0282   17.1250 O   0  0  0  0  0  0
   10.1360    4.0474   18.5979 C   0  0  0  0  0  0
   10.7116    2.7737   19.1879 C   0  0  0  0  0  0
   11.1981    1.8472   18.4332 N   0  0  0  0  0  0
   11.6573    0.6811   18.9916 C   0  0  0  0  0  0
   11.6625    0.5148   20.3393 C   0  0  0  0  0  0
   11.1265    1.5304   21.2140 C   0  0  0  0  0  0
   11.0356    1.4026   22.4273 O   0  0  0  0  0  0
   10.6976    2.6213   20.5441 N   0  0  0  0  0  0
   12.1023   -0.2889   18.0886 N   0  0  0  0  0  0
   12.4093   -0.0298   16.6650 C   0  0  0  0  0  0
   11.9852   -1.2172   15.7730 C   0  0  0  0  0  0
   12.6647   -2.3927   16.1907 O   0  0  0  0  0  0
   12.3068   -2.7281   17.5259 C   0  0  0  0  0  0
   12.6870   -1.5847   18.4949 C   0  0  0  0  0  0
    3.2355    2.3080   15.3400 H   0  0  0  0  0  0
    4.2266    4.5771   15.2795 H   0  0  0  0  0  0
    6.3691    5.0251   16.3459 H   0  0  0  0  0  0
    8.8611    1.2179   17.7743 H   0  0  0  0  0  0
    8.3509    1.6289   19.4226 H   0  0  0  0  0  0
    6.2435    0.7368   18.9854 H   0  0  0  0  0  0
    7.0525   -0.1480   17.7148 H   0  0  0  0  0  0
   10.8930    4.4816   17.9464 H   0  0  0  0  0  0
   10.0014    4.7917   19.3841 H   0  0  0  0  0  0
   12.0234   -0.3764   20.8155 H   0  0  0  0  0  0
   10.3356    3.3669   21.1348 H   0  0  0  0  0  0
   11.8305    0.8241   16.3156 H   0  0  0  0  0  0
   13.4289    0.3238   16.5165 H   0  0  0  0  0  0
   12.2290   -1.0152   14.7324 H   0  0  0  0  0  0
   10.9030   -1.3610   15.7955 H   0  0  0  0  0  0
   12.8211   -3.6442   17.8155 H   0  0  0  0  0  0
   11.2404   -2.9554   17.5998 H   0  0  0  0  0  0
   13.7537   -1.5001   18.7064 H   0  0  0  0  0  0
   12.2801   -1.8891   19.4582 H   0  0  0  0  0  0
  1  2  1  0  0  0
  2  3  2  0  0  0
  2 10  1  0  0  0
  3  4  1  0  0  0
  3 27  1  0  0  0
  4  5  2  0  0  0
  4 28  1  0  0  0
  5  6  1  0  0  0
  5 29  1  0  0  0
  6  7  1  0  0  0
  6 10  2  0  0  0
  7  8  1  0  0  0
  7 11  1  0  0  0
  8  9  1  0  0  0
  8 30  1  0  0  0
  8 31  1  0  0  0
  9 10  1  0  0  0
  9 32  1  0  0  0
  9 33  1  0  0  0
 11 12  2  0  0  0
 11 13  1  0  0  0
 13 14  1  0  0  0
 13 34  1  0  0  0
 13 35  1  0  0  0
 14 15  2  0  0  0
 14 20  1  0  0  0
 15 16  1  0  0  0
 16 17  2  0  0  0
 16 21  1  0  0  0
 17 18  1  0  0  0
 17 36  1  0  0  0
 18 19  2  0  0  0
 18 20  1  0  0  0
 20 37  1  0  0  0
 21 22  1  0  0  0
 21 26  1  0  0  0
 22 23  1  0  0  0
 22 38  1  0  0  0
 22 39  1  0  0  0
 23 24  1  0  0  0
 23 40  1  0  0  0
 23 41  1  0  0  0
 24 25  1  0  0  0
 25 26  1  0  0  0
 25 42  1  0  0  0
 25 43  1  0  0  0
 26 44  1  0  0  0
 26 45  1  0  0  0
M  END
> <s_m_entry_id>
2427

> <s_m_entry_name>
dock_pv.166

> <s_m_Source_Path>
/home/csk/Desktop/cluster/DUD-E-result/akt1

> <s_m_Source_File>
dock_pv.maegz

> <i_m_Source_File_Index>
166

> <chembl_id>
CHEMBL3112848

> <chembl_pref_name>
None

> <i_lp_mmshare_version>
53161

> <i_f3d_flags>
0

> <r_lp_tautomer_probability>
0.994036381586735

> <s_lp_Force_Field>
OPLS_2005

> <r_lp_Energy>
53.066122

> <b_lp_Chiralities_Consistent>
1

> <s_lp_Variant>
CHEMBL4282_lig1786-1

> <s_i_glide_gridfile>
glide-grid_3cqw

> <i_i_glide_lignum>
2412

> <i_i_glide_rotatable_bonds>
4

> <r_i_docking_score>
-6.80540073071062

> <r_i_glide_ligand_efficiency>
-0.261746181950408

> <r_i_glide_ligand_efficiency_sa>
-0.775422034106592

> <r_i_glide_ligand_efficiency_ln>
-1.59822603126625

> <r_i_glide_gscore>
-6.80540073071062

> <r_i_glide_lipo>
-2.05626950213606

> <r_i_glide_hbond>
-0.16

> <r_i_glide_metal>
0

> <r_i_glide_rewards>
-1.97747129790465

> <r_i_glide_evdw>
-40.7375411987305

> <r_i_glide_ecoul>
-6.81839609146118

> <r_i_glide_erotb>
0.596602429051153

> <r_i_glide_esite>
-0.148625886065364

> <r_i_glide_emodel>
-66.5687106199581

> <r_i_glide_energy>
-47.5559372901917

> <r_i_glide_einternal>
4.53821229934692

> <i_i_glide_confnum>
7

> <i_i_glide_posenum>
322

> <r_i_glide_eff_state_penalty>
0

> <s_user_duplicate_titles>
CHEMBL4282_lig1786

> <s_m_subgroup_title>
dock_pv

> <s_m_subgroupid>
dock_pv

> <b_m_subgroup_collapsed>
1

$$$$
CHEMBL4282_lig380
                    3D
 Schrodinger Suite 2021-1.
 49 52  0  0  1  0            999 V2000
    6.2549    3.1604   16.9850 C   0  0  0  0  0  0
    7.0341    2.1157   17.4986 C   0  0  0  0  0  0
    6.5607    0.7993   17.3756 C   0  0  0  0  0  0
    5.3398    0.4954   16.7698 C   0  0  0  0  0  0
    5.0220    2.8896   16.3890 C   0  0  0  0  0  0
    4.5520    1.5500   16.2926 C   0  0  0  0  0  0
    3.3030    1.4804   15.7456 N   0  0  0  0  0  0
    3.0159    2.7685   15.4940 N   0  0  0  0  0  0
    4.0027    3.6733   15.8040 C   0  0  0  0  0  0
    3.8938    5.1599   15.5854 C   0  0  0  0  0  0
    8.3503    2.4139   18.1528 C   0  0  0  0  0  0
    9.0479    3.6099   17.9105 C   0  0  0  0  0  0
   10.2333    3.9265   18.4885 N   0  0  0  0  0  0
   10.7930    3.0157   19.3182 C   0  0  0  0  0  0
   10.2159    1.7771   19.5962 C   0  0  0  0  0  0
    8.9580    1.5084   19.0357 C   0  0  0  0  0  0
   10.9406    0.8914   20.3656 O   0  0  0  0  0  0
   10.5407   -0.4761   20.3852 C   0  0  0  0  0  0
   11.7425   -1.3465   20.7967 C   0  0  2  0  0  0
   12.8849   -1.4095   19.7403 C   0  0  0  0  0  0
   11.2758   -2.6776   21.1549 N   0  0  0  0  0  0
   12.4987   -1.9090   18.3361 C   0  0  0  0  0  0
   12.3522   -1.0308   17.2425 C   0  0  0  0  0  0
   11.9863   -1.5236   15.9889 C   0  0  0  0  0  0
   11.7815   -2.8845   15.8004 C   0  0  0  0  0  0
   11.9487   -3.7635   16.8633 C   0  0  0  0  0  0
   12.3117   -3.2821   18.1181 C   0  0  0  0  0  0
   12.6702    0.8421   17.3837 Br  0  0  0  0  0  0
   11.4301   -3.3559   14.5855 F   0  0  0  0  0  0
   12.4960   -4.1640   19.1220 F   0  0  0  0  0  0
    6.5698    4.1869   17.0760 H   0  0  0  0  0  0
    7.1428   -0.0302   17.7488 H   0  0  0  0  0  0
    4.9982   -0.5246   16.7091 H   0  0  0  0  0  0
    2.1214    3.0349   15.0979 H   0  0  0  0  0  0
    4.7715    5.5420   15.0689 H   0  0  0  0  0  0
    3.0311    5.4286   14.9869 H   0  0  0  0  0  0
    3.8307    5.6992   16.5319 H   0  0  0  0  0  0
    8.6786    4.3660   17.2366 H   0  0  0  0  0  0
   11.7466    3.2844   19.7487 H   0  0  0  0  0  0
    8.4596    0.5873   19.2860 H   0  0  0  0  0  0
   10.1769   -0.8209   19.4153 H   0  0  0  0  0  0
    9.7121   -0.5838   21.0867 H   0  0  0  0  0  0
   12.1621   -0.9166   21.7084 H   0  0  0  0  0  0
   13.6871   -2.0462   20.1203 H   0  0  0  0  0  0
   13.3401   -0.4226   19.6720 H   0  0  0  0  0  0
   10.4794   -2.6155   21.7774 H   0  0  0  0  0  0
   10.9313   -3.1444   20.3240 H   0  0  0  0  0  0
   11.8693   -0.8477   15.1569 H   0  0  0  0  0  0
   11.7994   -4.8217   16.7138 H   0  0  0  0  0  0
  1  2  2  0  0  0
  1 31  1  0  0  0
  1  5  1  0  0  0
  2  3  1  0  0  0
  2 11  1  0  0  0
  3  4  2  0  0  0
  3 32  1  0  0  0
  4  6  1  0  0  0
  4 33  1  0  0  0
  5  6  1  0  0  0
  5  9  2  0  0  0
  6  7  2  0  0  0
  7  8  1  0  0  0
  8 34  1  0  0  0
  8  9  1  0  0  0
  9 10  1  0  0  0
 10 35  1  0  0  0
 10 36  1  0  0  0
 10 37  1  0  0  0
 11 16  1  0  0  0
 11 12  2  0  0  0
 12 13  1  0  0  0
 12 38  1  0  0  0
 13 14  2  0  0  0
 14 15  1  0  0  0
 14 39  1  0  0  0
 15 16  2  0  0  0
 15 17  1  0  0  0
 16 40  1  0  0  0
 17 18  1  0  0  0
 18 19  1  0  0  0
 18 41  1  0  0  0
 18 42  1  0  0  0
 19 20  1  0  0  0
 19 21  1  0  0  0
 19 43  1  0  0  0
 20 22  1  0  0  0
 20 44  1  0  0  0
 20 45  1  0  0  0
 21 46  1  0  0  0
 21 47  1  0  0  0
 22 23  2  0  0  0
 22 27  1  0  0  0
 23 24  1  0  0  0
 23 28  1  0  0  0
 24 25  2  0  0  0
 24 48  1  0  0  0
 25 26  1  0  0  0
 25 29  1  0  0  0
 26 27  2  0  0  0
 26 49  1  0  0  0
 27 30  1  0  0  0
M  END
> <s_m_entry_id>
2428

> <s_m_entry_name>
dock_pv.167

> <s_m_Source_Path>
/home/csk/Desktop/cluster/DUD-E-result/akt1

> <s_m_Source_File>
dock_pv.maegz

> <i_m_Source_File_Index>
167

> <chembl_id>
CHEMBL376792

> <chembl_pref_name>
None

> <i_lp_mmshare_version>
53161

> <i_f3d_flags>
0

> <r_lp_tautomer_probability>
0.0196078431372549

> <s_lp_Force_Field>
OPLS_2005

> <r_lp_Energy>
38.899102

> <b_lp_Chiralities_Consistent>
1

> <s_lp_Variant>
CHEMBL4282_lig380-2

> <s_i_glide_gridfile>
glide-grid_3cqw

> <i_i_glide_lignum>
496

> <i_i_glide_rotatable_bonds>
6

> <r_i_docking_score>
-6.80018650200529

> <r_i_glide_ligand_efficiency>
-0.226672883400176

> <r_i_glide_ligand_efficiency_sa>
-0.7043253507208

> <r_i_glide_ligand_efficiency_ln>
-1.545076467222

> <r_i_glide_gscore>
-6.80018650200529

> <r_i_glide_lipo>
-2.92548872115215

> <r_i_glide_hbond>
-0.32

> <r_i_glide_metal>
0

> <r_i_glide_rewards>
-1.40567074768766

> <r_i_glide_evdw>
-48.984935760498

> <r_i_glide_ecoul>
-0.978695392608643

> <r_i_glide_erotb>
0.45143520106947

> <r_i_glide_esite>
-0.00441113731875194

> <r_i_glide_emodel>
-69.8783844139023

> <r_i_glide_energy>
-49.9636311531067

> <r_i_glide_einternal>
2.08591938018799

> <i_i_glide_confnum>
31

> <i_i_glide_posenum>
167

> <r_i_glide_eff_state_penalty>
0

> <s_user_duplicate_titles>
CHEMBL4282_lig380,381974

> <s_m_subgroup_title>
dock_pv

> <s_m_subgroupid>
dock_pv

> <b_m_subgroup_collapsed>
1

$$$$
651158
                    3D
 Schrodinger Suite 2021-1.
 44 47  0  0  1  0            999 V2000
    5.3304    0.1151   16.4883 C   0  0  0  0  0  0
    4.5010    1.3419   16.1934 C   0  0  0  0  0  0
    3.1919    1.2727   15.7854 C   0  0  0  0  0  0
    2.6342    2.5060   15.5988 N   0  0  0  0  0  0
    3.6140    3.4406   15.8009 C   0  0  0  0  0  0
    4.8118    2.7636   16.2094 C   0  0  0  0  0  0
    5.9057    3.6356   16.4821 C   0  0  0  0  0  0
    5.8118    4.9572   16.1813 N   0  0  0  0  0  0
    4.6142    5.4379   15.7841 C   0  0  0  0  0  0
    3.4629    4.7518   15.6176 N   0  0  0  0  0  0
    7.1489    3.2407   17.0085 N   0  0  0  0  0  0
    8.3129    4.1008   17.2317 C   0  0  0  0  0  0
    9.4909    3.1929   17.5580 C   0  0  0  0  0  0
    8.8461    2.0579   18.3298 C   0  0  1  0  0  0
    7.4483    2.0017   17.7176 C   0  0  0  0  0  0
    9.5399    0.7496   18.2681 N   0  0  1  0  0  0
   11.2473    0.5361   18.6289 S   0  0  0  0  0  0
   11.6074   -0.8220   18.2061 O   0  0  0  0  0  0
   11.9951    1.6925   18.1226 O   0  0  0  0  0  0
   11.3275    0.5792   20.4141 C   0  0  0  0  0  0
   11.3352    1.8078   21.0794 C   0  0  0  0  0  0
   11.3960    1.8360   22.4695 C   0  0  0  0  0  0
   11.4444    0.6387   23.1846 C   0  0  0  0  0  0
   11.4316   -0.5873   22.5234 C   0  0  0  0  0  0
   11.3671   -0.6186   21.1337 C   0  0  0  0  0  0
    1.6806    2.6663   15.2875 H   0  0  0  0  0  0
    8.8133    2.2855   19.3977 H   0  0  0  0  0  0
    5.6786    0.0741   17.5181 H   0  0  0  0  0  0
    6.1803    0.0263   15.8127 H   0  0  0  0  0  0
    4.7508   -0.7975   16.3526 H   0  0  0  0  0  0
    2.6306    0.3746   15.6012 H   0  0  0  0  0  0
    4.5669    6.5024   15.6069 H   0  0  0  0  0  0
    8.5111    4.6640   16.3186 H   0  0  0  0  0  0
    8.1124    4.8368   18.0128 H   0  0  0  0  0  0
    9.9628    2.8509   16.6358 H   0  0  0  0  0  0
   10.2436    3.7201   18.1452 H   0  0  0  0  0  0
    6.7183    1.8294   18.5108 H   0  0  0  0  0  0
    7.4396    1.2018   16.9891 H   0  0  0  0  0  0
    8.9519   -0.0767   18.4108 H   0  0  0  0  0  0
   11.2903    2.7383   20.5295 H   0  0  0  0  0  0
   11.3937    2.7880   22.9840 H   0  0  0  0  0  0
   11.4855    0.6615   24.2636 H   0  0  0  0  0  0
   11.4611   -1.5099   23.0843 H   0  0  0  0  0  0
   11.3425   -1.5711   20.6224 H   0  0  0  0  0  0
  1  2  1  0  0  0
  1 28  1  0  0  0
  1 29  1  0  0  0
  1 30  1  0  0  0
  2  6  1  0  0  0
  2  3  2  0  0  0
  3  4  1  0  0  0
  3 31  1  0  0  0
  4 26  1  0  0  0
  4  5  1  0  0  0
  5 10  1  0  0  0
  5  6  2  0  0  0
  6  7  1  0  0  0
  7  8  2  0  0  0
  7 11  1  0  0  0
  8  9  1  0  0  0
  9 10  2  0  0  0
  9 32  1  0  0  0
 11 15  1  0  0  0
 11 12  1  0  0  0
 12 13  1  0  0  0
 12 33  1  0  0  0
 12 34  1  0  0  0
 13 14  1  0  0  0
 13 35  1  0  0  0
 13 36  1  0  0  0
 14 27  1  0  0  0
 14 15  1  0  0  0
 14 16  1  0  0  0
 15 37  1  0  0  0
 15 38  1  0  0  0
 16 17  1  0  0  0
 16 39  1  0  0  0
 17 18  2  0  0  0
 17 19  2  0  0  0
 17 20  1  0  0  0
 20 25  1  0  0  0
 20 21  2  0  0  0
 21 22  1  0  0  0
 21 40  1  0  0  0
 22 23  2  0  0  0
 22 41  1  0  0  0
 23 24  1  0  0  0
 23 42  1  0  0  0
 24 25  2  0  0  0
 24 43  1  0  0  0
 25 44  1  0  0  0
M  END
> <s_m_entry_id>
4243

> <s_m_entry_name>
ligand_docking-pose.5

> <s_m_Source_Path>
/home/csk/Desktop/cluster/DUD-E-result/akt1

> <s_m_Source_File>
ligand_docking-pose.sdf

> <i_m_Source_File_Index>
5

> <i_lp_mmshare_version>
53161

> <r_lp_tautomer_probability>
0.999998369746258

> <s_lp_Force_Field>
OPLS_2005

> <r_lp_Energy>
27.182286

> <b_lp_Chiralities_Consistent>
1

> <s_lp_Variant>
651158-1

> <s_i_glide_gridfile>
glide-grid_3cqw

> <i_i_glide_lignum>
654

> <i_i_glide_rotatable_bonds>
4

> <r_i_docking_score>
-8.12930010432508

> <r_i_glide_ligand_efficiency>
-0.325172004173003

> <r_i_glide_ligand_efficiency_sa>
-0.950808707151912

> <r_i_glide_ligand_efficiency_ln>
-1.92688774019061

> <r_i_glide_gscore>
-8.12930010432508

> <r_i_glide_lipo>
-1.70940798972262

> <r_i_glide_hbond>
-0.608

> <r_i_glide_metal>
0

> <r_i_glide_rewards>
-2.85487984889489

> <r_i_glide_evdw>
-40.5109367370605

> <r_i_glide_ecoul>
-8.56398963928223

> <r_i_glide_erotb>
0.41957168926765

> <r_i_glide_esite>
-0.066438672229868

> <r_i_glide_emodel>
-69.9208166129646

> <r_i_glide_energy>
-49.0749263763428

> <r_i_glide_einternal>
4.16799688339233

> <i_i_glide_confnum>
6

> <i_i_glide_posenum>
373

> <r_i_glide_eff_state_penalty>
0

> <i_f3d_flags>
0

> <s_user_duplicate_titles>
651158

> <s_m_subgroup_title>
dock_pv

> <s_m_subgroupid>
dock_pv1

> <b_m_subgroup_collapsed>
0

$$$$
651113
                    3D
 Schrodinger Suite 2021-1.
 28 30  0  0  1  0            999 V2000
    3.6254    0.8308   16.1941 C   0  0  0  0  0  0
    4.9432    1.0583   16.5298 C   0  0  0  0  0  0
    5.1659    2.4817   16.4226 C   0  0  0  0  0  0
    3.9260    3.0384   15.9797 C   0  0  0  0  0  0
    3.0166    2.0161   15.8633 N   0  0  0  0  0  0
    3.6879    4.3219   15.7020 N   0  0  0  0  0  0
    4.7999    5.0873   15.7852 C   0  0  0  0  0  0
    6.0377    4.7085   16.1838 N   0  0  0  0  0  0
    6.2173    3.4202   16.5849 C   0  0  0  0  0  0
    7.4913    3.0612   17.0639 N   0  0  0  0  0  0
    7.6392    2.3134   18.3150 C   0  0  0  0  0  0
    8.2325    3.2598   19.3543 C   0  0  0  0  0  0
    9.1657    4.1159   18.5213 C   0  0  1  0  0  0
    8.6680    3.9467   17.0815 C   0  0  0  0  0  0
    9.2188    5.4875   18.9850 N   0  0  0  0  0  0
    6.1289   -0.1108   16.9572 Cl  0  0  0  0  0  0
    2.0471    2.0939   15.5868 H   0  0  0  0  0  0
   10.1715    3.7041   18.6149 H   0  0  0  0  0  0
    3.0661   -0.0929   16.1850 H   0  0  0  0  0  0
    4.6719    6.1318   15.5415 H   0  0  0  0  0  0
    6.6804    1.9173   18.6536 H   0  0  0  0  0  0
    8.2752    1.4409   18.1544 H   0  0  0  0  0  0
    7.4306    3.8251   19.8314 H   0  0  0  0  0  0
    8.7616    2.6840   20.1148 H   0  0  0  0  0  0
    9.4672    3.4677   16.5155 H   0  0  0  0  0  0
    8.4705    4.9073   16.6041 H   0  0  0  0  0  0
    9.4384    5.4591   19.9832 H   0  0  0  0  0  0
    9.9910    5.9631   18.5388 H   0  0  0  0  0  0
  1  5  1  0  0  0
  1  2  2  0  0  0
  1 19  1  0  0  0
  2  3  1  0  0  0
  2 16  1  0  0  0
  3  9  2  0  0  0
  3  4  1  0  0  0
  4  5  1  0  0  0
  4  6  2  0  0  0
  5 17  1  0  0  0
  6  7  1  0  0  0
  7  8  2  0  0  0
  7 20  1  0  0  0
  8  9  1  0  0  0
  9 10  1  0  0  0
 10 14  1  0  0  0
 10 11  1  0  0  0
 11 12  1  0  0  0
 11 21  1  0  0  0
 11 22  1  0  0  0
 12 13  1  0  0  0
 12 23  1  0  0  0
 12 24  1  0  0  0
 13 18  1  0  0  0
 13 14  1  0  0  0
 13 15  1  0  0  0
 14 25  1  0  0  0
 14 26  1  0  0  0
 15 27  1  0  0  0
 15 28  1  0  0  0
M  END
> <s_m_entry_id>
4250

> <s_m_entry_name>
ligand_docking-pose.12

> <s_m_Source_Path>
/home/csk/Desktop/cluster/DUD-E-result/akt1

> <s_m_Source_File>
ligand_docking-pose.sdf

> <i_m_Source_File_Index>
12

> <i_lp_mmshare_version>
53161

> <r_lp_tautomer_probability>
0.999998369746258

> <s_lp_Force_Field>
OPLS_2005

> <r_lp_Energy>
28.406519

> <b_lp_Chiralities_Consistent>
1

> <s_lp_Variant>
651113-1

> <s_i_glide_gridfile>
glide-grid_3cqw

> <i_i_glide_lignum>
11

> <i_i_glide_rotatable_bonds>
1

> <r_i_docking_score>
-7.47606422568782

> <r_i_glide_ligand_efficiency>
-0.467254014105489

> <r_i_glide_ligand_efficiency_sa>
-1.17740633495061

> <r_i_glide_ligand_efficiency_ln>
-1.98168016079136

> <r_i_glide_gscore>
-7.47606422568782

> <r_i_glide_lipo>
-1.32495462327039

> <r_i_glide_hbond>
-0.16379207024477

> <r_i_glide_metal>
0

> <r_i_glide_rewards>
-3.63998665724525

> <r_i_glide_evdw>
-33.6627464294434

> <r_i_glide_ecoul>
-6.46289157867432

> <r_i_glide_erotb>
0.30524018334591

> <r_i_glide_esite>
0

> <r_i_glide_emodel>
-56.1431903004521

> <r_i_glide_energy>
-40.1256380081177

> <r_i_glide_einternal>
0.588295757770538

> <i_i_glide_confnum>
8

> <i_i_glide_posenum>
111

> <r_i_glide_eff_state_penalty>
0

> <i_f3d_flags>
0

> <s_user_duplicate_titles>
651113

> <s_m_subgroup_title>
dock_pv

> <s_m_subgroupid>
dock_pv1

> <b_m_subgroup_collapsed>
0

$$$$
381982
                    3D
 Schrodinger Suite 2021-1.
 52 55  0  0  1  0            999 V2000
    3.8902    5.1074   15.5984 C   0  0  0  0  0  0
    3.9842    3.6235   15.8374 C   0  0  0  0  0  0
    5.0033    2.8174   16.4067 C   0  0  0  0  0  0
    6.2523    3.0642   16.9851 C   0  0  0  0  0  0
    7.0144    2.0035   17.4898 C   0  0  0  0  0  0
    6.5169    0.6959   17.3680 C   0  0  0  0  0  0
    5.2876    0.4165   16.7720 C   0  0  0  0  0  0
    4.5103    1.4850   16.3093 C   0  0  0  0  0  0
    3.2545    1.4368   15.7799 N   0  0  0  0  0  0
    2.9813    2.7294   15.5395 N   0  0  0  0  0  0
    8.3348    2.2712   18.1387 C   0  0  0  0  0  0
    8.8850    1.3882   19.0790 C   0  0  0  0  0  0
   10.1514    1.6171   19.6433 C   0  0  0  0  0  0
   10.8031    2.7968   19.2853 C   0  0  0  0  0  0
   10.2838    3.6959   18.4120 N   0  0  0  0  0  0
    9.0904    3.4147   17.8424 C   0  0  0  0  0  0
   10.7990    0.7567   20.5136 O   0  0  0  0  0  0
   10.1473   -0.4679   20.8430 C   0  0  0  0  0  0
   11.0385   -1.3999   21.6894 C   0  0  2  0  0  0
   12.2466   -1.9709   20.9042 C   0  0  0  0  0  0
   11.8878   -2.7734   19.6548 C   0  0  0  0  0  0
   11.4055   -4.0829   19.7686 C   0  0  0  0  0  0
   11.0301   -4.7959   18.6319 C   0  0  0  0  0  0
   11.1733   -4.2214   17.3706 C   0  0  0  0  0  0
   11.6806   -2.9232   17.2360 C   0  0  0  0  0  0
   12.0256   -2.2008   18.3866 C   0  0  0  0  0  0
   11.8803   -2.3207   15.8486 C   0  0  0  0  0  0
   12.2300   -3.2753   14.9847 F   0  0  0  0  0  0
   10.7460   -1.7652   15.4301 F   0  0  0  0  0  0
   12.8282   -1.3811   15.8516 F   0  0  0  0  0  0
   10.2312   -2.4906   22.2220 N   0  0  0  0  0  0
    2.0891    3.0068   15.1458 H   0  0  0  0  0  0
   11.4198   -0.8325   22.5380 H   0  0  0  0  0  0
    4.7764    5.4688   15.0773 H   0  0  0  0  0  0
    3.0315    5.3661   14.9851 H   0  0  0  0  0  0
    3.8307    5.6595   16.5375 H   0  0  0  0  0  0
    6.5903    4.0845   17.0763 H   0  0  0  0  0  0
    7.0890   -0.1389   17.7405 H   0  0  0  0  0  0
    4.9246   -0.5988   16.7110 H   0  0  0  0  0  0
    8.3209    0.5158   19.3660 H   0  0  0  0  0  0
   11.7637    3.0416   19.7131 H   0  0  0  0  0  0
    8.7565    4.1518   17.1282 H   0  0  0  0  0  0
    9.8420   -0.9780   19.9298 H   0  0  0  0  0  0
    9.2354   -0.2334   21.3837 H   0  0  0  0  0  0
   12.8487   -2.5989   21.5616 H   0  0  0  0  0  0
   12.9052   -1.1461   20.6235 H   0  0  0  0  0  0
   11.2994   -4.5398   20.7409 H   0  0  0  0  0  0
   10.6463   -5.7994   18.7302 H   0  0  0  0  0  0
   10.8980   -4.7941   16.4974 H   0  0  0  0  0  0
   12.3922   -1.1858   18.2992 H   0  0  0  0  0  0
    9.4866   -2.1674   22.8294 H   0  0  0  0  0  0
    9.7571   -2.9430   21.4475 H   0  0  0  0  0  0
  1 34  1  0  0  0
  1 35  1  0  0  0
  1 36  1  0  0  0
  1  2  1  0  0  0
  2  3  2  0  0  0
  2 10  1  0  0  0
  3  4  1  0  0  0
  3  8  1  0  0  0
  4  5  2  0  0  0
  4 37  1  0  0  0
  5  6  1  0  0  0
  5 11  1  0  0  0
  6  7  2  0  0  0
  6 38  1  0  0  0
  7  8  1  0  0  0
  7 39  1  0  0  0
  8  9  2  0  0  0
  9 10  1  0  0  0
 10 32  1  0  0  0
 11 16  1  0  0  0
 11 12  2  0  0  0
 12 13  1  0  0  0
 12 40  1  0  0  0
 13 14  2  0  0  0
 13 17  1  0  0  0
 14 15  1  0  0  0
 14 41  1  0  0  0
 15 16  2  0  0  0
 16 42  1  0  0  0
 17 18  1  0  0  0
 18 19  1  0  0  0
 18 43  1  0  0  0
 18 44  1  0  0  0
 19 33  1  0  0  0
 19 20  1  0  0  0
 19 31  1  0  0  0
 20 21  1  0  0  0
 20 45  1  0  0  0
 20 46  1  0  0  0
 21 26  1  0  0  0
 21 22  2  0  0  0
 22 23  1  0  0  0
 22 47  1  0  0  0
 23 24  2  0  0  0
 23 48  1  0  0  0
 24 25  1  0  0  0
 24 49  1  0  0  0
 25 26  2  0  0  0
 25 27  1  0  0  0
 26 50  1  0  0  0
 27 28  1  0  0  0
 27 29  1  0  0  0
 27 30  1  0  0  0
 31 51  1  0  0  0
 31 52  1  0  0  0
M  END
> <s_m_entry_id>
4258

> <s_m_entry_name>
ligand_docking-pose.20

> <s_m_Source_Path>
/home/csk/Desktop/cluster/DUD-E-result/akt1

> <s_m_Source_File>
ligand_docking-pose.sdf

> <i_m_Source_File_Index>
20

> <i_lp_mmshare_version>
53161

> <r_lp_tautomer_probability>
0.0196078431372549

> <s_lp_Force_Field>
OPLS_2005

> <r_lp_Energy>
42.557003

> <b_lp_Chiralities_Consistent>
1

> <s_lp_Variant>
381982-2

> <s_i_glide_gridfile>
glide-grid_3cqw

> <i_i_glide_lignum>
432

> <i_i_glide_rotatable_bonds>
7

> <r_i_docking_score>
-7.1066991276983

> <r_i_glide_ligand_efficiency>
-0.22924835895801

> <r_i_glide_ligand_efficiency_sa>
-0.720156358598833

> <r_i_glide_ligand_efficiency_ln>
-1.60277844746814

> <r_i_glide_gscore>
-7.1066991276983

> <r_i_glide_lipo>
-2.13843367654385

> <r_i_glide_hbond>
-0.455641453847688

> <r_i_glide_metal>
0

> <r_i_glide_rewards>
-2.5712539855669

> <r_i_glide_evdw>
-43.7972831726074

> <r_i_glide_ecoul>
-2.70883083343506

> <r_i_glide_erotb>
0.654818771905766

> <r_i_glide_esite>
0

> <r_i_glide_emodel>
-66.6858515489845

> <r_i_glide_energy>
-46.5061140060425

> <r_i_glide_einternal>
1.31961023807526

> <i_i_glide_confnum>
36

> <i_i_glide_posenum>
212

> <r_i_glide_eff_state_penalty>
0

> <i_f3d_flags>
0

> <s_user_duplicate_titles>
381982

> <s_m_subgroup_title>
dock_pv

> <s_m_subgroupid>
dock_pv1

> <b_m_subgroup_collapsed>
0

$$$$
649863
                    3D
 Schrodinger Suite 2021-1.
 38 40  0  0  1  0            999 V2000
    5.8177   -0.1506   16.9089 C   0  0  0  0  0  0
    4.9105    0.9944   16.5379 C   0  0  0  0  0  0
    3.5910    0.8335   16.1852 C   0  0  0  0  0  0
    3.0029    2.0226   15.8480 N   0  0  0  0  0  0
    3.9363    3.0161   15.9725 C   0  0  0  0  0  0
    5.1609    2.4218   16.4211 C   0  0  0  0  0  0
    6.2298    3.3453   16.5850 C   0  0  0  0  0  0
    6.0771    4.6374   16.1849 N   0  0  0  0  0  0
    4.8500    5.0439   15.7849 C   0  0  0  0  0  0
    3.7241    4.3039   15.6970 N   0  0  0  0  0  0
    7.5122    2.9979   17.0444 N   0  0  0  0  0  0
    8.6852    3.8782   17.0452 C   0  0  0  0  0  0
    9.8301    3.0700   17.6478 C   0  0  0  0  0  0
    9.1389    2.2233   18.7071 C   0  0  1  0  0  0
    7.8324    1.9011   17.9683 C   0  0  0  0  0  0
    9.9548    0.9899   19.2075 C   0  0  0  0  0  0
   10.1557   -0.1100   18.2563 N   0  0  0  0  0  0
   11.1721   -0.2092   17.3851 C   0  0  0  0  0  0
   12.0825    0.5953   17.1872 O   0  0  0  0  0  0
   11.0309   -1.7602   16.4611 Cl  0  0  0  0  0  0
    8.8541    3.0367   19.8747 N   0  0  0  0  0  0
    2.0375    2.1185   15.5613 H   0  0  0  0  0  0
    5.3142   -1.1091   16.7910 H   0  0  0  0  0  0
    6.6907   -0.1712   16.2601 H   0  0  0  0  0  0
    6.1439   -0.1222   17.9469 H   0  0  0  0  0  0
    3.0309   -0.0851   16.1768 H   0  0  0  0  0  0
    4.7464    6.0906   15.5421 H   0  0  0  0  0  0
    8.4875    4.7830   17.6231 H   0  0  0  0  0  0
    8.9061    4.1918   16.0225 H   0  0  0  0  0  0
   10.6303    3.6923   18.0546 H   0  0  0  0  0  0
   10.2694    2.4635   16.8569 H   0  0  0  0  0  0
    8.0363    1.0085   17.3858 H   0  0  0  0  0  0
    7.0438    1.7472   18.7079 H   0  0  0  0  0  0
    9.4323    0.5412   20.0556 H   0  0  0  0  0  0
   10.9158    1.3236   19.6081 H   0  0  0  0  0  0
    9.5114   -0.8857   18.3405 H   0  0  0  0  0  0
    8.3879    3.8922   19.6121 H   0  0  0  0  0  0
    8.2464    2.5631   20.5282 H   0  0  0  0  0  0
  1  2  1  0  0  0
  1 23  1  0  0  0
  1 24  1  0  0  0
  1 25  1  0  0  0
  2  6  1  0  0  0
  2  3  2  0  0  0
  3  4  1  0  0  0
  3 26  1  0  0  0
  4 22  1  0  0  0
  4  5  1  0  0  0
  5 10  1  0  0  0
  5  6  2  0  0  0
  6  7  1  0  0  0
  7  8  2  0  0  0
  7 11  1  0  0  0
  8  9  1  0  0  0
  9 10  2  0  0  0
  9 27  1  0  0  0
 11 15  1  0  0  0
 11 12  1  0  0  0
 12 13  1  0  0  0
 12 28  1  0  0  0
 12 29  1  0  0  0
 13 14  1  0  0  0
 13 30  1  0  0  0
 13 31  1  0  0  0
 14 15  1  0  0  0
 14 16  1  0  0  0
 14 21  1  0  0  0
 15 32  1  0  0  0
 15 33  1  0  0  0
 16 17  1  0  0  0
 16 34  1  0  0  0
 16 35  1  0  0  0
 17 18  1  0  0  0
 17 36  1  0  0  0
 18 19  2  0  0  0
 18 20  1  0  0  0
 21 37  1  0  0  0
 21 38  1  0  0  0
M  END
> <s_m_entry_id>
4271

> <s_m_entry_name>
ligand_docking-pose.33

> <s_m_Source_Path>
/home/csk/Desktop/cluster/DUD-E-result/akt1

> <s_m_Source_File>
ligand_docking-pose.sdf

> <i_m_Source_File_Index>
33

> <i_lp_mmshare_version>
53161

> <r_lp_tautomer_probability>
0.999998369746258

> <s_lp_Force_Field>
OPLS_2005

> <r_lp_Energy>
31.21135

> <b_lp_Chiralities_Consistent>
1

> <s_lp_Variant>
649863-1

> <s_i_glide_gridfile>
glide-grid_3cqw

> <i_i_glide_lignum>
643

> <i_i_glide_rotatable_bonds>
4

> <r_i_docking_score>
-6.82511544868328

> <r_i_glide_ligand_efficiency>
-0.325005497556347

> <r_i_glide_ligand_efficiency_sa>
-0.896665523755007

> <r_i_glide_ligand_efficiency_ln>
-1.6874960032426

> <r_i_glide_gscore>
-6.82511544868328

> <r_i_glide_lipo>
-1.52807675441521

> <r_i_glide_hbond>
0

> <r_i_glide_metal>
0

> <r_i_glide_rewards>
-3.3582498599207

> <r_i_glide_evdw>
-38.0465507507324

> <r_i_glide_ecoul>
-3.81084084510803

> <r_i_glide_erotb>
0.582347431064634

> <r_i_glide_esite>
-0.0471826011091718

> <r_i_glide_emodel>
-57.593821150432

> <r_i_glide_energy>
-41.8573915958405

> <r_i_glide_einternal>
2.94012260437012

> <i_i_glide_confnum>
7

> <i_i_glide_posenum>
30

> <r_i_glide_eff_state_penalty>
0

> <i_f3d_flags>
0

> <s_user_duplicate_titles>
649863

> <s_m_subgroup_title>
dock_pv

> <s_m_subgroupid>
dock_pv1

> <b_m_subgroup_collapsed>
0

$$$$
