CHEMBL284_lig2671
                    3D
 Schrodinger Suite 2021-1.
 44 47  0  0  1  0            999 V2000
  -23.3305   -7.9796   63.8306 C   0  0  0  0  0  0
  -22.2094   -8.7090   64.2288 C   0  0  0  0  0  0
  -20.9484   -8.3794   63.7333 C   0  0  0  0  0  0
  -20.7938   -7.3118   62.8396 C   0  0  0  0  0  0
  -21.9266   -6.5883   62.4438 C   0  0  0  0  0  0
  -23.1884   -6.9213   62.9349 C   0  0  0  0  0  0
  -24.2757   -6.2236   62.5371 F   0  0  0  0  0  0
  -19.8844   -9.1090   64.1279 F   0  0  0  0  0  0
  -19.4203   -6.9435   62.2750 C   0  0  1  0  0  0
  -19.5068   -6.9116   60.8502 O   0  0  0  0  0  0
  -18.2703   -6.7090   60.1778 C   0  0  0  0  0  0
  -17.6864   -5.3166   60.5299 C   0  0  1  0  0  0
  -17.6062   -5.1477   62.0718 C   0  0  0  0  0  0
  -18.8872   -5.5796   62.8111 C   0  0  2  0  0  0
  -16.4291   -4.9391   59.8669 N   0  0  1  0  0  0
  -18.7000   -5.5090   64.2539 N   0  0  0  0  0  0
  -15.2973   -5.7853   60.2696 C   0  0  0  0  0  0
  -16.4549   -4.8169   58.3897 C   0  0  0  0  0  0
  -15.1964   -5.5050   57.9182 C   0  0  0  0  0  0
  -14.6138   -6.0699   58.9899 C   0  0  0  0  0  0
  -13.5000   -6.6714   58.5280 N   0  0  0  0  0  0
  -13.4075   -6.3336   57.2066 C   0  0  0  0  0  0
  -14.4757   -5.6481   56.8083 N   0  0  0  0  0  0
  -12.1178   -6.6268   56.4458 C   0  0  0  0  0  0
  -12.3000   -7.3154   55.3280 F   0  0  0  0  0  0
  -11.2650   -7.3275   57.1843 F   0  0  0  0  0  0
  -11.4863   -5.5090   56.1280 F   0  0  0  0  0  0
  -24.3104   -8.2304   64.2066 H   0  0  0  0  0  0
  -22.3000   -9.5256   64.9280 H   0  0  0  0  0  0
  -21.8303   -5.7718   61.7433 H   0  0  0  0  0  0
  -18.7195   -7.7358   62.5484 H   0  0  0  0  0  0
  -18.4639   -6.7868   59.1087 H   0  0  0  0  0  0
  -17.5803   -7.5174   60.4231 H   0  0  0  0  0  0
  -18.4373   -4.6021   60.1876 H   0  0  0  0  0  0
  -16.8045   -5.7906   62.4390 H   0  0  0  0  0  0
  -17.3570   -4.1138   62.3152 H   0  0  0  0  0  0
  -19.6529   -4.8465   62.5522 H   0  0  0  0  0  0
  -17.9919   -6.1917   64.5280 H   0  0  0  0  0  0
  -18.3126   -4.6073   64.4924 H   0  0  0  0  0  0
  -15.5796   -6.6926   60.8038 H   0  0  0  0  0  0
  -14.6576   -5.2157   60.9447 H   0  0  0  0  0  0
  -16.4504   -3.7574   58.1311 H   0  0  0  0  0  0
  -17.3628   -5.2341   57.9557 H   0  0  0  0  0  0
  -12.7822   -7.1090   59.1035 H   0  0  0  0  0  0
  1  2  2  0  0  0
  1  6  1  0  0  0
  1 28  1  0  0  0
  2  3  1  0  0  0
  2 29  1  0  0  0
  3  4  2  0  0  0
  3  8  1  0  0  0
  4  5  1  0  0  0
  4  9  1  0  0  0
  5  6  2  0  0  0
  5 30  1  0  0  0
  6  7  1  0  0  0
  9 10  1  0  0  0
  9 14  1  0  0  0
  9 31  1  0  0  0
 10 11  1  0  0  0
 11 12  1  0  0  0
 11 32  1  0  0  0
 11 33  1  0  0  0
 12 13  1  0  0  0
 12 15  1  0  0  0
 12 34  1  0  0  0
 13 14  1  0  0  0
 13 35  1  0  0  0
 13 36  1  0  0  0
 14 16  1  0  0  0
 14 37  1  0  0  0
 15 17  1  0  0  0
 15 18  1  0  0  0
 16 38  1  0  0  0
 16 39  1  0  0  0
 17 40  1  0  0  0
 17 41  1  0  0  0
 17 20  1  0  0  0
 18 42  1  0  0  0
 18 43  1  0  0  0
 18 19  1  0  0  0
 19 20  2  0  0  0
 19 23  1  0  0  0
 20 21  1  0  0  0
 21 44  1  0  0  0
 21 22  1  0  0  0
 22 24  1  0  0  0
 22 23  2  0  0  0
 24 25  1  0  0  0
 24 26  1  0  0  0
 24 27  1  0  0  0
M  END
> <s_m_entry_id>
3118

> <s_m_entry_name>
dock_pv.2

> <s_m_Source_Path>
/home/csk/Desktop/cluster/DUD-E-result/dpp4

> <s_m_Source_File>
dock_pv.maegz

> <i_m_Source_File_Index>
2

> <chembl_id>
CHEMBL2425069

> <chembl_pref_name>
None

> <i_lp_mmshare_version>
53161

> <r_lp_tautomer_probability>
0.499999999999999

> <s_lp_Force_Field>
OPLS_2005

> <r_lp_Energy>
76.241459

> <b_lp_Chiralities_Consistent>
1

> <s_lp_Variant>
CHEMBL284_lig2671-1

> <s_i_glide_gridfile>
glide-grid_2i78

> <i_i_glide_lignum>
3330

> <i_i_glide_rotatable_bonds>
3

> <r_i_docking_score>
-7.58366350806928

> <r_i_glide_ligand_efficiency>
-0.280876426224788

> <r_i_glide_ligand_efficiency_sa>
-0.842629277748642

> <r_i_glide_ligand_efficiency_ln>
-1.76535183821425

> <r_i_glide_gscore>
-7.58366350806928

> <r_i_glide_lipo>
-1.46264205667011

> <r_i_glide_hbond>
-0.727660792905072

> <r_i_glide_metal>
0

> <r_i_glide_rewards>
-2.56920926340014

> <r_i_glide_evdw>
-32.9536476135254

> <r_i_glide_ecoul>
-9.43079853057861

> <r_i_glide_erotb>
0.258387501514764

> <r_i_glide_esite>
-0.0202367363456734

> <r_i_glide_emodel>
-56.9228333800611

> <r_i_glide_energy>
-42.384446144104

> <r_i_glide_einternal>
4.70424938201904

> <i_i_glide_confnum>
1

> <i_i_glide_posenum>
17

> <r_i_glide_eff_state_penalty>
0

> <s_user_duplicate_titles>
CHEMBL284_lig2671

> <i_f3d_flags>
0

> <s_m_subgroup_title>
dock_pv

> <s_m_subgroupid>
dock_pv

> <b_m_subgroup_collapsed>
1

$$$$
CHEMBL284_lig1979
                    3D
 Schrodinger Suite 2021-1.
 58 61  0  0  1  0            999 V2000
  -16.1530   -1.9041   56.6148 N   0  0  0  0  0  0
  -16.9404   -0.9968   57.3103 C   0  0  0  0  0  0
  -17.4030   -1.4483   58.5222 N   0  0  0  0  0  0
  -15.8082   -3.2107   56.9281 C   0  0  0  0  0  0
  -16.4001   -3.6075   58.2069 C   0  0  0  0  0  0
  -17.1585   -2.7368   58.9726 C   0  0  0  0  0  0
  -17.5361   -3.4025   60.1359 C   0  0  0  0  0  0
  -17.0665   -4.7060   60.0714 C   0  0  0  0  0  0
  -16.3249   -4.8222   58.8924 N   0  0  0  0  0  0
  -17.1964   -5.7335   60.9769 N   0  0  0  0  0  0
  -17.8200   -7.0196   60.6029 C   0  0  0  0  0  0
  -19.2448   -7.2460   61.1471 C   0  0  0  0  0  0
  -19.3077   -7.0160   62.6623 C   0  0  0  0  0  0
  -18.7660   -5.6237   63.0371 C   0  0  2  0  0  0
  -17.3366   -5.4767   62.4274 C   0  0  0  0  0  0
  -15.6350   -1.3814   55.3258 C   0  0  0  0  0  0
  -15.0995   -3.9080   56.1988 O   0  0  0  0  0  0
  -17.2099    0.1358   56.8888 O   0  0  0  0  0  0
  -15.6068   -6.0327   58.4456 C   0  0  0  0  0  0
  -14.1287   -5.8880   58.0904 C   0  0  0  0  0  0
  -13.2196   -5.1090   58.8356 C   0  0  0  0  0  0
  -11.8988   -5.0051   58.3978 C   0  0  0  0  0  0
  -11.4750   -5.6657   57.2490 C   0  0  0  0  0  0
  -12.3566   -6.4555   56.5284 C   0  0  0  0  0  0
  -13.6758   -6.5650   56.9484 C   0  0  0  0  0  0
  -18.7000   -5.5090   64.4820 N   0  0  0  0  0  0
  -19.7108   -4.5156   62.5284 C   0  0  0  0  0  0
  -13.5851   -4.4433   60.1524 C   0  0  0  0  0  0
  -11.9310   -7.1068   55.4209 F   0  0  0  0  0  0
  -18.2274   -0.5609   59.3579 C   0  0  0  0  0  0
  -18.1131   -2.9762   60.9399 H   0  0  0  0  0  0
  -17.8614   -7.1056   59.5174 H   0  0  0  0  0  0
  -17.1572   -7.8208   60.9341 H   0  0  0  0  0  0
  -19.9639   -6.6323   60.6006 H   0  0  0  0  0  0
  -19.5397   -8.2735   60.9306 H   0  0  0  0  0  0
  -20.3181   -7.1666   63.0459 H   0  0  0  0  0  0
  -18.6860   -7.7821   63.1305 H   0  0  0  0  0  0
  -16.6503   -6.1617   62.9272 H   0  0  0  0  0  0
  -16.9364   -4.4879   62.6538 H   0  0  0  0  0  0
  -16.4544   -1.0104   54.7081 H   0  0  0  0  0  0
  -14.9548   -0.5456   55.5046 H   0  0  0  0  0  0
  -15.1009   -2.1100   54.7150 H   0  0  0  0  0  0
  -16.1683   -6.4201   57.5968 H   0  0  0  0  0  0
  -15.6352   -6.7938   59.2218 H   0  0  0  0  0  0
  -11.1853   -4.4222   58.9613 H   0  0  0  0  0  0
  -10.4501   -5.5897   56.9231 H   0  0  0  0  0  0
  -14.3488   -7.1677   56.3619 H   0  0  0  0  0  0
  -18.0326   -6.2090   64.8053 H   0  0  0  0  0  0
  -18.2827   -4.6182   64.7009 H   0  0  0  0  0  0
  -19.8191   -4.5188   61.4443 H   0  0  0  0  0  0
  -20.7087   -4.6289   62.9541 H   0  0  0  0  0  0
  -19.3601   -3.5275   62.8260 H   0  0  0  0  0  0
  -14.1069   -3.5039   59.9820 H   0  0  0  0  0  0
  -14.2240   -5.0946   60.7499 H   0  0  0  0  0  0
  -12.7029   -4.2513   60.7637 H   0  0  0  0  0  0
  -18.7224    0.2226   58.7857 H   0  0  0  0  0  0
  -19.0135   -1.1203   59.8632 H   0  0  0  0  0  0
  -17.6084   -0.0835   60.1156 H   0  0  0  0  0  0
  1 16  1  0  0  0
  1  2  1  0  0  0
  1  4  1  0  0  0
  2 18  2  0  0  0
  2  3  1  0  0  0
  3  6  1  0  0  0
  3 30  1  0  0  0
  4 17  2  0  0  0
  4  5  1  0  0  0
  5  9  1  0  0  0
  5  6  2  0  0  0
  6  7  1  0  0  0
  7  8  2  0  0  0
  7 31  1  0  0  0
  8  9  1  0  0  0
  8 10  1  0  0  0
  9 19  1  0  0  0
 10 11  1  0  0  0
 10 15  1  0  0  0
 11 12  1  0  0  0
 11 32  1  0  0  0
 11 33  1  0  0  0
 12 13  1  0  0  0
 12 34  1  0  0  0
 12 35  1  0  0  0
 13 14  1  0  0  0
 13 36  1  0  0  0
 13 37  1  0  0  0
 14 15  1  0  0  0
 14 26  1  0  0  0
 14 27  1  0  0  0
 15 38  1  0  0  0
 15 39  1  0  0  0
 16 40  1  0  0  0
 16 41  1  0  0  0
 16 42  1  0  0  0
 19 20  1  0  0  0
 19 43  1  0  0  0
 19 44  1  0  0  0
 20 21  2  0  0  0
 20 25  1  0  0  0
 21 22  1  0  0  0
 21 28  1  0  0  0
 22 23  2  0  0  0
 22 45  1  0  0  0
 23 24  1  0  0  0
 23 46  1  0  0  0
 24 25  2  0  0  0
 24 29  1  0  0  0
 25 47  1  0  0  0
 26 48  1  0  0  0
 26 49  1  0  0  0
 27 50  1  0  0  0
 27 51  1  0  0  0
 27 52  1  0  0  0
 28 53  1  0  0  0
 28 54  1  0  0  0
 28 55  1  0  0  0
 30 56  1  0  0  0
 30 57  1  0  0  0
 30 58  1  0  0  0
M  END
> <s_m_entry_id>
3119

> <s_m_entry_name>
dock_pv.3

> <s_m_Source_Path>
/home/csk/Desktop/cluster/DUD-E-result/dpp4

> <s_m_Source_File>
dock_pv.maegz

> <i_m_Source_File_Index>
3

> <chembl_id>
CHEMBL1288261

> <chembl_pref_name>
None

> <i_lp_mmshare_version>
53161

> <r_lp_tautomer_probability>
1

> <s_lp_Force_Field>
OPLS_2005

> <r_lp_Energy>
58.749041

> <b_lp_Chiralities_Consistent>
1

> <s_lp_Variant>
CHEMBL284_lig1979-1

> <s_i_glide_gridfile>
glide-grid_2i78

> <i_i_glide_lignum>
2547

> <i_i_glide_rotatable_bonds>
3

> <r_i_docking_score>
-7.40992055470044

> <r_i_glide_ligand_efficiency>
-0.246997351823348

> <r_i_glide_ligand_efficiency_sa>
-0.767478199599913

> <r_i_glide_ligand_efficiency_ln>
-1.68361468757895

> <r_i_glide_gscore>
-7.40992055470044

> <r_i_glide_lipo>
-2.21548735771985

> <r_i_glide_hbond>
-0.580782708957995

> <r_i_glide_metal>
0

> <r_i_glide_rewards>
-1.62524287857219

> <r_i_glide_evdw>
-38.6424369812012

> <r_i_glide_ecoul>
-9.26296329498291

> <r_i_glide_erotb>
0.346173108614062

> <r_i_glide_esite>
-0.0130143747569718

> <r_i_glide_emodel>
-64.8194891624752

> <r_i_glide_energy>
-47.9054002761841

> <r_i_glide_einternal>
5.01004409790039

> <i_i_glide_confnum>
21

> <i_i_glide_posenum>
145

> <r_i_glide_eff_state_penalty>
0

> <s_user_duplicate_titles>
CHEMBL284_lig1979

> <i_f3d_flags>
0

> <s_m_subgroup_title>
dock_pv

> <s_m_subgroupid>
dock_pv

> <b_m_subgroup_collapsed>
1

$$$$
CHEMBL284_lig1477
                    3D
 Schrodinger Suite 2021-1.
 64 66  0  0  1  0            999 V2000
  -11.8971   -5.7955   57.5116 C   0  0  0  0  0  0
  -12.0043   -4.8510   58.5279 C   0  0  0  0  0  0
  -13.2329   -4.6305   59.1477 C   0  0  0  0  0  0
  -14.3616   -5.3689   58.7631 C   0  0  0  0  0  0
  -14.2444   -6.3081   57.7304 C   0  0  0  0  0  0
  -13.0148   -6.5237   57.1087 C   0  0  0  0  0  0
  -12.9039   -7.4474   56.1283 F   0  0  0  0  0  0
  -10.7002   -6.0064   56.9279 F   0  0  0  0  0  0
  -13.3154   -3.7059   60.1277 F   0  0  0  0  0  0
  -15.7014   -5.1967   59.4822 C   0  0  0  0  0  0
  -16.1126   -6.4280   60.3257 C   0  0  2  0  0  0
  -17.5094   -6.2953   60.9951 C   0  0  0  0  0  0
  -15.0960   -6.7090   61.3260 N   0  0  0  0  0  0
  -18.2944   -7.6229   61.1020 C   0  0  0  0  0  0
  -18.9934   -7.9021   62.2385 N   0  0  0  0  0  0
  -18.3001   -8.3783   60.1280 O   0  0  0  0  0  0
  -19.4438   -9.1685   62.4824 N   0  0  0  0  0  0
  -20.2622   -9.1698   63.4473 C   0  0  0  0  0  0
  -20.3934   -7.8449   64.1097 C   0  0  0  0  0  0
  -19.6343   -6.9287   63.1458 C   0  0  2  0  0  0
  -20.5877   -5.9865   62.3557 C   0  0  0  0  0  0
  -20.2566   -4.6825   62.3248 N   0  0  0  0  0  0
  -21.5342   -6.4601   61.7291 O   0  0  0  0  0  0
  -20.7444   -3.6543   61.3904 C   0  0  0  0  0  0
  -22.2074   -3.7004   60.9444 C   0  0  0  0  0  0
  -23.2345   -3.6393   61.8899 C   0  0  0  0  0  0
  -24.5650   -3.6797   61.4807 C   0  0  0  0  0  0
  -24.8742   -3.7692   60.1240 C   0  0  0  0  0  0
  -23.8676   -3.8175   59.1574 C   0  0  0  0  0  0
  -22.5273   -3.7889   59.5813 C   0  0  0  0  0  0
  -24.3013   -3.9093   57.8475 O   0  0  0  0  0  0
  -23.4006   -3.8355   56.7387 C   0  0  0  0  0  0
  -23.7930   -2.7101   55.7698 C   0  0  0  0  0  0
  -25.0578   -2.2510   55.9278 O   0  0  0  0  0  0
  -22.9902   -2.2998   54.9305 O   0  0  0  0  0  0
  -25.5104   -1.1325   55.1738 C   0  0  0  0  0  0
  -27.0343   -1.0200   55.2816 C   0  0  0  0  0  0
  -11.1242   -4.3090   58.8445 H   0  0  0  0  0  0
  -15.0973   -6.8956   57.4233 H   0  0  0  0  0  0
  -15.6884   -4.3024   60.1073 H   0  0  0  0  0  0
  -16.4620   -5.0037   58.7243 H   0  0  0  0  0  0
  -16.1188   -7.2814   59.6463 H   0  0  0  0  0  0
  -17.4156   -5.8072   61.9652 H   0  0  0  0  0  0
  -18.1351   -5.6320   60.3981 H   0  0  0  0  0  0
  -14.1873   -6.7071   60.8787 H   0  0  0  0  0  0
  -15.0377   -5.9826   62.0375 H   0  0  0  0  0  0
  -20.7737  -10.0722   63.7707 H   0  0  0  0  0  0
  -21.4420   -7.5825   64.2669 H   0  0  0  0  0  0
  -19.8980   -7.9091   65.0785 H   0  0  0  0  0  0
  -18.8888   -6.3342   63.6790 H   0  0  0  0  0  0
  -19.4631   -4.4073   62.8834 H   0  0  0  0  0  0
  -20.5807   -2.6890   61.8702 H   0  0  0  0  0  0
  -20.0887   -3.6581   60.5185 H   0  0  0  0  0  0
  -23.0003   -3.5747   62.9429 H   0  0  0  0  0  0
  -25.3568   -3.6432   62.2146 H   0  0  0  0  0  0
  -25.9089   -3.8008   59.8151 H   0  0  0  0  0  0
  -21.7181   -3.8472   58.8729 H   0  0  0  0  0  0
  -22.3494   -3.7289   56.9916 H   0  0  0  0  0  0
  -23.4981   -4.7740   56.1942 H   0  0  0  0  0  0
  -25.0410   -0.2240   55.5544 H   0  0  0  0  0  0
  -25.2156   -1.2286   54.1287 H   0  0  0  0  0  0
  -27.3972   -0.1623   54.7146 H   0  0  0  0  0  0
  -27.5227   -1.9073   54.8830 H   0  0  0  0  0  0
  -27.3460   -0.8965   56.3183 H   0  0  0  0  0  0
  1  6  1  0  0  0
  1  2  2  0  0  0
  1  8  1  0  0  0
  2  3  1  0  0  0
  2 38  1  0  0  0
  3  4  2  0  0  0
  3  9  1  0  0  0
  4  5  1  0  0  0
  4 10  1  0  0  0
  5  6  2  0  0  0
  5 39  1  0  0  0
  6  7  1  0  0  0
 10 11  1  0  0  0
 10 40  1  0  0  0
 10 41  1  0  0  0
 11 12  1  0  0  0
 11 13  1  0  0  0
 11 42  1  0  0  0
 12 14  1  0  0  0
 12 43  1  0  0  0
 12 44  1  0  0  0
 13 45  1  0  0  0
 13 46  1  0  0  0
 14 15  1  0  0  0
 14 16  2  0  0  0
 15 20  1  0  0  0
 15 17  1  0  0  0
 17 18  2  0  0  0
 18 19  1  0  0  0
 18 47  1  0  0  0
 19 20  1  0  0  0
 19 48  1  0  0  0
 19 49  1  0  0  0
 20 21  1  0  0  0
 20 50  1  0  0  0
 21 22  1  0  0  0
 21 23  2  0  0  0
 22 24  1  0  0  0
 22 51  1  0  0  0
 24 25  1  0  0  0
 24 52  1  0  0  0
 24 53  1  0  0  0
 25 26  2  0  0  0
 25 30  1  0  0  0
 26 27  1  0  0  0
 26 54  1  0  0  0
 27 28  2  0  0  0
 27 55  1  0  0  0
 28 29  1  0  0  0
 28 56  1  0  0  0
 29 30  2  0  0  0
 29 31  1  0  0  0
 30 57  1  0  0  0
 31 32  1  0  0  0
 32 33  1  0  0  0
 32 58  1  0  0  0
 32 59  1  0  0  0
 33 34  1  0  0  0
 33 35  2  0  0  0
 34 36  1  0  0  0
 36 37  1  0  0  0
 36 60  1  0  0  0
 36 61  1  0  0  0
 37 62  1  0  0  0
 37 63  1  0  0  0
 37 64  1  0  0  0
M  END
> <s_m_entry_id>
3120

> <s_m_entry_name>
dock_pv.4

> <s_m_Source_Path>
/home/csk/Desktop/cluster/DUD-E-result/dpp4

> <s_m_Source_File>
dock_pv.maegz

> <i_m_Source_File_Index>
4

> <chembl_id>
CHEMBL518296

> <chembl_pref_name>
None

> <i_lp_mmshare_version>
53161

> <r_lp_tautomer_probability>
1

> <s_lp_Force_Field>
OPLS_2005

> <r_lp_Energy>
26.081301

> <b_lp_Chiralities_Consistent>
1

> <s_lp_Variant>
CHEMBL284_lig1477-2

> <s_i_glide_gridfile>
glide-grid_2i78

> <i_i_glide_lignum>
1833

> <i_i_glide_rotatable_bonds>
14

> <r_i_docking_score>
-7.37630341669175

> <r_i_glide_ligand_efficiency>
-0.19935955180248

> <r_i_glide_ligand_efficiency_sa>
-0.664310254050977

> <r_i_glide_ligand_efficiency_ln>
-1.59974728599357

> <r_i_glide_gscore>
-7.37630341669175

> <r_i_glide_lipo>
-1.95432898862078

> <r_i_glide_hbond>
-0.472181003109391

> <r_i_glide_metal>
0

> <r_i_glide_rewards>
-2.13054197118372

> <r_i_glide_evdw>
-47.3893623352051

> <r_i_glide_ecoul>
-8.71628665924072

> <r_i_glide_erotb>
0.910297702775151

> <r_i_glide_esite>
-0.0526380409066579

> <r_i_glide_emodel>
-77.1940308961017

> <r_i_glide_energy>
-56.1056489944458

> <r_i_glide_einternal>
11.1776638031006

> <i_i_glide_confnum>
39

> <i_i_glide_posenum>
107

> <r_i_glide_eff_state_penalty>
0

> <s_user_duplicate_titles>
CHEMBL284_lig1477

> <i_f3d_flags>
0

> <s_m_subgroup_title>
dock_pv

> <s_m_subgroupid>
dock_pv

> <b_m_subgroup_collapsed>
1

$$$$
CHEMBL284_lig765
                    3D
 Schrodinger Suite 2021-1.
 45 46  0  0  1  0            999 V2000
  -14.2648   -5.6200   57.6901 C   0  0  0  0  0  0
  -21.1438   -9.4853   64.1403 C   0  0  0  0  0  0
  -15.7556   -5.4163   57.7537 C   0  0  0  0  0  0
  -20.6882   -8.3878   63.2116 C   0  0  0  0  0  0
  -13.3291   -4.9105   58.4719 C   0  0  0  0  0  0
  -21.1003  -10.6689   63.8158 O   0  0  0  0  0  0
  -16.3817   -4.6039   58.8955 C   0  0  0  0  0  0
  -16.4410   -5.3606   60.1464 N   0  0  2  0  0  0
  -16.5286   -5.9093   56.9279 O   0  0  0  0  0  0
  -19.6430   -8.6316   62.3114 C   0  0  0  0  0  0
  -21.3240   -7.1382   63.2009 C   0  0  0  0  0  0
  -21.6125   -9.1087   65.3279 N   0  0  0  0  0  0
  -13.7048   -4.0074   59.4067 F   0  0  0  0  0  0
  -19.9010   -6.4167   61.3893 C   0  0  0  0  0  0
  -20.9294   -6.1581   62.2959 C   0  0  0  0  0  0
  -19.2595   -7.6567   61.3945 C   0  0  0  0  0  0
  -19.4896   -5.3450   60.3912 C   0  0  0  0  0  0
  -18.5586   -4.2442   60.9636 C   0  0  0  0  0  0
  -17.0755   -4.6255   61.2393 C   0  0  1  0  0  0
  -13.7743   -6.5435   56.7520 C   0  0  0  0  0  0
  -11.9604   -5.1088   58.2798 C   0  0  0  0  0  0
  -16.8707   -5.4195   62.5414 C   0  0  0  0  0  0
  -12.4083   -6.7416   56.5688 C   0  0  0  0  0  0
  -11.5001   -6.0153   57.3281 C   0  0  0  0  0  0
  -15.9084   -3.6287   59.0034 H   0  0  0  0  0  0
  -17.4060   -4.3886   58.5908 H   0  0  0  0  0  0
  -15.5156   -5.6526   60.4374 H   0  0  0  0  0  0
  -19.1315   -9.5827   62.3114 H   0  0  0  0  0  0
  -22.1359   -6.9185   63.8799 H   0  0  0  0  0  0
  -21.8994   -9.8052   66.0071 H   0  0  0  0  0  0
  -21.4999   -8.1455   65.6267 H   0  0  0  0  0  0
  -21.4294   -5.2006   62.2945 H   0  0  0  0  0  0
  -18.4541   -7.8555   60.7017 H   0  0  0  0  0  0
  -20.4023   -4.8787   60.0170 H   0  0  0  0  0  0
  -19.0476   -5.8122   59.5101 H   0  0  0  0  0  0
  -18.9988   -3.8333   61.8730 H   0  0  0  0  0  0
  -18.5630   -3.4091   60.2626 H   0  0  0  0  0  0
  -16.5121   -3.6979   61.3609 H   0  0  0  0  0  0
  -14.4531   -7.1090   56.1303 H   0  0  0  0  0  0
  -11.2534   -4.5544   58.8804 H   0  0  0  0  0  0
  -16.9302   -4.7634   63.4100 H   0  0  0  0  0  0
  -17.6010   -6.2059   62.6945 H   0  0  0  0  0  0
  -15.9000   -5.9096   62.5673 H   0  0  0  0  0  0
  -12.0557   -7.4561   55.8395 H   0  0  0  0  0  0
  -10.4409   -6.1724   57.1956 H   0  0  0  0  0  0
  1  3  1  0  0  0
  1  5  1  0  0  0
  1 20  2  0  0  0
  2  4  1  0  0  0
  2  6  2  0  0  0
  2 12  1  0  0  0
  3  7  1  0  0  0
  3  9  2  0  0  0
  4 11  1  0  0  0
  4 10  2  0  0  0
  5 13  1  0  0  0
  5 21  2  0  0  0
  7  8  1  0  0  0
  7 25  1  0  0  0
  7 26  1  0  0  0
  8 19  1  0  0  0
  8 27  1  0  0  0
 10 16  1  0  0  0
 10 28  1  0  0  0
 11 15  2  0  0  0
 11 29  1  0  0  0
 12 30  1  0  0  0
 12 31  1  0  0  0
 14 17  1  0  0  0
 14 15  1  0  0  0
 14 16  2  0  0  0
 15 32  1  0  0  0
 16 33  1  0  0  0
 17 18  1  0  0  0
 17 34  1  0  0  0
 17 35  1  0  0  0
 18 19  1  0  0  0
 18 36  1  0  0  0
 18 37  1  0  0  0
 19 22  1  0  0  0
 19 38  1  0  0  0
 20 23  1  0  0  0
 20 39  1  0  0  0
 21 24  1  0  0  0
 21 40  1  0  0  0
 22 41  1  0  0  0
 22 42  1  0  0  0
 22 43  1  0  0  0
 23 24  2  0  0  0
 23 44  1  0  0  0
 24 45  1  0  0  0
M  END
> <s_m_entry_id>
3121

> <s_m_entry_name>
dock_pv.5

> <s_m_Source_Path>
/home/csk/Desktop/cluster/DUD-E-result/dpp4

> <s_m_Source_File>
dock_pv.maegz

> <i_m_Source_File_Index>
5

> <chembl_id>
CHEMBL217532

> <chembl_pref_name>
None

> <i_lp_mmshare_version>
53161

> <r_lp_tautomer_probability>
0.99990000499975

> <s_lp_Force_Field>
OPLS_2005

> <r_lp_Energy>
23.264583

> <b_lp_Chiralities_Consistent>
1

> <s_lp_Variant>
CHEMBL284_lig765-1

> <s_i_glide_gridfile>
glide-grid_2i78

> <i_i_glide_lignum>
958

> <i_i_glide_rotatable_bonds>
8

> <r_i_docking_score>
-7.37101648136547

> <r_i_glide_ligand_efficiency>
-0.307125686723561

> <r_i_glide_ligand_efficiency_sa>
-0.885903778476365

> <r_i_glide_ligand_efficiency_ln>
-1.76422247789747

> <r_i_glide_gscore>
-7.37101648136547

> <r_i_glide_lipo>
-2.23253349165884

> <r_i_glide_hbond>
-0.855725110945147

> <r_i_glide_metal>
0

> <r_i_glide_rewards>
-2.13712309999665

> <r_i_glide_evdw>
-36.0828056335449

> <r_i_glide_ecoul>
-9.05668830871582

> <r_i_glide_erotb>
1.04498473759297

> <r_i_glide_esite>
-0.0279759883731881

> <r_i_glide_emodel>
-61.9818274437354

> <r_i_glide_energy>
-45.1394939422607

> <r_i_glide_einternal>
8.65970706939697

> <i_i_glide_confnum>
37

> <i_i_glide_posenum>
348

> <r_i_glide_eff_state_penalty>
0

> <s_user_duplicate_titles>
CHEMBL284_lig765

> <i_f3d_flags>
0

> <s_m_subgroup_title>
dock_pv

> <s_m_subgroupid>
dock_pv

> <b_m_subgroup_collapsed>
1

$$$$
CHEMBL284_lig2141
                    3D
 Schrodinger Suite 2021-1.
 56 57  0  0  1  0            999 V2000
  -24.1872   -7.1108   63.1693 C   0  0  0  0  0  0
  -23.5460   -6.3090   62.2279 C   0  0  0  0  0  0
  -22.1543   -6.3072   62.1435 C   0  0  0  0  0  0
  -21.3859   -7.0912   63.0201 C   0  0  0  0  0  0
  -22.0417   -7.9091   63.9458 C   0  0  0  0  0  0
  -23.4329   -7.9112   64.0235 C   0  0  0  0  0  0
  -24.0526   -8.6950   64.9275 F   0  0  0  0  0  0
  -21.5675   -5.5406   61.1998 F   0  0  0  0  0  0
  -19.8572   -7.0837   62.9637 C   0  0  0  0  0  0
  -19.2125   -5.6766   63.1506 C   0  0  2  0  0  0
  -18.0982   -5.3271   62.1284 C   0  0  1  0  0  0
  -16.8700   -6.2678   62.1480 C   0  0  0  0  0  0
  -15.7797   -5.7488   61.1960 C   0  0  0  0  0  0
  -16.2852   -5.6373   59.7345 C   0  0  1  0  0  0
  -17.5779   -4.7801   59.6907 C   0  0  0  0  0  0
  -18.6429   -5.2501   60.6857 C   0  0  0  0  0  0
  -18.7016   -5.5089   64.5038 N   0  0  0  0  0  0
  -15.2606   -5.0058   58.8143 N   0  0  3  0  0  0
  -13.8434   -4.7437   59.2390 C   0  0  0  0  0  0
  -15.7479   -4.6932   57.1247 S   0  0  0  0  0  0
  -14.5705   -4.4707   56.2829 O   0  0  0  0  0  0
  -16.6985   -5.7592   56.7754 O   0  0  0  0  0  0
  -16.6367   -3.0265   57.1581 C   0  0  0  0  0  0
  -17.7334   -4.3254   62.3685 H   0  0  0  0  0  0
  -12.7438   -5.3692   58.3569 C   0  0  0  0  0  0
  -13.0114   -6.7584   57.7468 C   0  0  0  0  0  0
  -11.9082   -7.1299   56.7523 C   0  0  0  0  0  0
  -11.8653   -6.2852   55.7279 F   0  0  0  0  0  0
  -12.1173   -8.3304   56.2426 F   0  0  0  0  0  0
  -10.7091   -7.1092   57.3280 F   0  0  0  0  0  0
  -25.2652   -7.1161   63.2347 H   0  0  0  0  0  0
  -24.1235   -5.6947   61.5536 H   0  0  0  0  0  0
  -21.4764   -8.5310   64.6252 H   0  0  0  0  0  0
  -19.6047   -7.5036   61.9923 H   0  0  0  0  0  0
  -19.4363   -7.7972   63.6754 H   0  0  0  0  0  0
  -19.9869   -4.9160   63.0410 H   0  0  0  0  0  0
  -17.1513   -7.2956   61.9148 H   0  0  0  0  0  0
  -16.4527   -6.3090   63.1534 H   0  0  0  0  0  0
  -14.9183   -6.4142   61.2674 H   0  0  0  0  0  0
  -15.4696   -4.7645   61.5469 H   0  0  0  0  0  0
  -16.4923   -6.6565   59.4032 H   0  0  0  0  0  0
  -17.3416   -3.7323   59.8846 H   0  0  0  0  0  0
  -18.0429   -4.8374   58.7104 H   0  0  0  0  0  0
  -19.4765   -4.5487   60.6532 H   0  0  0  0  0  0
  -19.0600   -6.2026   60.3593 H   0  0  0  0  0  0
  -17.9817   -6.2124   64.6770 H   0  0  0  0  0  0
  -18.2186   -4.6233   64.5536 H   0  0  0  0  0  0
  -13.6646   -5.1056   60.2463 H   0  0  0  0  0  0
  -13.7084   -3.6661   59.3365 H   0  0  0  0  0  0
  -16.6526   -2.6350   56.1421 H   0  0  0  0  0  0
  -17.6602   -3.1274   57.5062 H   0  0  0  0  0  0
  -16.0768   -2.3473   57.7987 H   0  0  0  0  0  0
  -11.8148   -5.3916   58.9281 H   0  0  0  0  0  0
  -12.5133   -4.7090   57.5352 H   0  0  0  0  0  0
  -13.9614   -6.7952   57.2185 H   0  0  0  0  0  0
  -13.1000   -7.5090   58.5280 H   0  0  0  0  0  0
  1  6  1  0  0  0
  1  2  2  0  0  0
  1 31  1  0  0  0
  2  3  1  0  0  0
  2 32  1  0  0  0
  3  8  1  0  0  0
  3  4  2  0  0  0
  4  9  1  0  0  0
  4  5  1  0  0  0
  5  6  2  0  0  0
  5 33  1  0  0  0
  6  7  1  0  0  0
  9 10  1  0  0  0
  9 34  1  0  0  0
  9 35  1  0  0  0
 10 17  1  0  0  0
 10 11  1  0  0  0
 10 36  1  0  0  0
 11 12  1  0  0  0
 11 24  1  0  0  0
 11 16  1  0  0  0
 12 13  1  0  0  0
 12 37  1  0  0  0
 12 38  1  0  0  0
 13 14  1  0  0  0
 13 39  1  0  0  0
 13 40  1  0  0  0
 14 15  1  0  0  0
 14 18  1  0  0  0
 14 41  1  0  0  0
 15 16  1  0  0  0
 15 42  1  0  0  0
 15 43  1  0  0  0
 16 44  1  0  0  0
 16 45  1  0  0  0
 17 46  1  0  0  0
 17 47  1  0  0  0
 18 19  1  0  0  0
 18 20  1  0  0  0
 19 25  1  0  0  0
 19 48  1  0  0  0
 19 49  1  0  0  0
 20 21  2  0  0  0
 20 22  2  0  0  0
 20 23  1  0  0  0
 23 50  1  0  0  0
 23 51  1  0  0  0
 23 52  1  0  0  0
 25 26  1  0  0  0
 25 53  1  0  0  0
 25 54  1  0  0  0
 26 27  1  0  0  0
 26 55  1  0  0  0
 26 56  1  0  0  0
 27 28  1  0  0  0
 27 29  1  0  0  0
 27 30  1  0  0  0
M  END
> <s_m_entry_id>
3122

> <s_m_entry_name>
dock_pv.6

> <s_m_Source_Path>
/home/csk/Desktop/cluster/DUD-E-result/dpp4

> <s_m_Source_File>
dock_pv.maegz

> <i_m_Source_File_Index>
6

> <chembl_id>
CHEMBL1683097

> <chembl_pref_name>
None

> <i_lp_mmshare_version>
53161

> <r_lp_tautomer_probability>
1

> <s_lp_Force_Field>
OPLS_2005

> <r_lp_Energy>
10.672126

> <b_lp_Chiralities_Consistent>
1

> <s_lp_Variant>
CHEMBL284_lig2141-1

> <s_i_glide_gridfile>
glide-grid_2i78

> <i_i_glide_lignum>
2770

> <i_i_glide_rotatable_bonds>
9

> <r_i_docking_score>
-7.24071954863173

> <r_i_glide_ligand_efficiency>
-0.249679984435577

> <r_i_glide_ligand_efficiency_sa>
-0.76709601635739

> <r_i_glide_ligand_efficiency_ln>
-1.65794116783111

> <r_i_glide_gscore>
-7.24071954863173

> <r_i_glide_lipo>
-1.26667074669164

> <r_i_glide_hbond>
-0.592215335314408

> <r_i_glide_metal>
0

> <r_i_glide_rewards>
-1.85038574234655

> <r_i_glide_evdw>
-24.9741058349609

> <r_i_glide_ecoul>
-18.6602230072021

> <r_i_glide_erotb>
0.714451377969672

> <r_i_glide_esite>
-0.198160359420432

> <r_i_glide_emodel>
-57.0698180241605

> <r_i_glide_energy>
-43.6343288421631

> <r_i_glide_einternal>
13.2177400588989

> <i_i_glide_confnum>
36

> <i_i_glide_posenum>
209

> <r_i_glide_eff_state_penalty>
0

> <s_user_duplicate_titles>
CHEMBL284_lig2141

> <i_f3d_flags>
0

> <s_m_subgroup_title>
dock_pv

> <s_m_subgroupid>
dock_pv

> <b_m_subgroup_collapsed>
1

$$$$
CHEMBL284_lig1087
                    3D
 Schrodinger Suite 2021-1.
 47 50  0  0  1  0            999 V2000
  -21.4370   -3.8936   60.1490 C   0  0  0  0  0  0
  -21.6309   -4.9449   60.9808 N   0  0  0  0  0  0
  -20.5662   -5.7651   61.2228 C   0  0  0  0  0  0
  -19.3326   -5.5201   60.5991 C   0  0  0  0  0  0
  -19.2243   -4.4116   59.7482 C   0  0  0  0  0  0
  -20.2761   -3.5770   59.5295 N   0  0  0  0  0  0
  -20.7826   -6.8853   62.2037 C   0  0  0  0  0  0
  -22.0178   -7.0472   62.8556 C   0  0  0  0  0  0
  -22.2177   -8.0454   63.8106 C   0  0  0  0  0  0
  -21.1788   -8.9226   64.1264 C   0  0  0  0  0  0
  -19.9536   -8.7961   63.4791 C   0  0  0  0  0  0
  -19.7587   -7.7923   62.5321 C   0  0  0  0  0  0
  -16.2592   -2.9662   57.9158 C   0  0  2  0  0  0
  -16.0040   -4.4663   57.8665 C   0  0  2  0  0  0
  -16.8535   -4.9825   59.0233 C   0  0  0  0  0  0
  -18.0150   -4.0959   59.1165 N   0  0  0  0  0  0
  -17.7512   -2.9437   58.2456 C   0  0  0  0  0  0
  -14.5724   -4.9957   57.8078 C   0  0  0  0  0  0
  -14.2829   -6.0470   56.9279 C   0  0  0  0  0  0
  -12.9810   -6.5132   56.7872 C   0  0  0  0  0  0
  -11.9595   -5.9354   57.5264 C   0  0  0  0  0  0
  -12.2381   -4.9372   58.4580 C   0  0  0  0  0  0
  -13.5434   -4.4685   58.6055 C   0  0  0  0  0  0
  -16.4674   -4.8444   56.9523 H   0  0  0  0  0  0
  -13.7878   -3.4925   59.5091 F   0  0  0  0  0  0
  -12.6991   -7.5095   55.9192 F   0  0  0  0  0  0
  -10.7001   -6.3601   57.3284 F   0  0  0  0  0  0
  -23.5214   -8.1280   64.5282 C   0  0  0  0  0  0
  -24.4982   -8.7079   64.0623 O   0  0  0  0  0  0
  -23.4999   -7.5108   65.7402 O   0  0  0  0  0  0
  -15.8997   -2.2182   56.7246 N   0  0  0  0  0  0
  -22.2824   -3.2448   59.9719 H   0  0  0  0  0  0
  -18.4725   -6.1428   60.7768 H   0  0  0  0  0  0
  -22.8327   -6.3710   62.6368 H   0  0  0  0  0  0
  -21.3048   -9.6946   64.8741 H   0  0  0  0  0  0
  -19.1459   -9.4693   63.7239 H   0  0  0  0  0  0
  -18.7832   -7.7316   62.0772 H   0  0  0  0  0  0
  -15.7406   -2.5197   58.7647 H   0  0  0  0  0  0
  -16.2682   -4.9743   59.9449 H   0  0  0  0  0  0
  -17.1177   -6.0198   58.8121 H   0  0  0  0  0  0
  -18.3729   -2.9865   57.3494 H   0  0  0  0  0  0
  -18.0058   -2.0341   58.7907 H   0  0  0  0  0  0
  -15.0590   -6.5000   56.3286 H   0  0  0  0  0  0
  -11.4429   -4.5108   59.0519 H   0  0  0  0  0  0
  -22.6206   -7.1300   65.8916 H   0  0  0  0  0  0
  -16.3035   -1.2936   56.7696 H   0  0  0  0  0  0
  -14.8980   -2.0827   56.7083 H   0  0  0  0  0  0
  1  2  1  0  0  0
  1  6  2  0  0  0
  1 32  1  0  0  0
  2  3  2  0  0  0
  3  4  1  0  0  0
  3  7  1  0  0  0
  4  5  2  0  0  0
  4 33  1  0  0  0
  5 16  1  0  0  0
  5  6  1  0  0  0
  7  8  2  0  0  0
  7 12  1  0  0  0
  8  9  1  0  0  0
  8 34  1  0  0  0
  9 10  2  0  0  0
  9 28  1  0  0  0
 10 11  1  0  0  0
 10 35  1  0  0  0
 11 12  2  0  0  0
 11 36  1  0  0  0
 12 37  1  0  0  0
 13 14  1  0  0  0
 13 17  1  0  0  0
 13 31  1  0  0  0
 13 38  1  0  0  0
 14 15  1  0  0  0
 14 18  1  0  0  0
 14 24  1  0  0  0
 15 16  1  0  0  0
 15 39  1  0  0  0
 15 40  1  0  0  0
 16 17  1  0  0  0
 17 41  1  0  0  0
 17 42  1  0  0  0
 18 19  2  0  0  0
 18 23  1  0  0  0
 19 20  1  0  0  0
 19 43  1  0  0  0
 20 21  2  0  0  0
 20 26  1  0  0  0
 21 22  1  0  0  0
 21 27  1  0  0  0
 22 23  2  0  0  0
 22 44  1  0  0  0
 23 25  1  0  0  0
 28 29  2  0  0  0
 28 30  1  0  0  0
 30 45  1  0  0  0
 31 46  1  0  0  0
 31 47  1  0  0  0
M  END
> <s_m_entry_id>
3123

> <s_m_entry_name>
dock_pv.7

> <s_m_Source_Path>
/home/csk/Desktop/cluster/DUD-E-result/dpp4

> <s_m_Source_File>
dock_pv.maegz

> <i_m_Source_File_Index>
7

> <chembl_id>
CHEMBL236508

> <chembl_pref_name>
None

> <i_lp_mmshare_version>
53161

> <r_lp_tautomer_probability>
1

> <s_lp_Force_Field>
OPLS_2005

> <r_lp_Energy>
34.620614

> <b_lp_Chiralities_Consistent>
1

> <s_lp_Variant>
CHEMBL284_lig1087-1

> <s_i_glide_gridfile>
glide-grid_2i78

> <i_i_glide_lignum>
1309

> <i_i_glide_rotatable_bonds>
5

> <r_i_docking_score>
-7.18490974929878

> <r_i_glide_ligand_efficiency>
-0.239496991643293

> <r_i_glide_ligand_efficiency_sa>
-0.744172836668506

> <r_i_glide_ligand_efficiency_ln>
-1.63248978090261

> <r_i_glide_gscore>
-7.18490974929878

> <r_i_glide_lipo>
-2.635860130356

> <r_i_glide_hbond>
-0.0697965251795189

> <r_i_glide_metal>
0

> <r_i_glide_rewards>
-1.76547284855506

> <r_i_glide_evdw>
-40.2389335632324

> <r_i_glide_ecoul>
-7.32530832290649

> <r_i_glide_erotb>
0.459771757385988

> <r_i_glide_esite>
-0.0628090759965996

> <r_i_glide_emodel>
-61.676799483398

> <r_i_glide_energy>
-47.5642418861389

> <r_i_glide_einternal>
10.3721046447754

> <i_i_glide_confnum>
45

> <i_i_glide_posenum>
367

> <r_i_glide_eff_state_penalty>
0

> <s_user_duplicate_titles>
CHEMBL284_lig1087

> <i_f3d_flags>
0

> <s_m_subgroup_title>
dock_pv

> <s_m_subgroupid>
dock_pv

> <b_m_subgroup_collapsed>
1

$$$$
CHEMBL284_lig910
                    3D
 Schrodinger Suite 2021-1.
 46 49  0  0  1  0            999 V2000
  -12.1844   -5.7472   57.4775 C   0  0  0  0  0  0
  -12.3120   -4.8288   58.5108 C   0  0  0  0  0  0
  -13.5423   -4.6397   59.1297 C   0  0  0  0  0  0
  -14.6475   -5.4241   58.7633 C   0  0  0  0  0  0
  -14.4995   -6.3532   57.7239 C   0  0  0  0  0  0
  -13.2705   -6.5133   57.0866 C   0  0  0  0  0  0
  -13.1027   -7.4453   56.1282 F   0  0  0  0  0  0
  -11.0018   -5.9092   56.8603 F   0  0  0  0  0  0
  -13.6303   -3.7357   60.1270 F   0  0  0  0  0  0
  -15.9040   -5.4431   59.6484 C   0  0  1  0  0  0
  -17.2505   -5.3085   58.9293 C   0  0  0  0  0  0
  -18.4207   -5.3202   59.9471 C   0  0  0  0  0  0
  -18.4670   -6.4647   60.8927 N   0  0  0  0  0  0
  -17.1398   -6.7907   61.4650 C   0  0  0  0  0  0
  -15.9522   -6.7199   60.4937 C   0  0  2  0  0  0
  -14.7000   -7.0858   61.1165 N   0  0  0  0  0  0
  -19.6161   -6.7361   61.6571 C   0  0  0  0  0  0
  -19.6446   -7.7424   62.6490 C   0  0  0  0  0  0
  -20.8315   -8.0306   63.3276 C   0  0  0  0  0  0
  -20.7509   -6.0347   61.3554 N   0  0  0  0  0  0
  -21.8946   -6.3092   62.0365 C   0  0  0  0  0  0
  -21.9815   -7.3122   63.0141 C   0  0  0  0  0  0
  -23.1962   -7.6261   63.6568 N   0  0  0  0  0  0
  -24.2495   -6.9438   63.3764 C   0  0  0  0  0  0
  -24.2210   -5.9310   62.4492 N   0  0  0  0  0  0
  -23.1472   -5.5097   61.7263 C   0  0  0  0  0  0
  -23.2437   -4.5855   60.9207 O   0  0  0  0  0  0
  -25.5745   -7.2670   64.0303 C   0  0  0  0  0  0
  -11.4373   -4.3087   58.8496 H   0  0  0  0  0  0
  -15.3012   -7.0224   57.4611 H   0  0  0  0  0  0
  -15.8200   -4.5935   60.3296 H   0  0  0  0  0  0
  -17.4121   -6.0908   58.1874 H   0  0  0  0  0  0
  -17.2878   -4.3550   58.4009 H   0  0  0  0  0  0
  -19.3428   -5.3198   59.3637 H   0  0  0  0  0  0
  -18.4233   -4.3961   60.5272 H   0  0  0  0  0  0
  -16.9981   -6.1324   62.3248 H   0  0  0  0  0  0
  -17.2230   -7.8445   61.7232 H   0  0  0  0  0  0
  -16.1218   -7.5402   59.7951 H   0  0  0  0  0  0
  -13.9375   -6.8271   60.5010 H   0  0  0  0  0  0
  -14.5716   -6.4963   61.9368 H   0  0  0  0  0  0
  -18.7728   -8.3182   62.9135 H   0  0  0  0  0  0
  -20.8563   -8.8033   64.0826 H   0  0  0  0  0  0
  -25.0716   -5.4243   62.2630 H   0  0  0  0  0  0
  -26.1959   -7.8652   63.3642 H   0  0  0  0  0  0
  -26.1267   -6.3611   64.2819 H   0  0  0  0  0  0
  -25.4382   -7.8315   64.9521 H   0  0  0  0  0  0
  1  8  1  0  0  0
  1  6  1  0  0  0
  1  2  2  0  0  0
  2  3  1  0  0  0
  2 29  1  0  0  0
  3  4  2  0  0  0
  3  9  1  0  0  0
  4 10  1  0  0  0
  4  5  1  0  0  0
  5  6  2  0  0  0
  5 30  1  0  0  0
  6  7  1  0  0  0
 10 11  1  0  0  0
 10 15  1  0  0  0
 10 31  1  0  0  0
 11 12  1  0  0  0
 11 32  1  0  0  0
 11 33  1  0  0  0
 12 13  1  0  0  0
 12 34  1  0  0  0
 12 35  1  0  0  0
 13 14  1  0  0  0
 13 17  1  0  0  0
 14 15  1  0  0  0
 14 36  1  0  0  0
 14 37  1  0  0  0
 15 16  1  0  0  0
 15 38  1  0  0  0
 16 39  1  0  0  0
 16 40  1  0  0  0
 17 18  2  0  0  0
 17 20  1  0  0  0
 18 19  1  0  0  0
 18 41  1  0  0  0
 19 22  2  0  0  0
 19 42  1  0  0  0
 20 21  2  0  0  0
 21 22  1  0  0  0
 21 26  1  0  0  0
 22 23  1  0  0  0
 23 24  2  0  0  0
 24 25  1  0  0  0
 24 28  1  0  0  0
 25 26  1  0  0  0
 25 43  1  0  0  0
 26 27  2  0  0  0
 28 44  1  0  0  0
 28 45  1  0  0  0
 28 46  1  0  0  0
M  END
> <s_m_entry_id>
3124

> <s_m_entry_name>
dock_pv.8

> <s_m_Source_Path>
/home/csk/Desktop/cluster/DUD-E-result/dpp4

> <s_m_Source_File>
dock_pv.maegz

> <i_m_Source_File_Index>
8

> <chembl_id>
CHEMBL231395

> <chembl_pref_name>
None

> <i_lp_mmshare_version>
53161

> <r_lp_tautomer_probability>
1

> <s_lp_Force_Field>
OPLS_2005

> <r_lp_Energy>
37.858987

> <b_lp_Chiralities_Consistent>
1

> <s_lp_Variant>
CHEMBL284_lig910-1

> <s_i_glide_gridfile>
glide-grid_2i78

> <i_i_glide_lignum>
1112

> <i_i_glide_rotatable_bonds>
2

> <r_i_docking_score>
-7.11667686000326

> <r_i_glide_ligand_efficiency>
-0.254167030714402

> <r_i_glide_ligand_efficiency_sa>
-0.77180080162447

> <r_i_glide_ligand_efficiency_ln>
-1.64273797400101

> <r_i_glide_gscore>
-7.11667686000326

> <r_i_glide_lipo>
-2.15821441959992

> <r_i_glide_hbond>
-0.503820843526432

> <r_i_glide_metal>
0

> <r_i_glide_rewards>
-1.93682900893043

> <r_i_glide_evdw>
-34.2487754821777

> <r_i_glide_ecoul>
-6.78593635559082

> <r_i_glide_erotb>
0.257150622813103

> <r_i_glide_esite>
-0.0446339833120613

> <r_i_glide_emodel>
-56.2327464910943

> <r_i_glide_energy>
-41.0347118377686

> <r_i_glide_einternal>
5.83373308181763

> <i_i_glide_confnum>
2

> <i_i_glide_posenum>
2

> <r_i_glide_eff_state_penalty>
0

> <s_user_duplicate_titles>
CHEMBL284_lig910,385314

> <i_f3d_flags>
0

> <s_m_subgroup_title>
dock_pv

> <s_m_subgroupid>
dock_pv

> <b_m_subgroup_collapsed>
1

$$$$
CHEMBL284_lig2014
                    3D
 Schrodinger Suite 2021-1.
 49 51  0  0  1  0            999 V2000
  -16.3796   -2.0269   57.3597 N   0  0  0  0  0  0
  -16.9013   -1.5634   58.5428 C   0  0  0  0  0  0
  -17.0391   -2.5960   59.5389 C   0  0  0  0  0  0
  -16.7630   -3.8897   59.2694 C   0  0  0  0  0  0
  -16.1931   -4.2606   58.0466 N   0  0  0  0  0  0
  -15.9005   -3.2949   57.0867 C   0  0  0  0  0  0
  -16.9855   -4.8971   60.2151 N   0  0  0  0  0  0
  -15.1444   -3.5086   56.1278 O   0  0  0  0  0  0
  -15.6069   -5.5984   57.7434 C   0  0  0  0  0  0
  -14.0765   -5.7905   57.7077 C   0  0  0  0  0  0
  -13.1003   -4.9672   58.3172 C   0  0  0  0  0  0
  -11.7445   -5.2317   58.1174 C   0  0  0  0  0  0
  -11.3436   -6.3049   57.3279 C   0  0  0  0  0  0
  -12.2881   -7.1270   56.7419 C   0  0  0  0  0  0
  -13.6352   -6.8639   56.9291 C   0  0  0  0  0  0
  -17.8055   -6.0983   59.9516 C   0  0  0  0  0  0
  -19.0935   -6.1354   60.8038 C   0  0  0  0  0  0
  -18.7864   -5.9797   62.3036 C   0  0  0  0  0  0
  -17.9554   -4.7112   62.5914 C   0  0  2  0  0  0
  -16.6998   -4.7357   61.6612 C   0  0  0  0  0  0
  -17.5458   -4.7091   63.9822 N   0  0  0  0  0  0
  -17.2664   -0.4108   58.7786 O   0  0  0  0  0  0
  -16.2503   -1.0433   56.2637 C   0  0  0  0  0  0
  -13.3969   -3.7932   59.1158 C   0  0  0  0  0  0
  -13.6304   -2.8440   59.7280 N   0  0  0  0  0  0
  -11.9004   -8.1817   55.9956 F   0  0  0  0  0  0
  -18.8176   -3.4484   62.3748 C   0  0  0  0  0  0
  -17.4337   -2.2953   60.4923 H   0  0  0  0  0  0
  -15.9843   -5.8762   56.7583 H   0  0  0  0  0  0
  -15.9760   -6.3663   58.4137 H   0  0  0  0  0  0
  -10.9911   -4.5988   58.5649 H   0  0  0  0  0  0
  -10.3000   -6.5197   57.1936 H   0  0  0  0  0  0
  -14.3383   -7.5086   56.4314 H   0  0  0  0  0  0
  -18.1018   -6.1034   58.9018 H   0  0  0  0  0  0
  -17.1551   -6.9646   60.0835 H   0  0  0  0  0  0
  -19.7764   -5.3519   60.4731 H   0  0  0  0  0  0
  -19.6162   -7.0774   60.6314 H   0  0  0  0  0  0
  -19.6978   -6.0034   62.9047 H   0  0  0  0  0  0
  -18.2064   -6.8573   62.5981 H   0  0  0  0  0  0
  -15.9194   -5.4393   61.9550 H   0  0  0  0  0  0
  -16.1862   -3.7841   61.7930 H   0  0  0  0  0  0
  -17.1006   -5.5963   64.2096 H   0  0  0  0  0  0
  -16.8375   -4.0021   64.1227 H   0  0  0  0  0  0
  -16.7641   -0.0990   56.4540 H   0  0  0  0  0  0
  -15.1993   -0.8139   56.0807 H   0  0  0  0  0  0
  -16.6713   -1.4420   55.3379 H   0  0  0  0  0  0
  -19.1892   -3.3591   61.3558 H   0  0  0  0  0  0
  -19.6895   -3.4522   63.0305 H   0  0  0  0  0  0
  -18.2597   -2.5415   62.6117 H   0  0  0  0  0  0
  1  2  1  0  0  0
  1  6  1  0  0  0
  1 23  1  0  0  0
  2  3  1  0  0  0
  2 22  2  0  0  0
  3  4  2  0  0  0
  3 28  1  0  0  0
  4  7  1  0  0  0
  4  5  1  0  0  0
  5  9  1  0  0  0
  5  6  1  0  0  0
  6  8  2  0  0  0
  7 16  1  0  0  0
  7 20  1  0  0  0
  9 10  1  0  0  0
  9 29  1  0  0  0
  9 30  1  0  0  0
 10 15  1  0  0  0
 10 11  2  0  0  0
 11 12  1  0  0  0
 11 24  1  0  0  0
 12 13  2  0  0  0
 12 31  1  0  0  0
 13 14  1  0  0  0
 13 32  1  0  0  0
 14 15  2  0  0  0
 14 26  1  0  0  0
 15 33  1  0  0  0
 16 17  1  0  0  0
 16 34  1  0  0  0
 16 35  1  0  0  0
 17 18  1  0  0  0
 17 36  1  0  0  0
 17 37  1  0  0  0
 18 19  1  0  0  0
 18 38  1  0  0  0
 18 39  1  0  0  0
 19 20  1  0  0  0
 19 21  1  0  0  0
 19 27  1  0  0  0
 20 40  1  0  0  0
 20 41  1  0  0  0
 21 42  1  0  0  0
 21 43  1  0  0  0
 23 44  1  0  0  0
 23 45  1  0  0  0
 23 46  1  0  0  0
 24 25  3  0  0  0
 27 47  1  0  0  0
 27 48  1  0  0  0
 27 49  1  0  0  0
M  END
> <s_m_entry_id>
3125

> <s_m_entry_name>
dock_pv.9

> <s_m_Source_Path>
/home/csk/Desktop/cluster/DUD-E-result/dpp4

> <s_m_Source_File>
dock_pv.maegz

> <i_m_Source_File_Index>
9

> <chembl_id>
CHEMBL1650449

> <chembl_pref_name>
None

> <i_lp_mmshare_version>
53161

> <r_lp_tautomer_probability>
1

> <s_lp_Force_Field>
OPLS_2005

> <r_lp_Energy>
40.053589

> <b_lp_Chiralities_Consistent>
1

> <s_lp_Variant>
CHEMBL284_lig2014-1

> <s_i_glide_gridfile>
glide-grid_2i78

> <i_i_glide_lignum>
2585

> <i_i_glide_rotatable_bonds>
3

> <r_i_docking_score>
-7.04812513562715

> <r_i_glide_ligand_efficiency>
-0.261041671689894

> <r_i_glide_ligand_efficiency_sa>
-0.783125014209332

> <r_i_glide_ligand_efficiency_ln>
-1.64068733414982

> <r_i_glide_gscore>
-7.04812513562715

> <r_i_glide_lipo>
-1.90779950571607

> <r_i_glide_hbond>
-0.435567272092417

> <r_i_glide_metal>
0

> <r_i_glide_rewards>
-2.38842309520215

> <r_i_glide_evdw>
-32.3000068664551

> <r_i_glide_ecoul>
-7.46087694168091

> <r_i_glide_erotb>
0.419795432227879

> <r_i_glide_esite>
-0.00199881026950002

> <r_i_glide_emodel>
-51.5901164284578

> <r_i_glide_energy>
-39.760883808136

> <r_i_glide_einternal>
10.41237449646

> <i_i_glide_confnum>
23

> <i_i_glide_posenum>
146

> <r_i_glide_eff_state_penalty>
0

> <s_user_duplicate_titles>
CHEMBL284_lig2014

> <i_f3d_flags>
0

> <s_m_subgroup_title>
dock_pv

> <s_m_subgroupid>
dock_pv

> <b_m_subgroup_collapsed>
1

$$$$
CHEMBL284_lig529
                    3D
 Schrodinger Suite 2021-1.
 53 56  0  0  1  0            999 V2000
  -13.7792   -5.1019   58.0728 N   0  0  0  0  0  0
  -14.7116   -4.2146   58.5290 C   0  0  0  0  0  0
  -23.9262   -7.5729   63.3361 C   0  0  0  0  0  0
  -24.5821   -6.7409   62.5281 N   0  0  0  0  0  0
  -16.1937   -4.1837   58.0035 C   0  0  2  0  0  0
  -24.6841   -8.3093   64.1322 N   0  0  0  0  0  0
  -25.9113   -7.9136   63.8002 N   0  0  0  0  0  0
  -17.2114   -3.4028   58.9223 C   0  0  2  0  0  0
  -22.4228   -7.6795   63.3337 C   0  0  0  0  0  0
  -25.8345   -6.9642   62.8257 C   0  0  0  0  0  0
  -21.6420   -6.8385   62.5278 C   0  0  0  0  0  0
  -16.6992   -5.5131   57.5900 N   0  0  0  0  0  0
  -20.2404   -6.9204   62.4949 C   0  0  0  0  0  0
  -13.9550   -6.1929   57.0981 C   0  0  0  0  0  0
  -12.3789   -4.9736   58.5017 C   0  0  0  0  0  0
  -18.0028   -4.3316   59.8653 C   0  0  0  0  0  0
  -14.3908   -3.3310   59.3309 O   0  0  0  0  0  0
  -19.4458   -6.0305   61.5911 C   0  0  0  0  0  0
  -17.4642   -4.7082   61.0997 C   0  0  0  0  0  0
  -19.2539   -4.8276   59.4901 C   0  0  0  0  0  0
  -19.9650   -5.6589   60.3463 C   0  0  0  0  0  0
  -18.1782   -5.5519   61.9528 C   0  0  0  0  0  0
  -11.6059   -5.7536   57.4453 C   0  0  0  0  0  0
  -12.5698   -6.8239   56.9884 C   0  0  2  0  0  0
  -12.3012   -7.1574   55.7271 F   0  0  0  0  0  0
  -21.7662   -8.6270   64.1288 C   0  0  0  0  0  0
  -19.6189   -7.8674   63.3198 C   0  0  0  0  0  0
  -18.1107   -2.4489   58.1022 C   0  0  0  0  0  0
  -20.3780   -8.7138   64.1272 C   0  0  0  0  0  0
  -16.0781   -3.5969   57.0913 H   0  0  0  0  0  0
  -26.7538   -8.2755   64.2262 H   0  0  0  0  0  0
  -16.6790   -2.7219   59.5877 H   0  0  0  0  0  0
  -26.7183   -6.4990   62.4126 H   0  0  0  0  0  0
  -22.1383   -6.0976   61.9200 H   0  0  0  0  0  0
  -15.9329   -6.1620   57.4923 H   0  0  0  0  0  0
  -17.2924   -5.8693   58.3322 H   0  0  0  0  0  0
  -14.2593   -5.7931   56.1320 H   0  0  0  0  0  0
  -14.6365   -6.9715   57.4394 H   0  0  0  0  0  0
  -12.2563   -5.4453   59.4720 H   0  0  0  0  0  0
  -12.0327   -3.9371   58.5289 H   0  0  0  0  0  0
  -16.4902   -4.3508   61.4053 H   0  0  0  0  0  0
  -19.6879   -4.5807   58.5323 H   0  0  0  0  0  0
  -20.9269   -6.0274   60.0225 H   0  0  0  0  0  0
  -17.7417   -5.8190   62.9049 H   0  0  0  0  0  0
  -10.7000   -6.1835   57.8617 H   0  0  0  0  0  0
  -11.3150   -5.1092   56.6137 H   0  0  0  0  0  0
  -12.4843   -7.7208   57.6017 H   0  0  0  0  0  0
  -22.3252   -9.2957   64.7670 H   0  0  0  0  0  0
  -18.5419   -7.9616   63.3300 H   0  0  0  0  0  0
  -18.8268   -1.9303   58.7409 H   0  0  0  0  0  0
  -17.5154   -1.6882   57.5959 H   0  0  0  0  0  0
  -18.6724   -2.9783   57.3339 H   0  0  0  0  0  0
  -19.8999   -9.4472   64.7566 H   0  0  0  0  0  0
  1  2  1  0  0  0
  1 14  1  0  0  0
  1 15  1  0  0  0
  2  5  1  0  0  0
  2 17  2  0  0  0
  3  9  1  0  0  0
  3  4  1  0  0  0
  3  6  2  0  0  0
  4 10  2  0  0  0
  5  8  1  0  0  0
  5 12  1  0  0  0
  5 30  1  0  0  0
  6  7  1  0  0  0
  7 10  1  0  0  0
  7 31  1  0  0  0
  8 16  1  0  0  0
  8 28  1  0  0  0
  8 32  1  0  0  0
  9 11  2  0  0  0
  9 26  1  0  0  0
 10 33  1  0  0  0
 11 13  1  0  0  0
 11 34  1  0  0  0
 12 35  1  0  0  0
 12 36  1  0  0  0
 13 18  1  0  0  0
 13 27  2  0  0  0
 14 24  1  0  0  0
 14 37  1  0  0  0
 14 38  1  0  0  0
 15 23  1  0  0  0
 15 39  1  0  0  0
 15 40  1  0  0  0
 16 19  1  0  0  0
 16 20  2  0  0  0
 18 22  1  0  0  0
 18 21  2  0  0  0
 19 22  2  0  0  0
 19 41  1  0  0  0
 20 21  1  0  0  0
 20 42  1  0  0  0
 21 43  1  0  0  0
 22 44  1  0  0  0
 23 24  1  0  0  0
 23 45  1  0  0  0
 23 46  1  0  0  0
 24 25  1  0  0  0
 24 47  1  0  0  0
 26 29  2  0  0  0
 26 48  1  0  0  0
 27 29  1  0  0  0
 27 49  1  0  0  0
 28 50  1  0  0  0
 28 51  1  0  0  0
 28 52  1  0  0  0
 29 53  1  0  0  0
M  END
> <s_m_entry_id>
3126

> <s_m_entry_name>
dock_pv.10

> <s_m_Source_Path>
/home/csk/Desktop/cluster/DUD-E-result/dpp4

> <s_m_Source_File>
dock_pv.maegz

> <i_m_Source_File_Index>
10

> <chembl_id>
CHEMBL190979

> <chembl_pref_name>
None

> <i_lp_mmshare_version>
53161

> <r_lp_tautomer_probability>
0.948284485345604

> <s_lp_Force_Field>
OPLS_2005

> <r_lp_Energy>
48.824527

> <b_lp_Chiralities_Consistent>
1

> <s_lp_Variant>
CHEMBL284_lig529-1

> <s_i_glide_gridfile>
glide-grid_2i78

> <i_i_glide_lignum>
695

> <i_i_glide_rotatable_bonds>
6

> <r_i_docking_score>
-6.99892752720537

> <r_i_glide_ligand_efficiency>
-0.241342328524323

> <r_i_glide_ligand_efficiency_sa>
-0.741480095843218

> <r_i_glide_ligand_efficiency_ln>
-1.60257692624112

> <r_i_glide_gscore>
-6.99892752720537

> <r_i_glide_lipo>
-2.56510109399423

> <r_i_glide_hbond>
-0.186098175558654

> <r_i_glide_metal>
0

> <r_i_glide_rewards>
-1.92593309765627

> <r_i_glide_evdw>
-39.2720603942871

> <r_i_glide_ecoul>
-6.58333730697632

> <r_i_glide_erotb>
0.630941329503318

> <r_i_glide_esite>
-0.00163287373873239

> <r_i_glide_emodel>
-61.7665223970697

> <r_i_glide_energy>
-45.8553977012634

> <r_i_glide_einternal>
7.03176355361938

> <i_i_glide_confnum>
13

> <i_i_glide_posenum>
53

> <r_i_glide_eff_state_penalty>
0

> <s_user_duplicate_titles>
CHEMBL284_lig529,322856

> <i_f3d_flags>
0

> <s_m_subgroup_title>
dock_pv

> <s_m_subgroupid>
dock_pv

> <b_m_subgroup_collapsed>
1

$$$$
CHEMBL284_lig768
                    3D
 Schrodinger Suite 2021-1.
 40 41  0  0  1  0            999 V2000
  -14.2512   -5.5496   57.8448 C   0  0  0  0  0  0
  -21.3457   -9.2869   64.2798 C   0  0  0  0  0  0
  -15.6970   -5.4390   58.0342 C   0  0  0  0  0  0
  -11.9104   -6.3081   56.8900 S   0  0  0  0  0  0
  -13.6400   -6.4105   56.9284 C   0  0  0  0  0  0
  -20.6614   -8.3731   63.3033 C   0  0  0  0  0  0
  -13.2538   -4.8190   58.5280 C   0  0  0  0  0  0
  -11.9618   -5.1090   58.1280 C   0  0  0  0  0  0
  -21.3646  -10.5048   64.1269 O   0  0  0  0  0  0
  -16.2324   -4.7185   59.2962 C   0  0  0  0  0  0
  -17.2551   -3.6966   59.0456 N   0  0  2  0  0  0
  -16.4847   -5.9092   57.2061 O   0  0  0  0  0  0
  -19.5005   -8.7976   62.6452 C   0  0  0  0  0  0
  -21.1883   -7.1086   63.0195 C   0  0  0  0  0  0
  -21.9228   -8.7090   65.3285 N   0  0  0  0  0  0
  -18.7934   -5.9970   60.4178 O   0  0  0  0  0  0
  -19.4335   -6.7260   61.3973 C   0  0  0  0  0  0
  -20.5793   -6.2899   62.0773 C   0  0  0  0  0  0
  -18.8922   -7.9756   61.7008 C   0  0  0  0  0  0
  -19.3145   -4.7211   60.0457 C   0  0  0  0  0  0
  -18.6090   -4.1895   58.7817 C   0  0  1  0  0  0
  -19.3828   -3.0116   58.1614 C   0  0  0  0  0  0
  -14.1387   -7.1095   56.2711 H   0  0  0  0  0  0
  -13.4477   -4.0830   59.2916 H   0  0  0  0  0  0
  -11.0560   -4.6694   58.5150 H   0  0  0  0  0  0
  -16.5797   -5.4675   60.0068 H   0  0  0  0  0  0
  -15.4190   -4.2066   59.8043 H   0  0  0  0  0  0
  -16.9733   -3.1103   58.2726 H   0  0  0  0  0  0
  -19.0700   -9.7642   62.8643 H   0  0  0  0  0  0
  -22.0821   -6.7513   63.5109 H   0  0  0  0  0  0
  -22.2991   -9.3135   66.0490 H   0  0  0  0  0  0
  -21.6559   -7.7583   65.5792 H   0  0  0  0  0  0
  -21.0184   -5.3254   61.8823 H   0  0  0  0  0  0
  -18.0012   -8.3090   61.1926 H   0  0  0  0  0  0
  -19.2180   -4.0136   60.8728 H   0  0  0  0  0  0
  -20.3765   -4.8246   59.8158 H   0  0  0  0  0  0
  -18.5789   -4.9979   58.0569 H   0  0  0  0  0  0
  -20.3786   -3.3250   57.8471 H   0  0  0  0  0  0
  -19.5003   -2.1874   58.8686 H   0  0  0  0  0  0
  -18.8799   -2.6203   57.2766 H   0  0  0  0  0  0
  1  3  1  0  0  0
  1  5  2  0  0  0
  1  7  1  0  0  0
  2  6  1  0  0  0
  2  9  2  0  0  0
  2 15  1  0  0  0
  3 10  1  0  0  0
  3 12  2  0  0  0
  4  5  1  0  0  0
  4  8  1  0  0  0
  5 23  1  0  0  0
  6 14  2  0  0  0
  6 13  1  0  0  0
  7  8  2  0  0  0
  7 24  1  0  0  0
  8 25  1  0  0  0
 10 11  1  0  0  0
 10 26  1  0  0  0
 10 27  1  0  0  0
 11 21  1  0  0  0
 11 28  1  0  0  0
 13 19  2  0  0  0
 13 29  1  0  0  0
 14 18  1  0  0  0
 14 30  1  0  0  0
 15 31  1  0  0  0
 15 32  1  0  0  0
 16 20  1  0  0  0
 16 17  1  0  0  0
 17 18  2  0  0  0
 17 19  1  0  0  0
 18 33  1  0  0  0
 19 34  1  0  0  0
 20 21  1  0  0  0
 20 35  1  0  0  0
 20 36  1  0  0  0
 21 22  1  0  0  0
 21 37  1  0  0  0
 22 38  1  0  0  0
 22 39  1  0  0  0
 22 40  1  0  0  0
M  END
> <s_m_entry_id>
3127

> <s_m_entry_name>
dock_pv.11

> <s_m_Source_Path>
/home/csk/Desktop/cluster/DUD-E-result/dpp4

> <s_m_Source_File>
dock_pv.maegz

> <i_m_Source_File_Index>
11

> <chembl_id>
CHEMBL553006

> <chembl_pref_name>
None

> <i_lp_mmshare_version>
53161

> <r_lp_tautomer_probability>
0.99990000499975

> <s_lp_Force_Field>
OPLS_2005

> <r_lp_Energy>
18.142046

> <b_lp_Chiralities_Consistent>
1

> <s_lp_Variant>
CHEMBL284_lig768-1

> <s_i_glide_gridfile>
glide-grid_2i78

> <i_i_glide_lignum>
961

> <i_i_glide_rotatable_bonds>
8

> <r_i_docking_score>
-6.98882862315959

> <r_i_glide_ligand_efficiency>
-0.317674028325436

> <r_i_glide_ligand_efficiency_sa>
-0.890135120778457

> <r_i_glide_ligand_efficiency_ln>
-1.70832463921818

> <r_i_glide_gscore>
-6.98882862315959

> <r_i_glide_lipo>
-1.91054340994411

> <r_i_glide_hbond>
-0.821376207602817

> <r_i_glide_metal>
0

> <r_i_glide_rewards>
-1.95777624941885

> <r_i_glide_evdw>
-37.2731971740723

> <r_i_glide_ecoul>
-9.80710220336914

> <r_i_glide_erotb>
1.10350038353177

> <r_i_glide_esite>
-0.0679079505165919

> <r_i_glide_emodel>
-62.9651421635193

> <r_i_glide_energy>
-47.0802993774414

> <r_i_glide_einternal>
7.38034057617188

> <i_i_glide_confnum>
48

> <i_i_glide_posenum>
257

> <r_i_glide_eff_state_penalty>
0

> <s_user_duplicate_titles>
CHEMBL284_lig768,553793

> <i_f3d_flags>
0

> <s_m_subgroup_title>
dock_pv

> <s_m_subgroupid>
dock_pv

> <b_m_subgroup_collapsed>
1

$$$$
CHEMBL284_lig415
                    3D
 Schrodinger Suite 2021-1.
 55 57  0  0  1  0            999 V2000
  -14.5001   -5.4234   57.5585 N   0  0  0  0  0  0
  -15.7536   -4.9134   57.5119 C   0  0  0  0  0  0
  -16.0154   -3.4857   58.0895 C   0  0  2  0  0  0
  -16.2215   -3.4620   59.6431 C   0  0  2  0  0  0
  -17.0973   -2.8194   57.3317 N   0  0  0  0  0  0
  -17.1940   -4.5054   60.2263 C   0  0  0  0  0  0
  -14.2077   -6.7213   56.9465 C   0  0  0  0  0  0
  -13.3312   -4.8433   58.2347 C   0  0  0  0  0  0
  -16.4491   -2.0259   60.2046 C   0  0  0  0  0  0
  -16.6899   -5.5443   57.0038 O   0  0  0  0  0  0
  -19.0200   -6.2321   61.4927 C   0  0  0  0  0  0
  -20.0312   -7.0408   62.2352 C   0  0  0  0  0  0
  -18.4347   -4.7770   59.6390 C   0  0  0  0  0  0
  -16.8519   -5.1498   61.4166 C   0  0  0  0  0  0
  -19.3358   -5.6322   60.2669 C   0  0  0  0  0  0
  -17.7526   -6.0049   62.0406 C   0  0  0  0  0  0
  -12.1673   -5.5860   57.5777 C   0  0  0  0  0  0
  -19.6504   -8.1457   63.0104 C   0  0  0  0  0  0
  -21.3826   -6.6690   62.2111 C   0  0  0  0  0  0
  -17.7610   -1.4354   59.8912 N   0  0  0  0  0  0
  -12.7447   -6.9534   57.2750 C   0  0  2  0  0  0
  -21.9248   -8.4438   63.7401 C   0  0  0  0  0  0
  -20.5934   -8.8467   63.7583 C   0  0  0  0  0  0
  -22.3254   -7.3633   62.9613 C   0  0  0  0  0  0
  -22.8382   -9.1069   64.4834 F   0  0  0  0  0  0
  -12.1199   -7.5140   56.2390 F   0  0  0  0  0  0
  -18.7283   -1.6479   60.9692 C   0  0  0  0  0  0
  -17.6458    0.0008   59.6491 C   0  0  0  0  0  0
  -15.1340   -2.8806   57.8785 H   0  0  0  0  0  0
  -15.2452   -3.7457   60.0399 H   0  0  0  0  0  0
  -17.7408   -3.5088   56.9586 H   0  0  0  0  0  0
  -17.6386   -2.2678   57.9944 H   0  0  0  0  0  0
  -14.3702   -6.7092   55.8695 H   0  0  0  0  0  0
  -14.7944   -7.5087   57.4117 H   0  0  0  0  0  0
  -13.3767   -5.0990   59.2954 H   0  0  0  0  0  0
  -13.2319   -3.7648   58.1279 H   0  0  0  0  0  0
  -16.3020   -2.0276   61.2862 H   0  0  0  0  0  0
  -15.6519   -1.3952   59.8070 H   0  0  0  0  0  0
  -18.7302   -4.2991   58.7194 H   0  0  0  0  0  0
  -15.9008   -4.9619   61.8931 H   0  0  0  0  0  0
  -20.2981   -5.8020   59.8060 H   0  0  0  0  0  0
  -17.4687   -6.4502   62.9829 H   0  0  0  0  0  0
  -11.2912   -5.6273   58.2264 H   0  0  0  0  0  0
  -11.8568   -5.1069   56.6492 H   0  0  0  0  0  0
  -18.6168   -8.4577   63.0478 H   0  0  0  0  0  0
  -21.7071   -5.8155   61.6351 H   0  0  0  0  0  0
  -12.6735   -7.6161   58.1287 H   0  0  0  0  0  0
  -20.2956   -9.6896   64.3641 H   0  0  0  0  0  0
  -23.3603   -7.0569   62.9533 H   0  0  0  0  0  0
  -19.7095   -1.2672   60.6839 H   0  0  0  0  0  0
  -18.8541   -2.7015   61.2069 H   0  0  0  0  0  0
  -18.4252   -1.1417   61.8879 H   0  0  0  0  0  0
  -18.6146    0.4298   59.3879 H   0  0  0  0  0  0
  -17.2648    0.5309   60.5237 H   0  0  0  0  0  0
  -16.9739    0.1985   58.8134 H   0  0  0  0  0  0
  1  2  1  0  0  0
  1  7  1  0  0  0
  1  8  1  0  0  0
  2  3  1  0  0  0
  2 10  2  0  0  0
  3  4  1  0  0  0
  3  5  1  0  0  0
  3 29  1  0  0  0
  4  6  1  0  0  0
  4  9  1  0  0  0
  4 30  1  0  0  0
  5 31  1  0  0  0
  5 32  1  0  0  0
  6 13  1  0  0  0
  6 14  2  0  0  0
  7 21  1  0  0  0
  7 33  1  0  0  0
  7 34  1  0  0  0
  8 17  1  0  0  0
  8 35  1  0  0  0
  8 36  1  0  0  0
  9 20  1  0  0  0
  9 37  1  0  0  0
  9 38  1  0  0  0
 11 16  2  0  0  0
 11 12  1  0  0  0
 11 15  1  0  0  0
 12 18  1  0  0  0
 12 19  2  0  0  0
 13 15  2  0  0  0
 13 39  1  0  0  0
 14 16  1  0  0  0
 14 40  1  0  0  0
 15 41  1  0  0  0
 16 42  1  0  0  0
 17 21  1  0  0  0
 17 43  1  0  0  0
 17 44  1  0  0  0
 18 23  2  0  0  0
 18 45  1  0  0  0
 19 24  1  0  0  0
 19 46  1  0  0  0
 20 27  1  0  0  0
 20 28  1  0  0  0
 21 26  1  0  0  0
 21 47  1  0  0  0
 22 23  1  0  0  0
 22 25  1  0  0  0
 22 24  2  0  0  0
 23 48  1  0  0  0
 24 49  1  0  0  0
 27 50  1  0  0  0
 27 51  1  0  0  0
 27 52  1  0  0  0
 28 53  1  0  0  0
 28 54  1  0  0  0
 28 55  1  0  0  0
M  END
> <s_m_entry_id>
3128

> <s_m_entry_name>
dock_pv.12

> <s_m_Source_Path>
/home/csk/Desktop/cluster/DUD-E-result/dpp4

> <s_m_Source_File>
dock_pv.maegz

> <i_m_Source_File_Index>
12

> <chembl_id>
CHEMBL189046

> <chembl_pref_name>
None

> <i_lp_mmshare_version>
53161

> <r_lp_tautomer_probability>
1

> <s_lp_Force_Field>
OPLS_2005

> <r_lp_Energy>
49.09933

> <b_lp_Chiralities_Consistent>
1

> <s_lp_Variant>
CHEMBL284_lig415-1

> <s_i_glide_gridfile>
glide-grid_2i78

> <i_i_glide_lignum>
569

> <i_i_glide_rotatable_bonds>
7

> <r_i_docking_score>
-6.97471589710161

> <r_i_glide_ligand_efficiency>
-0.249096996325057

> <r_i_glide_ligand_efficiency_sa>
-0.756405191127856

> <r_i_glide_ligand_efficiency_ln>
-1.60996921560832

> <r_i_glide_gscore>
-6.97471589710161

> <r_i_glide_lipo>
-2.10723952993437

> <r_i_glide_hbond>
-0.570922090306635

> <r_i_glide_metal>
0

> <r_i_glide_rewards>
-1.83408004344797

> <r_i_glide_evdw>
-31.310510635376

> <r_i_glide_ecoul>
-10.0969886779785

> <r_i_glide_erotb>
0.64857168810847

> <r_i_glide_esite>
-0.0309720880555243

> <r_i_glide_emodel>
-56.5767384038209

> <r_i_glide_energy>
-41.4074993133545

> <r_i_glide_einternal>
5.25256729125977

> <i_i_glide_confnum>
56

> <i_i_glide_posenum>
101

> <r_i_glide_eff_state_penalty>
0

> <s_user_duplicate_titles>
CHEMBL284_lig415

> <i_f3d_flags>
0

> <s_m_subgroup_title>
dock_pv

> <s_m_subgroupid>
dock_pv

> <b_m_subgroup_collapsed>
1

$$$$
CHEMBL284_lig2095
                    3D
 Schrodinger Suite 2021-1.
 59 61  0  0  1  0            999 V2000
  -13.1785   -5.8095   57.3567 C   0  0  0  0  0  0
  -14.4875   -6.1567   57.0281 C   0  0  0  0  0  0
  -15.5439   -5.7834   57.8584 C   0  0  0  0  0  0
  -15.2939   -5.0779   59.0432 C   0  0  0  0  0  0
  -13.9755   -4.7335   59.3685 C   0  0  0  0  0  0
  -12.9235   -5.0892   58.5245 C   0  0  0  0  0  0
  -11.6596   -4.7228   58.8345 F   0  0  0  0  0  0
  -12.1663   -6.1563   56.5300 F   0  0  0  0  0  0
  -16.8047   -6.1144   57.4996 F   0  0  0  0  0  0
  -16.4380   -4.6753   59.9764 C   0  0  0  0  0  0
  -17.1897   -5.8481   60.6575 C   0  0  2  0  0  0
  -18.2838   -5.3495   61.6432 C   0  0  0  0  0  0
  -19.6045   -6.1500   61.5896 C   0  0  0  0  0  0
  -19.9992   -6.9109   62.6515 N   0  0  0  0  0  0
  -20.2934   -6.0269   60.5781 O   0  0  0  0  0  0
  -16.2380   -6.7088   61.3467 N   0  0  0  0  0  0
  -19.0513   -7.2926   63.6992 C   0  0  0  0  0  0
  -19.5010   -8.6321   64.2859 C   0  0  0  0  0  0
  -21.2771   -8.7322   64.1286 S   0  0  0  0  0  0
  -21.3010   -7.6216   62.7041 C   0  0  1  0  0  0
  -22.5246   -6.6811   62.7903 C   0  0  0  0  0  0
  -22.6764   -5.8999   63.8791 N   0  0  0  0  0  0
  -23.3374   -6.6894   61.8727 O   0  0  0  0  0  0
  -23.8017   -4.9884   64.1137 C   0  0  0  0  0  0
  -25.0493   -5.6661   64.6826 C   0  0  0  0  0  0
  -25.4903   -5.3640   65.9732 C   0  0  0  0  0  0
  -26.6601   -5.9411   66.4683 C   0  0  0  0  0  0
  -27.3792   -6.8467   65.6846 C   0  0  0  0  0  0
  -26.9602   -7.1660   64.3889 C   0  0  0  0  0  0
  -25.8032   -6.5452   63.8935 C   0  0  0  0  0  0
  -27.7440   -8.0707   63.6907 O   0  0  0  0  0  0
  -27.3532   -8.6082   62.4165 C   0  0  0  0  0  0
  -27.0398  -10.1113   62.5267 C   0  0  0  0  0  0
  -27.6767  -10.7168   63.5665 O   0  0  0  0  0  0
  -26.3162  -10.7085   61.7282 O   0  0  0  0  0  0
  -14.6898   -6.7163   56.1283 H   0  0  0  0  0  0
  -13.7542   -4.1988   60.2794 H   0  0  0  0  0  0
  -16.0582   -3.9949   60.7412 H   0  0  0  0  0  0
  -17.1465   -4.0829   59.3969 H   0  0  0  0  0  0
  -17.6488   -6.4397   59.8634 H   0  0  0  0  0  0
  -17.8985   -5.2414   62.6565 H   0  0  0  0  0  0
  -18.5654   -4.3280   61.3846 H   0  0  0  0  0  0
  -15.7127   -6.1906   62.0428 H   0  0  0  0  0  0
  -16.6868   -7.4738   61.8312 H   0  0  0  0  0  0
  -18.0283   -7.3821   63.3326 H   0  0  0  0  0  0
  -19.1526   -6.5474   64.4877 H   0  0  0  0  0  0
  -19.1009   -9.4738   63.7217 H   0  0  0  0  0  0
  -19.2086   -8.7092   65.3329 H   0  0  0  0  0  0
  -21.4300   -8.2674   61.8317 H   0  0  0  0  0  0
  -22.0441   -6.0499   64.6579 H   0  0  0  0  0  0
  -23.4699   -4.1942   64.7843 H   0  0  0  0  0  0
  -24.0806   -4.4980   63.1770 H   0  0  0  0  0  0
  -24.9396   -4.6673   66.5907 H   0  0  0  0  0  0
  -27.0044   -5.6980   67.4620 H   0  0  0  0  0  0
  -28.2737   -7.3053   66.0800 H   0  0  0  0  0  0
  -25.4767   -6.7176   62.8868 H   0  0  0  0  0  0
  -28.2076   -8.5035   61.7475 H   0  0  0  0  0  0
  -26.5276   -8.1137   61.9137 H   0  0  0  0  0  0
  -27.4976  -11.6611   63.5640 H   0  0  0  0  0  0
  1  2  2  0  0  0
  1  6  1  0  0  0
  1  8  1  0  0  0
  2  3  1  0  0  0
  2 36  1  0  0  0
  3  4  2  0  0  0
  3  9  1  0  0  0
  4  5  1  0  0  0
  4 10  1  0  0  0
  5  6  2  0  0  0
  5 37  1  0  0  0
  6  7  1  0  0  0
 10 11  1  0  0  0
 10 38  1  0  0  0
 10 39  1  0  0  0
 11 12  1  0  0  0
 11 16  1  0  0  0
 11 40  1  0  0  0
 12 13  1  0  0  0
 12 41  1  0  0  0
 12 42  1  0  0  0
 13 14  1  0  0  0
 13 15  2  0  0  0
 14 17  1  0  0  0
 14 20  1  0  0  0
 16 43  1  0  0  0
 16 44  1  0  0  0
 17 18  1  0  0  0
 17 45  1  0  0  0
 17 46  1  0  0  0
 18 19  1  0  0  0
 18 47  1  0  0  0
 18 48  1  0  0  0
 19 20  1  0  0  0
 20 21  1  0  0  0
 20 49  1  0  0  0
 21 22  1  0  0  0
 21 23  2  0  0  0
 22 24  1  0  0  0
 22 50  1  0  0  0
 24 25  1  0  0  0
 24 51  1  0  0  0
 24 52  1  0  0  0
 25 26  2  0  0  0
 25 30  1  0  0  0
 26 27  1  0  0  0
 26 53  1  0  0  0
 27 28  2  0  0  0
 27 54  1  0  0  0
 28 29  1  0  0  0
 28 55  1  0  0  0
 29 30  2  0  0  0
 29 31  1  0  0  0
 30 56  1  0  0  0
 31 32  1  0  0  0
 32 33  1  0  0  0
 32 57  1  0  0  0
 32 58  1  0  0  0
 33 34  1  0  0  0
 33 35  2  0  0  0
 34 59  1  0  0  0
M  END
> <s_m_entry_id>
3129

> <s_m_entry_name>
dock_pv.13

> <s_m_Source_Path>
/home/csk/Desktop/cluster/DUD-E-result/dpp4

> <s_m_Source_File>
dock_pv.maegz

> <i_m_Source_File_Index>
13

> <chembl_id>
CHEMBL1683490

> <chembl_pref_name>
None

> <i_lp_mmshare_version>
53161

> <r_lp_tautomer_probability>
1

> <s_lp_Force_Field>
OPLS_2005

> <r_lp_Energy>
24.358753

> <b_lp_Chiralities_Consistent>
1

> <s_lp_Variant>
CHEMBL284_lig2095-1

> <s_i_glide_gridfile>
glide-grid_2i78

> <i_i_glide_lignum>
2683

> <i_i_glide_rotatable_bonds>
13

> <r_i_docking_score>
-6.9547068634394

> <r_i_glide_ligand_efficiency>
-0.198705910383983

> <r_i_glide_ligand_efficiency_sa>
-0.649980208322097

> <r_i_glide_ligand_efficiency_ln>
-1.52671250792755

> <r_i_glide_gscore>
-6.9547068634394

> <r_i_glide_lipo>
-1.2290068027619

> <r_i_glide_hbond>
-0.972765839611055

> <r_i_glide_metal>
0

> <r_i_glide_rewards>
-1.68122229006068

> <r_i_glide_evdw>
-42.8088531494141

> <r_i_glide_ecoul>
-11.3790559768677

> <r_i_glide_erotb>
0.861575478026792

> <r_i_glide_esite>
-0.0859863550317086

> <r_i_glide_emodel>
-72.4776822521498

> <r_i_glide_energy>
-54.1879091262817

> <r_i_glide_einternal>
8.75559616088867

> <i_i_glide_confnum>
8

> <i_i_glide_posenum>
292

> <r_i_glide_eff_state_penalty>
0

> <s_user_duplicate_titles>
CHEMBL284_lig2095

> <i_f3d_flags>
0

> <s_m_subgroup_title>
dock_pv

> <s_m_subgroupid>
dock_pv

> <b_m_subgroup_collapsed>
1

$$$$
CHEMBL284_lig849
                    3D
 Schrodinger Suite 2021-1.
 48 51  0  0  1  0            999 V2000
  -13.3531   -5.7731   57.2736 C   0  0  0  0  0  0
  -12.7642   -5.0869   58.3308 C   0  0  0  0  0  0
  -13.5153   -4.6658   59.4267 C   0  0  0  0  0  0
  -14.7190   -6.0149   57.2865 C   0  0  0  0  0  0
  -15.4765   -5.5620   58.3705 C   0  0  0  0  0  0
  -14.8831   -4.9058   59.4419 C   0  0  0  0  0  0
  -15.6379   -4.4506   60.5225 N   0  0  0  0  0  0
  -16.9168   -4.5850   60.5461 C   0  0  0  0  0  0
  -17.5792   -5.2753   59.5281 N   0  0  0  0  0  0
  -16.9610   -5.7598   58.3923 C   0  0  0  0  0  0
  -17.5245   -6.3090   57.4485 O   0  0  0  0  0  0
  -19.0184   -5.6469   59.6682 C   0  0  0  0  0  0
  -19.3557   -6.5834   60.8490 C   0  0  0  0  0  0
  -20.5290   -6.4311   61.6214 C   0  0  0  0  0  0
  -20.7639   -7.2798   62.7103 C   0  0  0  0  0  0
  -19.8525   -8.2806   63.0369 C   0  0  0  0  0  0
  -18.7001   -8.4403   62.2748 C   0  0  0  0  0  0
  -18.4517   -7.5983   61.1945 C   0  0  0  0  0  0
  -21.5304   -5.4114   61.3283 C   0  0  0  0  0  0
  -22.3229   -4.6016   61.0949 N   0  0  0  0  0  0
  -17.6429   -4.0326   61.6514 N   0  0  0  0  0  0
  -18.6085   -2.9388   61.4415 C   0  0  0  0  0  0
  -18.8077   -2.0431   62.6762 C   0  0  0  0  0  0
  -19.2291   -2.8800   63.8892 C   0  0  0  0  0  0
  -18.1948   -3.9873   64.1623 C   0  0  2  0  0  0
  -17.1904   -4.3086   63.0243 C   0  0  0  0  0  0
  -18.7001   -5.1301   64.8862 N   0  0  0  0  0  0
  -11.1041   -4.7092   58.2365 Cl  0  0  0  0  0  0
  -12.7517   -6.1028   56.4389 H   0  0  0  0  0  0
  -13.0438   -4.1457   60.2455 H   0  0  0  0  0  0
  -15.1689   -6.5394   56.4545 H   0  0  0  0  0  0
  -19.4125   -6.1478   58.7830 H   0  0  0  0  0  0
  -19.5952   -4.7274   59.7154 H   0  0  0  0  0  0
  -21.6530   -7.1719   63.3174 H   0  0  0  0  0  0
  -20.0362   -8.9274   63.8830 H   0  0  0  0  0  0
  -17.9847   -9.2076   62.5278 H   0  0  0  0  0  0
  -17.5394   -7.7380   60.6330 H   0  0  0  0  0  0
  -18.3015   -2.3254   60.5926 H   0  0  0  0  0  0
  -19.5757   -3.3653   61.1906 H   0  0  0  0  0  0
  -17.8991   -1.4760   62.8814 H   0  0  0  0  0  0
  -19.5734   -1.2962   62.4619 H   0  0  0  0  0  0
  -19.3491   -2.2167   64.7474 H   0  0  0  0  0  0
  -20.1807   -3.3229   63.5900 H   0  0  0  0  0  0
  -17.5440   -3.5106   64.8930 H   0  0  0  0  0  0
  -17.0177   -5.3875   63.0487 H   0  0  0  0  0  0
  -16.2038   -3.9089   63.2345 H   0  0  0  0  0  0
  -19.2485   -5.6705   64.2289 H   0  0  0  0  0  0
  -17.9103   -5.7277   65.1235 H   0  0  0  0  0  0
  1  2  2  0  0  0
  1  4  1  0  0  0
  1 29  1  0  0  0
  2  3  1  0  0  0
  2 28  1  0  0  0
  3  6  2  0  0  0
  3 30  1  0  0  0
  4  5  2  0  0  0
  4 31  1  0  0  0
  5 10  1  0  0  0
  5  6  1  0  0  0
  6  7  1  0  0  0
  7  8  2  0  0  0
  8  9  1  0  0  0
  8 21  1  0  0  0
  9 10  1  0  0  0
  9 12  1  0  0  0
 10 11  2  0  0  0
 12 13  1  0  0  0
 12 32  1  0  0  0
 12 33  1  0  0  0
 13 14  2  0  0  0
 13 18  1  0  0  0
 14 15  1  0  0  0
 14 19  1  0  0  0
 15 16  2  0  0  0
 15 34  1  0  0  0
 16 17  1  0  0  0
 16 35  1  0  0  0
 17 18  2  0  0  0
 17 36  1  0  0  0
 18 37  1  0  0  0
 19 20  3  0  0  0
 21 22  1  0  0  0
 21 26  1  0  0  0
 22 23  1  0  0  0
 22 38  1  0  0  0
 22 39  1  0  0  0
 23 24  1  0  0  0
 23 40  1  0  0  0
 23 41  1  0  0  0
 24 25  1  0  0  0
 24 42  1  0  0  0
 24 43  1  0  0  0
 25 26  1  0  0  0
 25 27  1  0  0  0
 25 44  1  0  0  0
 26 45  1  0  0  0
 26 46  1  0  0  0
 27 47  1  0  0  0
 27 48  1  0  0  0
M  END
> <s_m_entry_id>
3130

> <s_m_entry_name>
dock_pv.14

> <s_m_Source_Path>
/home/csk/Desktop/cluster/DUD-E-result/dpp4

> <s_m_Source_File>
dock_pv.maegz

> <i_m_Source_File_Index>
14

> <chembl_id>
CHEMBL228004

> <chembl_pref_name>
None

> <i_lp_mmshare_version>
53161

> <r_lp_tautomer_probability>
1

> <s_lp_Force_Field>
OPLS_2005

> <r_lp_Energy>
38.683151

> <b_lp_Chiralities_Consistent>
1

> <s_lp_Variant>
CHEMBL284_lig849-1

> <s_i_glide_gridfile>
glide-grid_2i78

> <i_i_glide_lignum>
1045

> <i_i_glide_rotatable_bonds>
3

> <r_i_docking_score>
-6.95235006467059

> <r_i_glide_ligand_efficiency>
-0.248298216595378

> <r_i_glide_ligand_efficiency_sa>
-0.753979625412449

> <r_i_glide_ligand_efficiency_ln>
-1.60480652479387

> <r_i_glide_gscore>
-6.95235006467059

> <r_i_glide_lipo>
-2.2219522668071

> <r_i_glide_hbond>
-0.795026793813194

> <r_i_glide_metal>
0

> <r_i_glide_rewards>
-1.08143381540113

> <r_i_glide_evdw>
-33.0396614074707

> <r_i_glide_ecoul>
-10.48122215271

> <r_i_glide_erotb>
0.377853608411132

> <r_i_glide_esite>
-0.00762440378026219

> <r_i_glide_emodel>
-54.9559357053175

> <r_i_glide_energy>
-43.5208835601807

> <r_i_glide_einternal>
6.50810241699219

> <i_i_glide_confnum>
3

> <i_i_glide_posenum>
371

> <r_i_glide_eff_state_penalty>
0

> <s_user_duplicate_titles>
CHEMBL284_lig849,377819

> <i_f3d_flags>
0

> <s_m_subgroup_title>
dock_pv

> <s_m_subgroupid>
dock_pv

> <b_m_subgroup_collapsed>
1

$$$$
CHEMBL284_lig908
                    3D
 Schrodinger Suite 2021-1.
 46 49  0  0  1  0            999 V2000
  -12.0560   -5.7390   57.4838 C   0  0  0  0  0  0
  -12.1381   -4.7930   58.4995 C   0  0  0  0  0  0
  -13.3596   -4.5167   59.1010 C   0  0  0  0  0  0
  -14.5166   -5.2043   58.6996 C   0  0  0  0  0  0
  -14.4298   -6.1352   57.6566 C   0  0  0  0  0  0
  -13.1986   -6.4142   57.0650 C   0  0  0  0  0  0
  -13.1006   -7.3793   56.1282 F   0  0  0  0  0  0
  -10.8613   -6.0192   56.9272 F   0  0  0  0  0  0
  -13.3903   -3.6352   60.1251 F   0  0  0  0  0  0
  -15.7781   -5.1339   59.5681 C   0  0  1  0  0  0
  -17.1157   -4.8932   58.8507 C   0  0  0  0  0  0
  -18.2807   -4.7643   59.8727 C   0  0  0  0  0  0
  -18.3334   -5.8748   60.8627 N   0  0  0  0  0  0
  -17.0276   -6.1991   61.4830 C   0  0  0  0  0  0
  -15.9372   -6.4008   60.4206 C   0  0  2  0  0  0
  -14.7001   -6.9548   60.9338 N   0  0  0  0  0  0
  -19.5462   -6.3135   61.4180 C   0  0  0  0  0  0
  -19.5989   -7.4664   62.3127 C   0  0  0  0  0  0
  -20.7473   -7.8288   62.9330 C   0  0  0  0  0  0
  -20.6519   -5.6754   61.1842 N   0  0  0  0  0  0
  -21.8582   -6.0416   61.8112 N   0  0  0  0  0  0
  -21.9745   -7.1082   62.7187 C   0  0  0  0  0  0
  -23.0965   -7.4165   63.2773 N   0  0  0  0  0  0
  -24.2038   -6.6741   62.9872 C   0  0  0  0  0  0
  -24.1749   -5.6336   62.1255 C   0  0  0  0  0  0
  -22.9379   -5.2525   61.4673 C   0  0  0  0  0  0
  -25.4452   -7.1481   63.7111 C   0  0  0  0  0  0
  -22.9440   -4.3026   60.6811 O   0  0  0  0  0  0
  -11.2432   -4.3090   58.8464 H   0  0  0  0  0  0
  -15.2946   -6.7090   57.3637 H   0  0  0  0  0  0
  -15.6318   -4.2897   60.2445 H   0  0  0  0  0  0
  -17.3392   -5.7190   58.1743 H   0  0  0  0  0  0
  -17.0778   -3.9785   58.2578 H   0  0  0  0  0  0
  -19.2072   -4.7241   59.2965 H   0  0  0  0  0  0
  -18.1922   -3.8467   60.4568 H   0  0  0  0  0  0
  -16.7578   -5.4279   62.2075 H   0  0  0  0  0  0
  -17.0506   -7.1302   62.0449 H   0  0  0  0  0  0
  -16.3046   -7.1954   59.7678 H   0  0  0  0  0  0
  -13.9499   -6.7685   60.2782 H   0  0  0  0  0  0
  -14.4487   -6.4304   61.7694 H   0  0  0  0  0  0
  -18.7366   -8.0826   62.5071 H   0  0  0  0  0  0
  -20.7370   -8.6859   63.5905 H   0  0  0  0  0  0
  -25.0615   -5.0619   61.9056 H   0  0  0  0  0  0
  -26.3192   -6.5676   63.4158 H   0  0  0  0  0  0
  -25.3158   -7.0429   64.7878 H   0  0  0  0  0  0
  -25.6429   -8.1959   63.4852 H   0  0  0  0  0  0
  1  8  1  0  0  0
  1  6  1  0  0  0
  1  2  2  0  0  0
  2  3  1  0  0  0
  2 29  1  0  0  0
  3  4  2  0  0  0
  3  9  1  0  0  0
  4 10  1  0  0  0
  4  5  1  0  0  0
  5  6  2  0  0  0
  5 30  1  0  0  0
  6  7  1  0  0  0
 10 11  1  0  0  0
 10 15  1  0  0  0
 10 31  1  0  0  0
 11 12  1  0  0  0
 11 32  1  0  0  0
 11 33  1  0  0  0
 12 13  1  0  0  0
 12 34  1  0  0  0
 12 35  1  0  0  0
 13 14  1  0  0  0
 13 17  1  0  0  0
 14 15  1  0  0  0
 14 36  1  0  0  0
 14 37  1  0  0  0
 15 16  1  0  0  0
 15 38  1  0  0  0
 16 39  1  0  0  0
 16 40  1  0  0  0
 17 18  1  0  0  0
 17 20  2  0  0  0
 18 19  2  0  0  0
 18 41  1  0  0  0
 19 22  1  0  0  0
 19 42  1  0  0  0
 20 21  1  0  0  0
 21 22  1  0  0  0
 21 26  1  0  0  0
 22 23  2  0  0  0
 23 24  1  0  0  0
 24 25  2  0  0  0
 24 27  1  0  0  0
 25 26  1  0  0  0
 25 43  1  0  0  0
 26 28  2  0  0  0
 27 44  1  0  0  0
 27 45  1  0  0  0
 27 46  1  0  0  0
M  END
> <s_m_entry_id>
3131

> <s_m_entry_name>
dock_pv.15

> <s_m_Source_Path>
/home/csk/Desktop/cluster/DUD-E-result/dpp4

> <s_m_Source_File>
dock_pv.maegz

> <i_m_Source_File_Index>
15

> <chembl_id>
CHEMBL231397

> <chembl_pref_name>
None

> <i_lp_mmshare_version>
53161

> <r_lp_tautomer_probability>
1

> <s_lp_Force_Field>
OPLS_2005

> <r_lp_Energy>
54.739194

> <b_lp_Chiralities_Consistent>
1

> <s_lp_Variant>
CHEMBL284_lig908-1

> <s_i_glide_gridfile>
glide-grid_2i78

> <i_i_glide_lignum>
1110

> <i_i_glide_rotatable_bonds>
2

> <r_i_docking_score>
-6.92257517374671

> <r_i_glide_ligand_efficiency>
-0.247234827633811

> <r_i_glide_ligand_efficiency_sa>
-0.750750550222526

> <r_i_glide_ligand_efficiency_ln>
-1.59793360573985

> <r_i_glide_gscore>
-6.92257517374671

> <r_i_glide_lipo>
-1.97663696685495

> <r_i_glide_hbond>
-0.460653077265308

> <r_i_glide_metal>
0

> <r_i_glide_rewards>
-2.08346509781068

> <r_i_glide_evdw>
-34.1555976867676

> <r_i_glide_ecoul>
-5.96869325637817

> <r_i_glide_erotb>
0.257150622813103

> <r_i_glide_esite>
-0.0558867818337661

> <r_i_glide_emodel>
-46.1086343619899

> <r_i_glide_energy>
-40.1242909431458

> <r_i_glide_einternal>
11.6295967102051

> <i_i_glide_confnum>
1

> <i_i_glide_posenum>
1

> <r_i_glide_eff_state_penalty>
0

> <s_user_duplicate_titles>
CHEMBL284_lig908,385316

> <i_f3d_flags>
0

> <s_m_subgroup_title>
dock_pv

> <s_m_subgroupid>
dock_pv

> <b_m_subgroup_collapsed>
1

$$$$
CHEMBL284_lig926
                    3D
 Schrodinger Suite 2021-1.
 37 39  0  0  1  0            999 V2000
  -12.0401   -5.7568   57.5082 C   0  0  0  0  0  0
  -12.1207   -4.8131   58.5263 C   0  0  0  0  0  0
  -13.3380   -4.5525   59.1451 C   0  0  0  0  0  0
  -14.4859   -5.2695   58.7787 C   0  0  0  0  0  0
  -14.4005   -6.1887   57.7259 C   0  0  0  0  0  0
  -13.1813   -6.4411   57.1007 C   0  0  0  0  0  0
  -13.0998   -7.3739   56.1283 F   0  0  0  0  0  0
  -10.8512   -6.0117   56.9280 F   0  0  0  0  0  0
  -13.3805   -3.6304   60.1280 F   0  0  0  0  0  0
  -15.7603   -5.1873   59.6309 C   0  0  1  0  0  0
  -17.0620   -5.0487   58.8342 C   0  0  0  0  0  0
  -18.2838   -4.9605   59.7700 C   0  0  0  0  0  0
  -18.4253   -6.0476   60.7683 N   0  0  0  0  0  0
  -17.1557   -6.4366   61.4261 C   0  0  0  0  0  0
  -15.8875   -6.4115   60.5529 C   0  0  2  0  0  0
  -14.7000   -6.7090   61.3280 N   0  0  0  0  0  0
  -19.6475   -6.2840   61.4172 C   0  0  0  0  0  0
  -19.7819   -7.2111   62.4706 C   0  0  0  0  0  0
  -21.0563   -7.4165   63.0051 C   0  0  0  0  0  0
  -22.1557   -6.7723   62.5404 N   0  0  0  0  0  0
  -21.9455   -5.9089   61.5178 C   0  0  0  0  0  0
  -20.7529   -5.6452   60.9281 N   0  0  0  0  0  0
  -11.2284   -4.3090   58.8502 H   0  0  0  0  0  0
  -15.2692   -6.7456   57.4231 H   0  0  0  0  0  0
  -15.6680   -4.2979   60.2574 H   0  0  0  0  0  0
  -17.0338   -4.1295   58.2471 H   0  0  0  0  0  0
  -17.2208   -5.8685   58.1337 H   0  0  0  0  0  0
  -19.1636   -4.9594   59.1248 H   0  0  0  0  0  0
  -18.2881   -4.0061   60.2992 H   0  0  0  0  0  0
  -17.3166   -7.4884   61.6601 H   0  0  0  0  0  0
  -17.0534   -5.7960   62.3040 H   0  0  0  0  0  0
  -15.9846   -7.2808   59.8996 H   0  0  0  0  0  0
  -13.8685   -6.5004   60.7863 H   0  0  0  0  0  0
  -14.6415   -6.0959   62.1472 H   0  0  0  0  0  0
  -18.9461   -7.7513   62.8871 H   0  0  0  0  0  0
  -21.2086   -8.1020   63.8268 H   0  0  0  0  0  0
  -22.8103   -5.3966   61.1229 H   0  0  0  0  0  0
  1  6  1  0  0  0
  1  2  2  0  0  0
  1  8  1  0  0  0
  2  3  1  0  0  0
  2 23  1  0  0  0
  3  4  2  0  0  0
  3  9  1  0  0  0
  4 10  1  0  0  0
  4  5  1  0  0  0
  5  6  2  0  0  0
  5 24  1  0  0  0
  6  7  1  0  0  0
 10 15  1  0  0  0
 10 11  1  0  0  0
 10 25  1  0  0  0
 11 12  1  0  0  0
 11 26  1  0  0  0
 11 27  1  0  0  0
 12 13  1  0  0  0
 12 28  1  0  0  0
 12 29  1  0  0  0
 13 14  1  0  0  0
 13 17  1  0  0  0
 14 15  1  0  0  0
 14 30  1  0  0  0
 14 31  1  0  0  0
 15 16  1  0  0  0
 15 32  1  0  0  0
 16 33  1  0  0  0
 16 34  1  0  0  0
 17 18  2  0  0  0
 17 22  1  0  0  0
 18 19  1  0  0  0
 18 35  1  0  0  0
 19 20  2  0  0  0
 19 36  1  0  0  0
 20 21  1  0  0  0
 21 22  2  0  0  0
 21 37  1  0  0  0
M  END
> <s_m_entry_id>
3132

> <s_m_entry_name>
dock_pv.16

> <s_m_Source_Path>
/home/csk/Desktop/cluster/DUD-E-result/dpp4

> <s_m_Source_File>
dock_pv.maegz

> <i_m_Source_File_Index>
16

> <chembl_id>
CHEMBL230984

> <chembl_pref_name>
None

> <i_lp_mmshare_version>
53161

> <r_lp_tautomer_probability>
1

> <s_lp_Force_Field>
OPLS_2005

> <r_lp_Energy>
18.062038

> <b_lp_Chiralities_Consistent>
1

> <s_lp_Variant>
CHEMBL284_lig926-1

> <s_i_glide_gridfile>
glide-grid_2i78

> <i_i_glide_lignum>
1128

> <i_i_glide_rotatable_bonds>
2

> <r_i_docking_score>
-6.91285013374052

> <r_i_glide_ligand_efficiency>
-0.314220460624569

> <r_i_glide_ligand_efficiency_sa>
-0.880458088259517

> <r_i_glide_ligand_efficiency_ln>
-1.68975272502142

> <r_i_glide_gscore>
-6.91285013374052

> <r_i_glide_lipo>
-1.80211225834856

> <r_i_glide_hbond>
-0.498682367530567

> <r_i_glide_metal>
0

> <r_i_glide_rewards>
-2.49555320016789

> <r_i_glide_evdw>
-29.4455299377441

> <r_i_glide_ecoul>
-6.51161623001099

> <r_i_glide_erotb>
0.389259479322971

> <r_i_glide_esite>
-0.0567428556276225

> <r_i_glide_emodel>
-49.9167717241986

> <r_i_glide_energy>
-35.9571461677551

> <r_i_glide_einternal>
0.391414403915405

> <i_i_glide_confnum>
3

> <i_i_glide_posenum>
121

> <r_i_glide_eff_state_penalty>
0

> <s_user_duplicate_titles>
CHEMBL284_lig926,385292

> <i_f3d_flags>
0

> <s_m_subgroup_title>
dock_pv

> <s_m_subgroupid>
dock_pv

> <b_m_subgroup_collapsed>
1

$$$$
CHEMBL284_lig525
                    3D
 Schrodinger Suite 2021-1.
 43 45  0  0  1  0            999 V2000
  -18.8718   -7.0906   60.9271 C   0  0  0  0  0  0
  -19.6335   -7.5312   61.9602 N   0  0  0  0  0  0
  -19.2663   -5.7668   60.1975 C   0  0  1  0  0  0
  -15.6252   -5.5911   57.6494 C   0  0  0  0  0  0
  -18.9038   -4.5704   60.9549 N   0  0  2  0  0  0
  -16.0731   -5.0580   58.7980 N   0  0  0  0  0  0
  -19.9139   -4.7100   63.9128 N   0  0  0  0  0  0
  -18.5531   -5.5677   58.8404 C   0  0  0  0  0  0
  -20.2923   -5.6350   63.3291 C   0  0  0  0  0  0
  -20.7639   -6.8110   62.5724 C   0  0  2  0  0  0
  -17.9025   -7.7427   60.5286 O   0  0  0  0  0  0
  -17.4167   -4.5497   59.0774 C   0  0  1  0  0  0
  -16.3605   -5.9092   56.7121 O   0  0  0  0  0  0
  -14.1304   -5.7715   57.5529 C   0  0  0  0  0  0
  -17.5419   -4.2416   60.5741 C   0  0  0  0  0  0
  -19.3176   -8.7820   62.6614 C   0  0  0  0  0  0
  -20.1782   -8.7091   63.9184 C   0  0  0  0  0  0
  -21.3742   -7.8764   63.4903 C   0  0  0  0  0  0
  -13.2460   -4.9604   58.2858 C   0  0  0  0  0  0
  -13.6100   -6.7407   56.6874 C   0  0  0  0  0  0
  -12.2371   -6.8922   56.5344 C   0  0  0  0  0  0
  -11.8709   -5.1091   58.1290 C   0  0  0  0  0  0
  -11.3772   -6.0711   57.2533 C   0  0  0  0  0  0
  -20.3459   -5.8095   60.0526 H   0  0  0  0  0  0
  -19.0020   -4.6745   61.9589 H   0  0  0  0  0  0
  -15.3709   -4.8243   59.4811 H   0  0  0  0  0  0
  -18.2132   -6.5062   58.4032 H   0  0  0  0  0  0
  -19.2736   -5.1633   58.1283 H   0  0  0  0  0  0
  -21.4932   -6.4734   61.8351 H   0  0  0  0  0  0
  -17.6434   -3.6201   58.5471 H   0  0  0  0  0  0
  -16.8786   -4.8892   61.1510 H   0  0  0  0  0  0
  -17.2377   -3.2220   60.8176 H   0  0  0  0  0  0
  -18.2613   -8.8474   62.9287 H   0  0  0  0  0  0
  -19.6336   -9.6356   62.0615 H   0  0  0  0  0  0
  -19.6277   -8.1942   64.7089 H   0  0  0  0  0  0
  -20.4390   -9.6939   64.3073 H   0  0  0  0  0  0
  -21.9199   -7.4599   64.3382 H   0  0  0  0  0  0
  -22.0743   -8.4959   62.9283 H   0  0  0  0  0  0
  -13.6000   -4.1976   58.9624 H   0  0  0  0  0  0
  -14.2726   -7.3846   56.1277 H   0  0  0  0  0  0
  -11.8465   -7.6427   55.8629 H   0  0  0  0  0  0
  -11.1906   -4.4811   58.6867 H   0  0  0  0  0  0
  -10.3102   -6.1935   57.1391 H   0  0  0  0  0  0
  1  2  1  0  0  0
  1  3  1  0  0  0
  1 11  2  0  0  0
  2 10  1  0  0  0
  2 16  1  0  0  0
  3  5  1  0  0  0
  3  8  1  0  0  0
  3 24  1  0  0  0
  4  6  1  0  0  0
  4 13  2  0  0  0
  4 14  1  0  0  0
  5 15  1  0  0  0
  5 25  1  0  0  0
  6 12  1  0  0  0
  6 26  1  0  0  0
  7  9  3  0  0  0
  8 12  1  0  0  0
  8 27  1  0  0  0
  8 28  1  0  0  0
  9 10  1  0  0  0
 10 18  1  0  0  0
 10 29  1  0  0  0
 12 15  1  0  0  0
 12 30  1  0  0  0
 14 19  1  0  0  0
 14 20  2  0  0  0
 15 31  1  0  0  0
 15 32  1  0  0  0
 16 17  1  0  0  0
 16 33  1  0  0  0
 16 34  1  0  0  0
 17 18  1  0  0  0
 17 35  1  0  0  0
 17 36  1  0  0  0
 18 37  1  0  0  0
 18 38  1  0  0  0
 19 22  2  0  0  0
 19 39  1  0  0  0
 20 21  1  0  0  0
 20 40  1  0  0  0
 21 23  2  0  0  0
 21 41  1  0  0  0
 22 23  1  0  0  0
 22 42  1  0  0  0
 23 43  1  0  0  0
M  END
> <s_m_entry_id>
3133

> <s_m_entry_name>
dock_pv.17

> <s_m_Source_Path>
/home/csk/Desktop/cluster/DUD-E-result/dpp4

> <s_m_Source_File>
dock_pv.maegz

> <i_m_Source_File_Index>
17

> <chembl_id>
CHEMBL539939

> <chembl_pref_name>
None

> <i_lp_mmshare_version>
53161

> <r_lp_tautomer_probability>
1

> <s_lp_Force_Field>
OPLS_2005

> <r_lp_Energy>
50.87938

> <b_lp_Chiralities_Consistent>
1

> <s_lp_Variant>
CHEMBL284_lig525-1

> <s_i_glide_gridfile>
glide-grid_2i78

> <i_i_glide_lignum>
691

> <i_i_glide_rotatable_bonds>
5

> <r_i_docking_score>
-6.87333901536471

> <r_i_glide_ligand_efficiency>
-0.298840826754988

> <r_i_glide_ligand_efficiency_sa>
-0.849863558551804

> <r_i_glide_ligand_efficiency_ln>
-1.66203569790762

> <r_i_glide_gscore>
-6.87333901536471

> <r_i_glide_lipo>
-2.25042822131379

> <r_i_glide_hbond>
-0.333522831304216

> <r_i_glide_metal>
0

> <r_i_glide_rewards>
-2.21923706646056

> <r_i_glide_evdw>
-36.6779365539551

> <r_i_glide_ecoul>
-7.91514730453491

> <r_i_glide_erotb>
0.95101802709184

> <r_i_glide_esite>
0

> <r_i_glide_emodel>
-60.570346498371

> <r_i_glide_energy>
-44.59308385849

> <r_i_glide_einternal>
4.47059488296509

> <i_i_glide_confnum>
119

> <i_i_glide_posenum>
374

> <r_i_glide_eff_state_penalty>
0

> <s_user_duplicate_titles>
CHEMBL284_lig525,322477

> <i_f3d_flags>
0

> <s_m_subgroup_title>
dock_pv

> <s_m_subgroupid>
dock_pv

> <b_m_subgroup_collapsed>
1

$$$$
CHEMBL284_lig1088
                    3D
 Schrodinger Suite 2021-1.
 48 51  0  0  1  0            999 V2000
  -21.1382   -3.4663   60.5719 C   0  0  0  0  0  0
  -21.3730   -4.5574   61.3394 N   0  0  0  0  0  0
  -20.4049   -5.5199   61.3812 C   0  0  0  0  0  0
  -19.2295   -5.3724   60.6309 C   0  0  0  0  0  0
  -19.0691   -4.2068   59.8695 C   0  0  0  0  0  0
  -20.0237   -3.2386   59.8388 N   0  0  0  0  0  0
  -20.6652   -6.7064   62.2657 C   0  0  0  0  0  0
  -21.9322   -6.9140   62.8340 C   0  0  0  0  0  0
  -22.1860   -7.9790   63.6981 C   0  0  0  0  0  0
  -21.1648   -8.8827   63.9984 C   0  0  0  0  0  0
  -19.9025   -8.7098   63.4357 C   0  0  0  0  0  0
  -19.6553   -7.6319   62.5856 C   0  0  0  0  0  0
  -16.0865   -2.8708   58.0151 C   0  0  2  0  0  0
  -15.9005   -4.3746   57.8611 C   0  0  2  0  0  0
  -16.8068   -4.9319   58.9512 C   0  0  0  0  0  0
  -17.9043   -3.9800   59.1272 N   0  0  0  0  0  0
  -17.5805   -2.7929   58.3266 C   0  0  0  0  0  0
  -14.4962   -4.9725   57.8086 C   0  0  0  0  0  0
  -14.2505   -6.0243   56.9150 C   0  0  0  0  0  0
  -12.9667   -6.5388   56.7652 C   0  0  0  0  0  0
  -11.9309   -6.0211   57.5213 C   0  0  0  0  0  0
  -12.1654   -5.0266   58.4669 C   0  0  0  0  0  0
  -13.4487   -4.5045   58.6196 C   0  0  0  0  0  0
  -16.3497   -4.6617   56.9081 H   0  0  0  0  0  0
  -13.6490   -3.5364   59.5420 F   0  0  0  0  0  0
  -12.7006   -7.5194   55.8733 F   0  0  0  0  0  0
  -10.6999   -6.5134   57.3284 F   0  0  0  0  0  0
  -23.5545   -8.1043   64.3351 C   0  0  0  0  0  0
  -23.4999   -7.9090   65.7281 O   0  0  0  0  0  0
  -15.6638   -2.0569   56.8904 N   0  0  0  0  0  0
  -21.9059   -2.7064   60.5500 H   0  0  0  0  0  0
  -18.4560   -6.1217   60.6430 H   0  0  0  0  0  0
  -22.7363   -6.2241   62.6234 H   0  0  0  0  0  0
  -21.3408   -9.7037   64.6795 H   0  0  0  0  0  0
  -19.1074   -9.3994   63.6756 H   0  0  0  0  0  0
  -18.6520   -7.5227   62.2038 H   0  0  0  0  0  0
  -15.5696   -2.5097   58.9040 H   0  0  0  0  0  0
  -16.2464   -5.0553   59.8803 H   0  0  0  0  0  0
  -17.1442   -5.9285   58.6623 H   0  0  0  0  0  0
  -18.1972   -2.7469   57.4271 H   0  0  0  0  0  0
  -17.7765   -1.9055   58.9296 H   0  0  0  0  0  0
  -15.0436   -6.4300   56.3037 H   0  0  0  0  0  0
  -11.3544   -4.6498   59.0730 H   0  0  0  0  0  0
  -23.9446   -9.1039   64.1422 H   0  0  0  0  0  0
  -24.2707   -7.4110   63.8908 H   0  0  0  0  0  0
  -22.8305   -7.2328   65.9037 H   0  0  0  0  0  0
  -16.0440   -1.1259   56.9829 H   0  0  0  0  0  0
  -14.6589   -1.9447   56.9270 H   0  0  0  0  0  0
  1  2  1  0  0  0
  1  6  2  0  0  0
  1 31  1  0  0  0
  2  3  2  0  0  0
  3  7  1  0  0  0
  3  4  1  0  0  0
  4  5  2  0  0  0
  4 32  1  0  0  0
  5 16  1  0  0  0
  5  6  1  0  0  0
  7  8  2  0  0  0
  7 12  1  0  0  0
  8  9  1  0  0  0
  8 33  1  0  0  0
  9 10  2  0  0  0
  9 28  1  0  0  0
 10 11  1  0  0  0
 10 34  1  0  0  0
 11 12  2  0  0  0
 11 35  1  0  0  0
 12 36  1  0  0  0
 13 14  1  0  0  0
 13 17  1  0  0  0
 13 30  1  0  0  0
 13 37  1  0  0  0
 14 15  1  0  0  0
 14 18  1  0  0  0
 14 24  1  0  0  0
 15 16  1  0  0  0
 15 38  1  0  0  0
 15 39  1  0  0  0
 16 17  1  0  0  0
 17 40  1  0  0  0
 17 41  1  0  0  0
 18 19  2  0  0  0
 18 23  1  0  0  0
 19 20  1  0  0  0
 19 42  1  0  0  0
 20 21  2  0  0  0
 20 26  1  0  0  0
 21 22  1  0  0  0
 21 27  1  0  0  0
 22 23  2  0  0  0
 22 43  1  0  0  0
 23 25  1  0  0  0
 28 29  1  0  0  0
 28 44  1  0  0  0
 28 45  1  0  0  0
 29 46  1  0  0  0
 30 47  1  0  0  0
 30 48  1  0  0  0
M  END
> <s_m_entry_id>
3134

> <s_m_entry_name>
dock_pv.18

> <s_m_Source_Path>
/home/csk/Desktop/cluster/DUD-E-result/dpp4

> <s_m_Source_File>
dock_pv.maegz

> <i_m_Source_File_Index>
18

> <chembl_id>
CHEMBL391252

> <chembl_pref_name>
None

> <i_lp_mmshare_version>
53161

> <r_lp_tautomer_probability>
1

> <s_lp_Force_Field>
OPLS_2005

> <r_lp_Energy>
35.14991

> <b_lp_Chiralities_Consistent>
1

> <s_lp_Variant>
CHEMBL284_lig1088-1

> <s_i_glide_gridfile>
glide-grid_2i78

> <i_i_glide_lignum>
1310

> <i_i_glide_rotatable_bonds>
5

> <r_i_docking_score>
-6.8517252098666

> <r_i_glide_ligand_efficiency>
-0.236266386547124

> <r_i_glide_ligand_efficiency_sa>
-0.725885193917969

> <r_i_glide_ligand_efficiency_ln>
-1.56887132829924

> <r_i_glide_gscore>
-6.8517252098666

> <r_i_glide_lipo>
-2.51663628694955

> <r_i_glide_hbond>
-0.447750714924262

> <r_i_glide_metal>
0

> <r_i_glide_rewards>
-1.79664550879194

> <r_i_glide_evdw>
-37.6192741394043

> <r_i_glide_ecoul>
-4.65903234481812

> <r_i_glide_erotb>
0.489125859492081

> <r_i_glide_esite>
0

> <r_i_glide_emodel>
-56.7107716374485

> <r_i_glide_energy>
-42.2783064842224

> <r_i_glide_einternal>
4.35965251922607

> <i_i_glide_confnum>
65

> <i_i_glide_posenum>
198

> <r_i_glide_eff_state_penalty>
0

> <s_user_duplicate_titles>
CHEMBL284_lig1088,398417

> <i_f3d_flags>
0

> <s_m_subgroup_title>
dock_pv

> <s_m_subgroupid>
dock_pv

> <b_m_subgroup_collapsed>
1

$$$$
CHEMBL284_lig1487
                    3D
 Schrodinger Suite 2021-1.
 38 39  0  0  1  0            999 V2000
  -11.8910   -5.7812   57.5072 C   0  0  0  0  0  0
  -11.9859   -4.8379   58.5276 C   0  0  0  0  0  0
  -13.2134   -4.5949   59.1368 C   0  0  0  0  0  0
  -14.3513   -5.3071   58.7344 C   0  0  0  0  0  0
  -14.2473   -6.2527   57.7077 C   0  0  0  0  0  0
  -13.0171   -6.4936   57.0991 C   0  0  0  0  0  0
  -12.9114   -7.4305   56.1321 F   0  0  0  0  0  0
  -10.7007   -6.0116   56.9280 F   0  0  0  0  0  0
  -13.2837   -3.6758   60.1259 F   0  0  0  0  0  0
  -15.6884   -5.1000   59.4373 C   0  0  0  0  0  0
  -16.1611   -6.3330   60.2410 C   0  0  2  0  0  0
  -17.5275   -6.0866   60.9249 C   0  0  0  0  0  0
  -15.1469   -6.7081   61.2185 N   0  0  0  0  0  0
  -18.3396   -7.3492   61.2775 C   0  0  0  0  0  0
  -19.1050   -7.3015   62.3989 N   0  0  0  0  0  0
  -18.2963   -8.3311   60.5286 O   0  0  0  0  0  0
  -19.5104   -8.4535   63.0142 N   0  0  0  0  0  0
  -20.6711   -8.3104   63.5079 C   0  0  0  0  0  0
  -21.2833   -6.9735   63.2245 C   0  0  0  0  0  0
  -20.1074   -6.2350   62.5908 C   0  0  1  0  0  0
  -19.6154   -5.0398   63.4453 C   0  0  0  0  0  0
  -18.6998   -5.2286   64.3938 N   0  0  0  0  0  0
  -20.0554   -3.9164   63.2297 O   0  0  0  0  0  0
  -11.1049   -4.3092   58.8529 H   0  0  0  0  0  0
  -15.1079   -6.8205   57.3919 H   0  0  0  0  0  0
  -16.4320   -4.8532   58.6772 H   0  0  0  0  0  0
  -15.6478   -4.2248   60.0873 H   0  0  0  0  0  0
  -16.2580   -7.1603   59.5365 H   0  0  0  0  0  0
  -18.1647   -5.5052   60.2600 H   0  0  0  0  0  0
  -17.3759   -5.4676   61.8096 H   0  0  0  0  0  0
  -14.2397   -6.7102   60.7675 H   0  0  0  0  0  0
  -15.0674   -6.0233   61.9673 H   0  0  0  0  0  0
  -21.1607   -9.1032   64.0681 H   0  0  0  0  0  0
  -21.6830   -6.5137   64.1277 H   0  0  0  0  0  0
  -22.1088   -7.0873   62.5184 H   0  0  0  0  0  0
  -20.4190   -5.7976   61.6372 H   0  0  0  0  0  0
  -18.3791   -4.4256   64.9110 H   0  0  0  0  0  0
  -18.2252   -6.1184   64.5122 H   0  0  0  0  0  0
  1  6  1  0  0  0
  1  2  2  0  0  0
  1  8  1  0  0  0
  2  3  1  0  0  0
  2 24  1  0  0  0
  3  4  2  0  0  0
  3  9  1  0  0  0
  4  5  1  0  0  0
  4 10  1  0  0  0
  5  6  2  0  0  0
  5 25  1  0  0  0
  6  7  1  0  0  0
 10 11  1  0  0  0
 10 26  1  0  0  0
 10 27  1  0  0  0
 11 12  1  0  0  0
 11 13  1  0  0  0
 11 28  1  0  0  0
 12 14  1  0  0  0
 12 29  1  0  0  0
 12 30  1  0  0  0
 13 31  1  0  0  0
 13 32  1  0  0  0
 14 15  1  0  0  0
 14 16  2  0  0  0
 15 17  1  0  0  0
 15 20  1  0  0  0
 17 18  2  0  0  0
 18 19  1  0  0  0
 18 33  1  0  0  0
 19 20  1  0  0  0
 19 34  1  0  0  0
 19 35  1  0  0  0
 20 21  1  0  0  0
 20 36  1  0  0  0
 21 22  1  0  0  0
 21 23  2  0  0  0
 22 37  1  0  0  0
 22 38  1  0  0  0
M  END
> <s_m_entry_id>
3135

> <s_m_entry_name>
dock_pv.19

> <s_m_Source_Path>
/home/csk/Desktop/cluster/DUD-E-result/dpp4

> <s_m_Source_File>
dock_pv.maegz

> <i_m_Source_File_Index>
19

> <chembl_id>
CHEMBL511872

> <chembl_pref_name>
None

> <i_lp_mmshare_version>
53161

> <r_lp_tautomer_probability>
1

> <s_lp_Force_Field>
OPLS_2005

> <r_lp_Energy>
15.356998

> <b_lp_Chiralities_Consistent>
1

> <s_lp_Variant>
CHEMBL284_lig1487-1

> <s_i_glide_gridfile>
glide-grid_2i78

> <i_i_glide_lignum>
1852

> <i_i_glide_rotatable_bonds>
6

> <r_i_docking_score>
-6.84736550817102

> <r_i_glide_ligand_efficiency>
-0.297711543833523

> <r_i_glide_ligand_efficiency_sa>
-0.846652028143896

> <r_i_glide_ligand_efficiency_ln>
-1.65575506835344

> <r_i_glide_gscore>
-6.84736550817102

> <r_i_glide_lipo>
-1.56672511972124

> <r_i_glide_hbond>
-0.481273354698972

> <r_i_glide_metal>
0

> <r_i_glide_rewards>
-2.66671302249967

> <r_i_glide_evdw>
-33.784553527832

> <r_i_glide_ecoul>
-6.86503982543945

> <r_i_glide_erotb>
0.696997415114622

> <r_i_glide_esite>
-0.110667776158244

> <r_i_glide_emodel>
-54.1650043395218

> <r_i_glide_energy>
-40.6495933532715

> <r_i_glide_einternal>
7.57012605667114

> <i_i_glide_confnum>
8

> <i_i_glide_posenum>
351

> <r_i_glide_eff_state_penalty>
0

> <s_user_duplicate_titles>
CHEMBL284_lig1487

> <i_f3d_flags>
0

> <s_m_subgroup_title>
dock_pv

> <s_m_subgroupid>
dock_pv

> <b_m_subgroup_collapsed>
1

$$$$
CHEMBL284_lig848
                    3D
 Schrodinger Suite 2021-1.
 48 51  0  0  1  0            999 V2000
  -12.8532   -5.8910   57.0904 C   0  0  0  0  0  0
  -12.2775   -5.1924   58.1524 C   0  0  0  0  0  0
  -13.0737   -4.7038   59.1928 C   0  0  0  0  0  0
  -14.2313   -6.0956   57.0515 C   0  0  0  0  0  0
  -15.0296   -5.5948   58.0858 C   0  0  0  0  0  0
  -14.4629   -4.8960   59.1524 C   0  0  0  0  0  0
  -15.2726   -4.3748   60.1717 N   0  0  0  0  0  0
  -16.5380   -4.5927   60.2059 C   0  0  0  0  0  0
  -17.1666   -5.3035   59.1878 N   0  0  0  0  0  0
  -16.5257   -5.7885   58.0649 C   0  0  0  0  0  0
  -17.1000   -6.3091   57.1042 O   0  0  0  0  0  0
  -18.6388   -5.5364   59.2510 C   0  0  0  0  0  0
  -19.1259   -6.4735   60.3770 C   0  0  0  0  0  0
  -20.3621   -6.2636   61.0297 C   0  0  0  0  0  0
  -20.7389   -7.0896   62.0974 C   0  0  0  0  0  0
  -19.9018   -8.1156   62.5276 C   0  0  0  0  0  0
  -18.6867   -8.3294   61.8871 C   0  0  0  0  0  0
  -18.3022   -7.5194   60.8205 C   0  0  0  0  0  0
  -21.2681   -5.1803   60.6554 C   0  0  0  0  0  0
  -21.9837   -4.3206   60.3581 N   0  0  0  0  0  0
  -17.3315   -4.0865   61.2885 N   0  0  0  0  0  0
  -17.5262   -2.6370   61.3715 C   0  0  0  0  0  0
  -18.8746   -2.3714   62.0691 C   0  0  0  0  0  0
  -18.9341   -3.0108   63.4721 C   0  0  0  0  0  0
  -18.4018   -4.4619   63.4843 C   0  0  1  0  0  0
  -17.1098   -4.6205   62.6449 C   0  0  0  0  0  0
  -18.3001   -5.0225   64.8160 N   0  0  0  0  0  0
  -12.3003   -3.9090   60.5227 Cl  0  0  0  0  0  0
  -12.2262   -6.2844   56.3030 H   0  0  0  0  0  0
  -11.2060   -5.0515   58.1865 H   0  0  0  0  0  0
  -14.6623   -6.6507   56.2280 H   0  0  0  0  0  0
  -19.0500   -5.9308   58.3203 H   0  0  0  0  0  0
  -19.0985   -4.5536   59.3649 H   0  0  0  0  0  0
  -21.6759   -6.9345   62.6154 H   0  0  0  0  0  0
  -20.1904   -8.7363   63.3636 H   0  0  0  0  0  0
  -18.0259   -9.1103   62.2320 H   0  0  0  0  0  0
  -17.3425   -7.6983   60.3580 H   0  0  0  0  0  0
  -16.7015   -2.1936   61.9267 H   0  0  0  0  0  0
  -17.5276   -2.1833   60.3782 H   0  0  0  0  0  0
  -19.0345   -1.2959   62.1534 H   0  0  0  0  0  0
  -19.6906   -2.7325   61.4423 H   0  0  0  0  0  0
  -18.3017   -2.3980   64.1147 H   0  0  0  0  0  0
  -19.9538   -2.9663   63.8575 H   0  0  0  0  0  0
  -19.1548   -5.0595   62.9772 H   0  0  0  0  0  0
  -16.8861   -5.6800   62.5043 H   0  0  0  0  0  0
  -16.2915   -4.0698   63.0979 H   0  0  0  0  0  0
  -17.7918   -5.9051   64.7806 H   0  0  0  0  0  0
  -17.7340   -4.4031   65.3748 H   0  0  0  0  0  0
  1  2  2  0  0  0
  1  4  1  0  0  0
  1 29  1  0  0  0
  2  3  1  0  0  0
  2 30  1  0  0  0
  3  6  2  0  0  0
  3 28  1  0  0  0
  4  5  2  0  0  0
  4 31  1  0  0  0
  5 10  1  0  0  0
  5  6  1  0  0  0
  6  7  1  0  0  0
  7  8  2  0  0  0
  8  9  1  0  0  0
  8 21  1  0  0  0
  9 10  1  0  0  0
  9 12  1  0  0  0
 10 11  2  0  0  0
 12 13  1  0  0  0
 12 32  1  0  0  0
 12 33  1  0  0  0
 13 14  2  0  0  0
 13 18  1  0  0  0
 14 15  1  0  0  0
 14 19  1  0  0  0
 15 16  2  0  0  0
 15 34  1  0  0  0
 16 17  1  0  0  0
 16 35  1  0  0  0
 17 18  2  0  0  0
 17 36  1  0  0  0
 18 37  1  0  0  0
 19 20  3  0  0  0
 21 22  1  0  0  0
 21 26  1  0  0  0
 22 23  1  0  0  0
 22 38  1  0  0  0
 22 39  1  0  0  0
 23 24  1  0  0  0
 23 40  1  0  0  0
 23 41  1  0  0  0
 24 25  1  0  0  0
 24 42  1  0  0  0
 24 43  1  0  0  0
 25 26  1  0  0  0
 25 27  1  0  0  0
 25 44  1  0  0  0
 26 45  1  0  0  0
 26 46  1  0  0  0
 27 47  1  0  0  0
 27 48  1  0  0  0
M  END
> <s_m_entry_id>
3136

> <s_m_entry_name>
dock_pv.20

> <s_m_Source_Path>
/home/csk/Desktop/cluster/DUD-E-result/dpp4

> <s_m_Source_File>
dock_pv.maegz

> <i_m_Source_File_Index>
20

> <chembl_id>
CHEMBL387552

> <chembl_pref_name>
None

> <i_lp_mmshare_version>
53161

> <r_lp_tautomer_probability>
1

> <s_lp_Force_Field>
OPLS_2005

> <r_lp_Energy>
38.308112

> <b_lp_Chiralities_Consistent>
1

> <s_lp_Variant>
CHEMBL284_lig848-2

> <s_i_glide_gridfile>
glide-grid_2i78

> <i_i_glide_lignum>
1044

> <i_i_glide_rotatable_bonds>
3

> <r_i_docking_score>
-6.84713268994428

> <r_i_glide_ligand_efficiency>
-0.244540453212296

> <r_i_glide_ligand_efficiency_sa>
-0.742568842577137

> <r_i_glide_ligand_efficiency_ln>
-1.58051926539068

> <r_i_glide_gscore>
-6.84713268994428

> <r_i_glide_lipo>
-2.01450597692609

> <r_i_glide_hbond>
-0.735052776893928

> <r_i_glide_metal>
0

> <r_i_glide_rewards>
-1.01798941366091

> <r_i_glide_evdw>
-36.1788215637207

> <r_i_glide_ecoul>
-10.951265335083

> <r_i_glide_erotb>
0.377853608411132

> <r_i_glide_esite>
-0.00580725242600487

> <r_i_glide_emodel>
-64.0897987596259

> <r_i_glide_energy>
-47.1300868988037

> <r_i_glide_einternal>
3.6785876750946

> <i_i_glide_confnum>
4

> <i_i_glide_posenum>
379

> <r_i_glide_eff_state_penalty>
0

> <s_user_duplicate_titles>
CHEMBL284_lig848,377820

> <i_f3d_flags>
0

> <s_m_subgroup_title>
dock_pv

> <s_m_subgroupid>
dock_pv

> <b_m_subgroup_collapsed>
1

$$$$
CHEMBL284_lig929
                    3D
 Schrodinger Suite 2021-1.
 41 43  0  0  1  0            999 V2000
  -13.0604   -5.8492   57.0175 C   0  0  0  0  0  0
  -14.3971   -6.1771   56.8239 C   0  0  0  0  0  0
  -15.3632   -5.8170   57.7519 C   0  0  0  0  0  0
  -14.9969   -5.0961   58.8988 C   0  0  0  0  0  0
  -13.6575   -4.7170   59.0627 C   0  0  0  0  0  0
  -12.6947   -5.1090   58.1360 C   0  0  0  0  0  0
  -11.4085   -4.7598   58.3275 F   0  0  0  0  0  0
  -12.1266   -6.2408   56.1226 F   0  0  0  0  0  0
  -16.6348   -6.2272   57.5398 F   0  0  0  0  0  0
  -15.9609   -4.9318   60.0768 C   0  0  1  0  0  0
  -17.3556   -4.3731   59.7389 C   0  0  0  0  0  0
  -18.2813   -4.4194   60.9684 C   0  0  0  0  0  0
  -18.4445   -5.7961   61.4858 N   0  0  0  0  0  0
  -17.1360   -6.3113   61.9501 C   0  0  0  0  0  0
  -16.0482   -6.2559   60.8576 C   0  0  2  0  0  0
  -14.7538   -6.7090   61.3279 N   0  0  0  0  0  0
  -19.6667   -6.2590   61.9946 C   0  0  0  0  0  0
  -19.7622   -7.3421   62.8874 C   0  0  0  0  0  0
  -21.0182   -7.7824   63.3283 C   0  0  0  0  0  0
  -22.1611   -7.1151   62.8737 C   0  0  0  0  0  0
  -22.0065   -6.0478   61.9934 C   0  0  0  0  0  0
  -20.7945   -5.6260   61.5584 N   0  0  0  0  0  0
  -21.1101   -8.9422   64.3184 C   0  0  0  0  0  0
  -22.3428   -9.1070   64.8033 F   0  0  0  0  0  0
  -20.2845   -8.7106   65.3349 F   0  0  0  0  0  0
  -20.7407  -10.0764   63.7275 F   0  0  0  0  0  0
  -14.7001   -6.7354   55.9603 H   0  0  0  0  0  0
  -13.3348   -4.1864   59.9469 H   0  0  0  0  0  0
  -15.5039   -4.1953   60.7420 H   0  0  0  0  0  0
  -17.8551   -4.8887   58.9218 H   0  0  0  0  0  0
  -17.2634   -3.3278   59.4416 H   0  0  0  0  0  0
  -19.2356   -3.9880   60.6651 H   0  0  0  0  0  0
  -17.9016   -3.7811   61.7683 H   0  0  0  0  0  0
  -16.8654   -5.7625   62.8548 H   0  0  0  0  0  0
  -17.3041   -7.3741   62.1121 H   0  0  0  0  0  0
  -16.3513   -7.0213   60.1400 H   0  0  0  0  0  0
  -14.0534   -6.5399   60.6167 H   0  0  0  0  0  0
  -14.4774   -6.1173   62.1137 H   0  0  0  0  0  0
  -18.8863   -7.8468   63.2650 H   0  0  0  0  0  0
  -23.1494   -7.4129   63.1928 H   0  0  0  0  0  0
  -22.8649   -5.5123   61.6146 H   0  0  0  0  0  0
  1  8  1  0  0  0
  1  6  1  0  0  0
  1  2  2  0  0  0
  2  3  1  0  0  0
  2 27  1  0  0  0
  3  4  2  0  0  0
  3  9  1  0  0  0
  4 10  1  0  0  0
  4  5  1  0  0  0
  5  6  2  0  0  0
  5 28  1  0  0  0
  6  7  1  0  0  0
 10 15  1  0  0  0
 10 11  1  0  0  0
 10 29  1  0  0  0
 11 12  1  0  0  0
 11 30  1  0  0  0
 11 31  1  0  0  0
 12 13  1  0  0  0
 12 32  1  0  0  0
 12 33  1  0  0  0
 13 14  1  0  0  0
 13 17  1  0  0  0
 14 15  1  0  0  0
 14 34  1  0  0  0
 14 35  1  0  0  0
 15 16  1  0  0  0
 15 36  1  0  0  0
 16 37  1  0  0  0
 16 38  1  0  0  0
 17 18  2  0  0  0
 17 22  1  0  0  0
 18 19  1  0  0  0
 18 39  1  0  0  0
 19 20  2  0  0  0
 19 23  1  0  0  0
 20 21  1  0  0  0
 20 40  1  0  0  0
 21 22  2  0  0  0
 21 41  1  0  0  0
 23 24  1  0  0  0
 23 25  1  0  0  0
 23 26  1  0  0  0
M  END
> <s_m_entry_id>
3137

> <s_m_entry_name>
dock_pv.21

> <s_m_Source_Path>
/home/csk/Desktop/cluster/DUD-E-result/dpp4

> <s_m_Source_File>
dock_pv.maegz

> <i_m_Source_File_Index>
21

> <chembl_id>
CHEMBL389602

> <chembl_pref_name>
None

> <i_lp_mmshare_version>
53161

> <r_lp_tautomer_probability>
1

> <s_lp_Force_Field>
OPLS_2005

> <r_lp_Energy>
25.120059

> <b_lp_Chiralities_Consistent>
1

> <s_lp_Variant>
CHEMBL284_lig929-1

> <s_i_glide_gridfile>
glide-grid_2i78

> <i_i_glide_lignum>
1131

> <i_i_glide_rotatable_bonds>
3

> <r_i_docking_score>
-6.8305303601769

> <r_i_glide_ligand_efficiency>
-0.26271270616065

> <r_i_glide_ligand_efficiency_sa>
-0.778285358276344

> <r_i_glide_ligand_efficiency_ln>
-1.60412764228936

> <r_i_glide_gscore>
-6.8305303601769

> <r_i_glide_lipo>
-1.6072527350589

> <r_i_glide_hbond>
-0.381721433350877

> <r_i_glide_metal>
0

> <r_i_glide_rewards>
-2.42156221977222

> <r_i_glide_evdw>
-33.2313499450684

> <r_i_glide_ecoul>
-6.24115228652954

> <r_i_glide_erotb>
0.274679247404072

> <r_i_glide_esite>
-0.096932879166127

> <r_i_glide_emodel>
-51.368626042284

> <r_i_glide_energy>
-39.4725022315979

> <r_i_glide_einternal>
5.30307579040527

> <i_i_glide_confnum>
2

> <i_i_glide_posenum>
320

> <r_i_glide_eff_state_penalty>
0

> <s_user_duplicate_titles>
CHEMBL284_lig929,385288

> <i_f3d_flags>
0

> <s_m_subgroup_title>
dock_pv

> <s_m_subgroupid>
dock_pv

> <b_m_subgroup_collapsed>
1

$$$$
411591
                    3D
 Schrodinger Suite 2021-1.
 47 50  0  0  1  0            999 V2000
  -19.9792   -8.7372   63.2267 C   0  0  0  0  0  0
  -19.7735   -7.6941   62.3242 C   0  0  0  0  0  0
  -20.7527   -6.7090   62.1118 C   0  0  0  0  0  0
  -21.9493   -6.8130   62.8414 C   0  0  0  0  0  0
  -22.1704   -7.8639   63.7370 C   0  0  0  0  0  0
  -21.1773   -8.8276   63.9312 C   0  0  0  0  0  0
  -23.4556   -7.9379   64.4964 C   0  0  0  0  0  0
  -24.3574   -8.7090   64.1805 O   0  0  0  0  0  0
  -23.5000   -7.1096   65.5750 O   0  0  0  0  0  0
  -20.5340   -5.5889   61.1372 C   0  0  0  0  0  0
  -19.2556   -5.1785   60.7294 C   0  0  0  0  0  0
  -19.1548   -4.1082   59.8276 C   0  0  0  0  0  0
  -20.2642   -3.4855   59.3434 N   0  0  0  0  0  0
  -21.4598   -3.9401   59.7892 C   0  0  0  0  0  0
  -21.6474   -4.9587   60.6631 N   0  0  0  0  0  0
  -17.9136   -3.6833   59.3298 N   0  0  0  0  0  0
  -16.6085   -4.1362   59.8062 C   0  0  0  0  0  0
  -15.5075   -3.5325   58.9222 C   0  0  2  0  0  0
  -16.2497   -2.6160   57.9430 C   0  0  1  0  0  0
  -17.6436   -2.4754   58.5503 C   0  0  0  0  0  0
  -15.5981   -1.3499   57.6490 N   0  0  0  0  0  0
  -14.6146   -4.5737   58.2493 C   0  0  0  0  0  0
  -13.2444   -4.5972   58.5280 C   0  0  0  0  0  0
  -12.4159   -5.5090   57.8786 C   0  0  0  0  0  0
  -12.9372   -6.4177   56.9652 C   0  0  0  0  0  0
  -14.3000   -6.4136   56.7068 C   0  0  0  0  0  0
  -15.1416   -5.5090   57.3441 C   0  0  0  0  0  0
  -16.4641   -5.5483   57.0652 F   0  0  0  0  0  0
  -12.1299   -7.2935   56.3244 F   0  0  0  0  0  0
  -11.1000   -5.5048   58.1302 F   0  0  0  0  0  0
  -19.2088   -9.4794   63.3762 H   0  0  0  0  0  0
  -18.8379   -7.6698   61.7866 H   0  0  0  0  0  0
  -22.7210   -6.0675   62.7043 H   0  0  0  0  0  0
  -21.3202   -9.6428   64.6284 H   0  0  0  0  0  0
  -22.6179   -6.7308   65.7280 H   0  0  0  0  0  0
  -18.3699   -5.6618   61.1084 H   0  0  0  0  0  0
  -22.3444   -3.4492   59.4109 H   0  0  0  0  0  0
  -16.4991   -3.8383   60.8508 H   0  0  0  0  0  0
  -16.5867   -5.2270   59.7908 H   0  0  0  0  0  0
  -14.8830   -2.9232   59.5779 H   0  0  0  0  0  0
  -16.3739   -3.1323   56.9901 H   0  0  0  0  0  0
  -18.3875   -2.4119   57.7545 H   0  0  0  0  0  0
  -17.7893   -1.5776   59.1527 H   0  0  0  0  0  0
  -15.5258   -0.7929   58.4873 H   0  0  0  0  0  0
  -14.6461   -1.5003   57.3354 H   0  0  0  0  0  0
  -12.8049   -3.8986   59.2260 H   0  0  0  0  0  0
  -14.7000   -7.1090   55.9910 H   0  0  0  0  0  0
  1  6  1  0  0  0
  1  2  2  0  0  0
  1 31  1  0  0  0
  2  3  1  0  0  0
  2 32  1  0  0  0
  3  4  2  0  0  0
  3 10  1  0  0  0
  4  5  1  0  0  0
  4 33  1  0  0  0
  5  6  2  0  0  0
  5  7  1  0  0  0
  6 34  1  0  0  0
  7  8  2  0  0  0
  7  9  1  0  0  0
  9 35  1  0  0  0
 10 15  1  0  0  0
 10 11  2  0  0  0
 11 12  1  0  0  0
 11 36  1  0  0  0
 12 13  2  0  0  0
 12 16  1  0  0  0
 13 14  1  0  0  0
 14 15  2  0  0  0
 14 37  1  0  0  0
 16 20  1  0  0  0
 16 17  1  0  0  0
 17 18  1  0  0  0
 17 38  1  0  0  0
 17 39  1  0  0  0
 18 19  1  0  0  0
 18 22  1  0  0  0
 18 40  1  0  0  0
 19 20  1  0  0  0
 19 21  1  0  0  0
 19 41  1  0  0  0
 20 42  1  0  0  0
 20 43  1  0  0  0
 21 44  1  0  0  0
 21 45  1  0  0  0
 22 27  1  0  0  0
 22 23  2  0  0  0
 23 24  1  0  0  0
 23 46  1  0  0  0
 24 25  2  0  0  0
 24 30  1  0  0  0
 25 26  1  0  0  0
 25 29  1  0  0  0
 26 27  2  0  0  0
 26 47  1  0  0  0
 27 28  1  0  0  0
M  END
> <s_m_entry_id>
6145

> <s_m_entry_name>
ligand_docking-pose.1

> <s_m_Source_Path>
/home/csk/Desktop/cluster/DUD-E-result/dpp4

> <s_m_Source_File>
ligand_docking-pose.sdf

> <i_m_Source_File_Index>
1

> <i_lp_mmshare_version>
53161

> <i_f3d_flags>
0

> <r_lp_tautomer_probability>
1

> <s_lp_Force_Field>
OPLS_2005

> <r_lp_Energy>
34.872076

> <b_lp_Chiralities_Consistent>
1

> <s_lp_Variant>
411591-2

> <s_i_glide_gridfile>
glide-grid_2i78

> <i_i_glide_lignum>
700

> <i_i_glide_rotatable_bonds>
5

> <r_i_docking_score>
-7.54532151731131

> <r_i_glide_ligand_efficiency>
-0.25151071724371

> <r_i_glide_ligand_efficiency_sa>
-0.781502275329412

> <r_i_glide_ligand_efficiency_ln>
-1.71437926159579

> <r_i_glide_gscore>
-7.54532151731131

> <r_i_glide_lipo>
-2.28493725365624

> <r_i_glide_hbond>
-0.110777687953602

> <r_i_glide_metal>
0

> <r_i_glide_rewards>
-1.99940022992869

> <r_i_glide_evdw>
-36.6711273193359

> <r_i_glide_ecoul>
-11.0192527770996

> <r_i_glide_erotb>
0.459771757385988

> <r_i_glide_esite>
-0.123533820627038

> <r_i_glide_emodel>
-65.080834346287

> <r_i_glide_energy>
-47.6903800964355

> <r_i_glide_einternal>
8.51395893096924

> <i_i_glide_confnum>
18

> <i_i_glide_posenum>
67

> <r_i_glide_eff_state_penalty>
0

> <s_user_duplicate_titles>
411591

> <s_m_subgroup_title>
dock_pv

> <s_m_subgroupid>
dock_pv1

> <b_m_subgroup_collapsed>
0

$$$$
372142
                    3D
 Schrodinger Suite 2021-1.
 47 49  0  0  1  0            999 V2000
  -13.5425   -4.9484   60.5632 C   0  0  0  0  0  0
  -13.9670   -4.4454   59.1869 C   0  0  2  0  0  0
  -15.4934   -4.1456   58.9951 C   0  0  0  0  0  0
  -16.5152   -4.9348   59.7337 N   0  0  0  0  0  0
  -16.5610   -4.7480   61.2091 C   0  0  0  0  0  0
  -17.8760   -5.1651   61.8767 C   0  0  1  0  0  0
  -18.3433   -6.5231   61.3358 C   0  0  2  0  0  0
  -18.4599   -6.5077   59.7976 C   0  0  0  0  0  0
  -17.3415   -5.7686   59.0244 C   0  0  0  0  0  0
  -17.2663   -5.9096   57.8012 O   0  0  0  0  0  0
  -19.6262   -7.0249   62.0161 C   0  0  0  0  0  0
  -19.5918   -8.1812   62.8076 C   0  0  0  0  0  0
  -20.7402   -8.6237   63.4653 C   0  0  0  0  0  0
  -21.9351   -7.9133   63.3363 C   0  0  0  0  0  0
  -21.9793   -6.7621   62.5538 C   0  0  0  0  0  0
  -20.8340   -6.3162   61.8986 C   0  0  0  0  0  0
  -20.9106   -5.1891   61.1559 F   0  0  0  0  0  0
  -23.0540   -8.3461   63.9635 F   0  0  0  0  0  0
  -20.6996   -9.7457   64.2184 F   0  0  0  0  0  0
  -17.7764   -5.1074   63.3290 N   0  0  0  0  0  0
  -13.3013   -5.3158   58.1296 C   0  0  0  0  0  0
  -13.9897   -6.3407   57.4900 C   0  0  0  0  0  0
  -13.3508   -7.1090   56.5308 C   0  0  0  0  0  0
  -12.0233   -6.8689   56.2009 C   0  0  0  0  0  0
  -11.3240   -5.8646   56.8564 C   0  0  0  0  0  0
  -11.9504   -5.1090   57.8361 C   0  0  0  0  0  0
  -13.5019   -3.4647   59.0578 H   0  0  0  0  0  0
  -18.6134   -4.4033   61.6198 H   0  0  0  0  0  0
  -17.5590   -7.2415   61.5870 H   0  0  0  0  0  0
  -12.4593   -4.9377   60.6838 H   0  0  0  0  0  0
  -13.9477   -4.3090   61.3280 H   0  0  0  0  0  0
  -13.8999   -5.9624   60.7476 H   0  0  0  0  0  0
  -15.6486   -3.1259   59.3499 H   0  0  0  0  0  0
  -15.7174   -4.0731   57.9298 H   0  0  0  0  0  0
  -15.8469   -5.5047   61.5312 H   0  0  0  0  0  0
  -16.2065   -3.7507   61.4701 H   0  0  0  0  0  0
  -19.3831   -6.0204   59.4846 H   0  0  0  0  0  0
  -18.5110   -7.5271   59.4171 H   0  0  0  0  0  0
  -18.6708   -8.7338   62.9302 H   0  0  0  0  0  0
  -22.9030   -6.2119   62.4545 H   0  0  0  0  0  0
  -17.1727   -5.8406   63.6894 H   0  0  0  0  0  0
  -17.3641   -4.2330   63.6214 H   0  0  0  0  0  0
  -15.0015   -6.5811   57.7509 H   0  0  0  0  0  0
  -13.8994   -7.9097   56.0780 H   0  0  0  0  0  0
  -11.5280   -7.4682   55.4491 H   0  0  0  0  0  0
  -10.3003   -5.6599   56.6068 H   0  0  0  0  0  0
  -11.3922   -4.3368   58.3468 H   0  0  0  0  0  0
  1  2  1  0  0  0
  1 30  1  0  0  0
  1 31  1  0  0  0
  1 32  1  0  0  0
  2 27  1  0  0  0
  2  3  1  0  0  0
  2 21  1  0  0  0
  3  4  1  0  0  0
  3 33  1  0  0  0
  3 34  1  0  0  0
  4  9  1  0  0  0
  4  5  1  0  0  0
  5  6  1  0  0  0
  5 35  1  0  0  0
  5 36  1  0  0  0
  6 28  1  0  0  0
  6  7  1  0  0  0
  6 20  1  0  0  0
  7 29  1  0  0  0
  7  8  1  0  0  0
  7 11  1  0  0  0
  8  9  1  0  0  0
  8 37  1  0  0  0
  8 38  1  0  0  0
  9 10  2  0  0  0
 11 16  1  0  0  0
 11 12  2  0  0  0
 12 13  1  0  0  0
 12 39  1  0  0  0
 13 14  2  0  0  0
 13 19  1  0  0  0
 14 15  1  0  0  0
 14 18  1  0  0  0
 15 16  2  0  0  0
 15 40  1  0  0  0
 16 17  1  0  0  0
 20 41  1  0  0  0
 20 42  1  0  0  0
 21 26  1  0  0  0
 21 22  2  0  0  0
 22 23  1  0  0  0
 22 43  1  0  0  0
 23 24  2  0  0  0
 23 44  1  0  0  0
 24 25  1  0  0  0
 24 45  1  0  0  0
 25 26  2  0  0  0
 25 46  1  0  0  0
 26 47  1  0  0  0
M  END
> <s_m_entry_id>
6147

> <s_m_entry_name>
ligand_docking-pose.3

> <s_m_Source_Path>
/home/csk/Desktop/cluster/DUD-E-result/dpp4

> <s_m_Source_File>
ligand_docking-pose.sdf

> <i_m_Source_File_Index>
3

> <i_lp_mmshare_version>
53161

> <i_f3d_flags>
0

> <r_lp_tautomer_probability>
1

> <s_lp_Force_Field>
OPLS_2005

> <r_lp_Energy>
26.088438

> <b_lp_Chiralities_Consistent>
1

> <s_lp_Variant>
372142-1

> <s_i_glide_gridfile>
glide-grid_2i78

> <i_i_glide_lignum>
2384

> <i_i_glide_rotatable_bonds>
4

> <r_i_docking_score>
-7.1587599791841

> <r_i_glide_ligand_efficiency>
-0.275336922276311

> <r_i_glide_ligand_efficiency_sa>
-0.815684548845099

> <r_i_glide_ligand_efficiency_ln>
-1.68121129130398

> <r_i_glide_gscore>
-7.1587599791841

> <r_i_glide_lipo>
-2.53009500183014

> <r_i_glide_hbond>
-0.471293987037457

> <r_i_glide_metal>
0

> <r_i_glide_rewards>
-1.9010146551681

> <r_i_glide_evdw>
-34.5683212280273

> <r_i_glide_ecoul>
-7.28283500671387

> <r_i_glide_erotb>
0.584849484947532

> <r_i_glide_esite>
-0.020364507687477

> <r_i_glide_emodel>
-55.9476462006136

> <r_i_glide_energy>
-41.8511562347412

> <r_i_glide_einternal>
6.57970809936523

> <i_i_glide_confnum>
11

> <i_i_glide_posenum>
24

> <r_i_glide_eff_state_penalty>
0

> <s_user_duplicate_titles>
372142

> <s_m_subgroup_title>
dock_pv

> <s_m_subgroupid>
dock_pv1

> <b_m_subgroup_collapsed>
0

$$$$
334513
                    3D
 Schrodinger Suite 2021-1.
 42 44  0  0  1  0            999 V2000
  -17.2046   -4.8264   60.6560 C   0  0  0  0  0  0
  -17.9154   -5.6757   61.5040 C   0  0  0  0  0  0
  -19.2478   -6.0154   61.2273 C   0  0  0  0  0  0
  -19.8351   -5.5102   60.0611 C   0  0  0  0  0  0
  -19.1295   -4.6678   59.2106 C   0  0  0  0  0  0
  -17.8149   -4.3102   59.5078 C   0  0  0  0  0  0
  -17.1036   -3.3037   58.5995 C   0  0  0  0  0  0
  -15.6279   -3.6274   58.2421 C   0  0  1  0  0  0
  -15.3830   -5.0206   57.5906 C   0  0  0  0  0  0
  -16.2994   -5.5226   56.9284 O   0  0  0  0  0  0
  -14.1735   -5.6247   57.7539 N   0  0  0  0  0  0
  -13.0350   -5.0527   58.4883 C   0  0  0  0  0  0
  -11.7352   -5.5266   57.8117 C   0  0  0  0  0  0
  -12.1522   -6.7195   56.5282 S   0  0  0  0  0  0
  -13.8452   -6.8876   57.0965 C   0  0  0  0  0  0
  -15.1013   -2.6255   57.2955 N   0  0  0  0  0  0
  -20.0431   -6.8736   62.1578 C   0  0  0  0  0  0
  -21.4146   -6.6386   62.3395 C   0  0  0  0  0  0
  -22.1668   -7.4245   63.2068 C   0  0  0  0  0  0
  -21.5547   -8.4588   63.9036 C   0  0  0  0  0  0
  -20.1964   -8.7097   63.7377 C   0  0  0  0  0  0
  -19.4427   -7.9189   62.8731 C   0  0  0  0  0  0
  -22.2874   -9.2173   64.7496 F   0  0  0  0  0  0
  -15.0659   -3.5749   59.1745 H   0  0  0  0  0  0
  -16.1919   -4.5573   60.9174 H   0  0  0  0  0  0
  -17.4298   -6.0400   62.3987 H   0  0  0  0  0  0
  -20.8514   -5.7679   59.8021 H   0  0  0  0  0  0
  -19.6159   -4.2847   58.3248 H   0  0  0  0  0  0
  -17.1552   -2.3379   59.1047 H   0  0  0  0  0  0
  -17.6720   -3.1934   57.6731 H   0  0  0  0  0  0
  -13.0902   -5.5077   59.4774 H   0  0  0  0  0  0
  -13.0479   -3.9658   58.5668 H   0  0  0  0  0  0
  -11.2359   -4.7041   57.3040 H   0  0  0  0  0  0
  -11.0311   -5.9480   58.5270 H   0  0  0  0  0  0
  -14.4512   -7.1180   56.2195 H   0  0  0  0  0  0
  -13.8920   -7.7286   57.7889 H   0  0  0  0  0  0
  -15.8542   -2.1663   56.8021 H   0  0  0  0  0  0
  -14.5816   -1.8887   57.7554 H   0  0  0  0  0  0
  -21.9078   -5.8311   61.8194 H   0  0  0  0  0  0
  -23.2187   -7.2279   63.3465 H   0  0  0  0  0  0
  -19.7273   -9.5096   64.2870 H   0  0  0  0  0  0
  -18.3879   -8.1270   62.7619 H   0  0  0  0  0  0
  1  6  1  0  0  0
  1  2  2  0  0  0
  1 25  1  0  0  0
  2  3  1  0  0  0
  2 26  1  0  0  0
  3  4  2  0  0  0
  3 17  1  0  0  0
  4  5  1  0  0  0
  4 27  1  0  0  0
  5  6  2  0  0  0
  5 28  1  0  0  0
  6  7  1  0  0  0
  7  8  1  0  0  0
  7 29  1  0  0  0
  7 30  1  0  0  0
  8 24  1  0  0  0
  8  9  1  0  0  0
  8 16  1  0  0  0
  9 10  2  0  0  0
  9 11  1  0  0  0
 11 15  1  0  0  0
 11 12  1  0  0  0
 12 13  1  0  0  0
 12 31  1  0  0  0
 12 32  1  0  0  0
 13 14  1  0  0  0
 13 33  1  0  0  0
 13 34  1  0  0  0
 14 15  1  0  0  0
 15 35  1  0  0  0
 15 36  1  0  0  0
 16 37  1  0  0  0
 16 38  1  0  0  0
 17 22  1  0  0  0
 17 18  2  0  0  0
 18 19  1  0  0  0
 18 39  1  0  0  0
 19 20  2  0  0  0
 19 40  1  0  0  0
 20 21  1  0  0  0
 20 23  1  0  0  0
 21 22  2  0  0  0
 21 41  1  0  0  0
 22 42  1  0  0  0
M  END
> <s_m_entry_id>
6150

> <s_m_entry_name>
ligand_docking-pose.6

> <s_m_Source_Path>
/home/csk/Desktop/cluster/DUD-E-result/dpp4

> <s_m_Source_File>
ligand_docking-pose.sdf

> <i_m_Source_File_Index>
6

> <i_lp_mmshare_version>
53161

> <i_f3d_flags>
0

> <r_lp_tautomer_probability>
1

> <s_lp_Force_Field>
OPLS_2005

> <r_lp_Energy>
27.487475

> <b_lp_Chiralities_Consistent>
1

> <s_lp_Variant>
334513-1

> <s_i_glide_gridfile>
glide-grid_2i78

> <i_i_glide_lignum>
433

> <i_i_glide_rotatable_bonds>
5

> <r_i_docking_score>
-6.98207849696235

> <r_i_glide_ligand_efficiency>
-0.303568630302711

> <r_i_glide_ligand_efficiency_sa>
-0.863308802934347

> <r_i_glide_ligand_efficiency_ln>
-1.68832989055303

> <r_i_glide_gscore>
-6.98207849696235

> <r_i_glide_lipo>
-2.41763473389767

> <r_i_glide_hbond>
-0.289249311321479

> <r_i_glide_metal>
0

> <r_i_glide_rewards>
-1.73896623000889

> <r_i_glide_evdw>
-37.6768455505371

> <r_i_glide_ecoul>
-8.65817070007324

> <r_i_glide_erotb>
0.689073844127821

> <r_i_glide_esite>
-0.0427341833242909

> <r_i_glide_emodel>
-61.8785832707833

> <r_i_glide_energy>
-46.3350162506104

> <r_i_glide_einternal>
2.04873585700989

> <i_i_glide_confnum>
45

> <i_i_glide_posenum>
252

> <r_i_glide_eff_state_penalty>
0

> <s_user_duplicate_titles>
334513

> <s_m_subgroup_title>
dock_pv

> <s_m_subgroupid>
dock_pv1

> <b_m_subgroup_collapsed>
0

$$$$
643462
                    3D
 Schrodinger Suite 2021-1.
 49 52  0  0  1  0            999 V2000
  -16.1197   -0.9014   56.0275 C   0  0  0  0  0  0
  -16.4270   -1.9571   56.9974 N   0  0  0  0  0  0
  -17.1866   -1.7379   58.1054 C   0  0  0  0  0  0
  -17.7651   -0.7040   58.4406 O   0  0  0  0  0  0
  -17.1390   -2.9869   58.7652 C   0  0  0  0  0  0
  -16.3578   -3.8255   58.0707 C   0  0  0  0  0  0
  -16.3014   -5.0076   58.7688 N   0  0  0  0  0  0
  -17.1509   -4.7645   59.8549 C   0  0  0  0  0  0
  -17.6211   -3.5262   59.8647 N   0  0  0  0  0  0
  -17.4616   -5.6802   60.8337 N   0  0  0  0  0  0
  -17.7339   -7.1011   60.5775 C   0  0  0  0  0  0
  -19.0395   -7.5789   61.2389 C   0  0  0  0  0  0
  -19.0549   -7.2943   62.7440 C   0  0  0  0  0  0
  -18.7435   -5.8148   63.0158 C   0  0  2  0  0  0
  -17.4732   -5.3343   62.2711 C   0  0  0  0  0  0
  -18.7001   -5.5088   64.4319 N   0  0  0  0  0  0
  -15.5235   -6.2071   58.4210 C   0  0  0  0  0  0
  -14.0713   -6.0249   57.9422 C   0  0  0  0  0  0
  -13.6521   -6.7989   56.8496 C   0  0  0  0  0  0
  -12.3626   -6.7130   56.3395 C   0  0  0  0  0  0
  -11.4561   -5.8496   56.9284 C   0  0  0  0  0  0
  -11.8306   -5.1090   58.0421 C   0  0  0  0  0  0
  -13.1276   -5.1728   58.5638 C   0  0  0  0  0  0
  -13.4130   -4.3821   59.8413 C   0  0  0  0  0  0
  -12.3003   -4.1398   60.5279 F   0  0  0  0  0  0
  -13.9593   -3.2042   59.5465 F   0  0  0  0  0  0
  -14.2247   -5.0591   60.6451 F   0  0  0  0  0  0
  -15.8563   -3.1883   56.9281 C   0  0  0  0  0  0
  -15.0960   -3.6322   56.0732 O   0  0  0  0  0  0
  -16.1924    0.0902   56.4784 H   0  0  0  0  0  0
  -15.1017   -0.9975   55.6436 H   0  0  0  0  0  0
  -16.8125   -0.9505   55.1863 H   0  0  0  0  0  0
  -17.8336   -7.2563   59.5043 H   0  0  0  0  0  0
  -16.8782   -7.6941   60.9038 H   0  0  0  0  0  0
  -19.8964   -7.1209   60.7415 H   0  0  0  0  0  0
  -19.1506   -8.6515   61.0762 H   0  0  0  0  0  0
  -20.0212   -7.5714   63.1677 H   0  0  0  0  0  0
  -18.2952   -7.9196   63.2167 H   0  0  0  0  0  0
  -19.5731   -5.2418   62.6004 H   0  0  0  0  0  0
  -16.5522   -5.7454   62.6912 H   0  0  0  0  0  0
  -17.4661   -4.2447   62.2882 H   0  0  0  0  0  0
  -18.0008   -6.1267   64.8518 H   0  0  0  0  0  0
  -18.3748   -4.5606   64.5560 H   0  0  0  0  0  0
  -16.1056   -6.7101   57.6500 H   0  0  0  0  0  0
  -15.4793   -6.8690   59.2836 H   0  0  0  0  0  0
  -14.3095   -7.5077   56.3760 H   0  0  0  0  0  0
  -12.0690   -7.3142   55.4918 H   0  0  0  0  0  0
  -10.4576   -5.7567   56.5331 H   0  0  0  0  0  0
  -11.0993   -4.4572   58.4965 H   0  0  0  0  0  0
  1  2  1  0  0  0
  1 30  1  0  0  0
  1 31  1  0  0  0
  1 32  1  0  0  0
  2 28  1  0  0  0
  2  3  1  0  0  0
  3  4  2  0  0  0
  3  5  1  0  0  0
  5  9  1  0  0  0
  5  6  2  0  0  0
  6  7  1  0  0  0
  6 28  1  0  0  0
  7  8  1  0  0  0
  7 17  1  0  0  0
  8  9  2  0  0  0
  8 10  1  0  0  0
 10 15  1  0  0  0
 10 11  1  0  0  0
 11 12  1  0  0  0
 11 33  1  0  0  0
 11 34  1  0  0  0
 12 13  1  0  0  0
 12 35  1  0  0  0
 12 36  1  0  0  0
 13 14  1  0  0  0
 13 37  1  0  0  0
 13 38  1  0  0  0
 14 15  1  0  0  0
 14 16  1  0  0  0
 14 39  1  0  0  0
 15 40  1  0  0  0
 15 41  1  0  0  0
 16 42  1  0  0  0
 16 43  1  0  0  0
 17 18  1  0  0  0
 17 44  1  0  0  0
 17 45  1  0  0  0
 18 23  1  0  0  0
 18 19  2  0  0  0
 19 20  1  0  0  0
 19 46  1  0  0  0
 20 21  2  0  0  0
 20 47  1  0  0  0
 21 22  1  0  0  0
 21 48  1  0  0  0
 22 23  2  0  0  0
 22 49  1  0  0  0
 23 24  1  0  0  0
 24 25  1  0  0  0
 24 26  1  0  0  0
 24 27  1  0  0  0
 28 29  2  0  0  0
M  END
> <s_m_entry_id>
6153

> <s_m_entry_name>
ligand_docking-pose.9

> <s_m_Source_Path>
/home/csk/Desktop/cluster/DUD-E-result/dpp4

> <s_m_Source_File>
ligand_docking-pose.sdf

> <i_m_Source_File_Index>
9

> <i_lp_mmshare_version>
53161

> <i_f3d_flags>
0

> <r_lp_tautomer_probability>
1

> <s_lp_Force_Field>
OPLS_2005

> <r_lp_Energy>
68.166875

> <b_lp_Chiralities_Consistent>
1

> <s_lp_Variant>
643462-2

> <s_i_glide_gridfile>
glide-grid_2i78

> <i_i_glide_lignum>
2571

> <i_i_glide_rotatable_bonds>
4

> <r_i_docking_score>
-6.90479125019332

> <r_i_glide_ligand_efficiency>
-0.238096250006666

> <r_i_glide_ligand_efficiency_sa>
-0.731507114207117

> <r_i_glide_ligand_efficiency_ln>
-1.58102210589538

> <r_i_glide_gscore>
-6.90479125019332

> <r_i_glide_lipo>
-2.06332858261032

> <r_i_glide_hbond>
-0.555672272537884

> <r_i_glide_metal>
0

> <r_i_glide_rewards>
-1.57648562820423

> <r_i_glide_evdw>
-35.6047439575195

> <r_i_glide_ecoul>
-8.1284122467041

> <r_i_glide_erotb>
0.355578769421312

> <r_i_glide_esite>
-0.0653845013806045

> <r_i_glide_emodel>
-59.6956647722262

> <r_i_glide_energy>
-43.7331562042236

> <r_i_glide_einternal>
6.08334589004517

> <i_i_glide_confnum>
7

> <i_i_glide_posenum>
336

> <r_i_glide_eff_state_penalty>
0

> <s_user_duplicate_titles>
643462

> <s_m_subgroup_title>
dock_pv

> <s_m_subgroupid>
dock_pv1

> <b_m_subgroup_collapsed>
0

$$$$
372067
                    3D
 Schrodinger Suite 2021-1.
 47 49  0  0  1  0            999 V2000
  -19.0631   -8.5984   61.7282 C   0  0  0  0  0  0
  -19.3568   -7.2619   61.4846 C   0  0  0  0  0  0
  -20.2300   -6.5644   62.3196 C   0  0  0  0  0  0
  -20.9110   -7.2588   63.3280 C   0  0  0  0  0  0
  -20.6768   -8.6287   63.5427 C   0  0  0  0  0  0
  -19.7080   -9.2745   62.7621 C   0  0  0  0  0  0
  -21.4905   -9.4372   64.5230 C   0  0  0  0  0  0
  -21.4997  -10.6652   64.5006 O   0  0  0  0  0  0
  -22.2421   -8.7089   65.3909 O   0  0  0  0  0  0
  -20.4233   -5.0610   62.1336 C   0  0  0  0  0  0
  -19.1847   -4.2210   62.5438 C   0  0  0  0  0  0
  -18.0376   -4.3396   61.6230 N   0  0  0  0  0  0
  -16.9819   -5.2870   62.0483 C   0  0  0  0  0  0
  -16.1401   -5.8092   60.8725 C   0  0  1  0  0  0
  -15.6537   -4.6289   60.0252 C   0  0  2  0  0  0
  -16.8373   -3.7907   59.4979 C   0  0  0  0  0  0
  -18.0163   -3.5843   60.4789 C   0  0  0  0  0  0
  -18.9092   -2.7865   60.1941 O   0  0  0  0  0  0
  -14.6669   -5.0487   58.9270 C   0  0  0  0  0  0
  -13.3206   -4.6662   59.0217 C   0  0  0  0  0  0
  -12.3925   -5.1090   58.0816 C   0  0  0  0  0  0
  -12.7966   -5.9350   57.0354 C   0  0  0  0  0  0
  -14.1324   -6.3139   56.9280 C   0  0  0  0  0  0
  -15.0649   -5.8791   57.8667 C   0  0  0  0  0  0
  -16.3507   -6.2816   57.7385 F   0  0  0  0  0  0
  -11.8989   -6.3611   56.1176 F   0  0  0  0  0  0
  -11.1021   -4.7252   58.1741 F   0  0  0  0  0  0
  -15.0983   -6.7086   61.3280 N   0  0  0  0  0  0
  -16.7784   -6.4404   60.2549 H   0  0  0  0  0  0
  -15.0918   -3.9795   60.6995 H   0  0  0  0  0  0
  -18.3437   -9.1077   61.1065 H   0  0  0  0  0  0
  -18.8746   -6.7545   60.6659 H   0  0  0  0  0  0
  -21.6338   -6.7197   63.9224 H   0  0  0  0  0  0
  -19.4828  -10.3202   62.9269 H   0  0  0  0  0  0
  -21.8872   -7.8192   65.5127 H   0  0  0  0  0  0
  -20.7274   -4.8376   61.1103 H   0  0  0  0  0  0
  -21.2626   -4.7438   62.7532 H   0  0  0  0  0  0
  -19.4893   -3.1724   62.5434 H   0  0  0  0  0  0
  -18.9041   -4.4058   63.5822 H   0  0  0  0  0  0
  -16.3288   -4.6371   62.6340 H   0  0  0  0  0  0
  -17.3936   -6.0545   62.7075 H   0  0  0  0  0  0
  -17.2856   -4.2500   58.6190 H   0  0  0  0  0  0
  -16.4922   -2.8067   59.1811 H   0  0  0  0  0  0
  -12.9738   -4.0453   59.8350 H   0  0  0  0  0  0
  -14.4435   -6.9670   56.1282 H   0  0  0  0  0  0
  -14.5408   -6.2051   62.0170 H   0  0  0  0  0  0
  -15.5247   -7.4748   61.8342 H   0  0  0  0  0  0
  1  6  1  0  0  0
  1  2  2  0  0  0
  1 31  1  0  0  0
  2  3  1  0  0  0
  2 32  1  0  0  0
  3  4  2  0  0  0
  3 10  1  0  0  0
  4  5  1  0  0  0
  4 33  1  0  0  0
  5  6  2  0  0  0
  5  7  1  0  0  0
  6 34  1  0  0  0
  7  8  2  0  0  0
  7  9  1  0  0  0
  9 35  1  0  0  0
 10 11  1  0  0  0
 10 36  1  0  0  0
 10 37  1  0  0  0
 11 12  1  0  0  0
 11 38  1  0  0  0
 11 39  1  0  0  0
 12 17  1  0  0  0
 12 13  1  0  0  0
 13 14  1  0  0  0
 13 40  1  0  0  0
 13 41  1  0  0  0
 14 29  1  0  0  0
 14 15  1  0  0  0
 14 28  1  0  0  0
 15 30  1  0  0  0
 15 16  1  0  0  0
 15 19  1  0  0  0
 16 17  1  0  0  0
 16 42  1  0  0  0
 16 43  1  0  0  0
 17 18  2  0  0  0
 19 24  1  0  0  0
 19 20  2  0  0  0
 20 21  1  0  0  0
 20 44  1  0  0  0
 21 22  2  0  0  0
 21 27  1  0  0  0
 22 23  1  0  0  0
 22 26  1  0  0  0
 23 24  2  0  0  0
 23 45  1  0  0  0
 24 25  1  0  0  0
 28 46  1  0  0  0
 28 47  1  0  0  0
M  END
> <s_m_entry_id>
6157

> <s_m_entry_name>
ligand_docking-pose.13

> <s_m_Source_Path>
/home/csk/Desktop/cluster/DUD-E-result/dpp4

> <s_m_Source_File>
ligand_docking-pose.sdf

> <i_m_Source_File_Index>
13

> <i_lp_mmshare_version>
53161

> <i_f3d_flags>
0

> <r_lp_tautomer_probability>
1

> <s_lp_Force_Field>
OPLS_2005

> <r_lp_Energy>
26.901447

> <b_lp_Chiralities_Consistent>
1

> <s_lp_Variant>
372067-1

> <s_i_glide_gridfile>
glide-grid_2i78

> <i_i_glide_lignum>
704

> <i_i_glide_rotatable_bonds>
6

> <r_i_docking_score>
-6.8457550584283

> <r_i_glide_ligand_efficiency>
-0.244491252086725

> <r_i_glide_ligand_efficiency_sa>
-0.74241943898199

> <r_i_glide_ligand_efficiency_ln>
-1.58020126758777

> <r_i_glide_gscore>
-6.8457550584283

> <r_i_glide_lipo>
-1.71565990929162

> <r_i_glide_hbond>
-0.422921293456907

> <r_i_glide_metal>
0

> <r_i_glide_rewards>
-2.12670458932278

> <r_i_glide_evdw>
-36.7441711425781

> <r_i_glide_ecoul>
-8.95813941955566

> <r_i_glide_erotb>
0.634081950819424

> <r_i_glide_esite>
-0.0336217471141528

> <r_i_glide_emodel>
-62.0740303780198

> <r_i_glide_energy>
-45.7023105621338

> <r_i_glide_einternal>
7.22341775894165

> <i_i_glide_confnum>
9

> <i_i_glide_posenum>
359

> <r_i_glide_eff_state_penalty>
0

> <s_user_duplicate_titles>
372067

> <s_m_subgroup_title>
dock_pv

> <s_m_subgroupid>
dock_pv1

> <b_m_subgroup_collapsed>
0

$$$$
446936
                    3D
 Schrodinger Suite 2021-1.
 47 50  0  0  1  0            999 V2000
  -12.1955   -4.8894   58.5906 C   0  0  0  0  0  0
  -12.2024   -6.0567   57.6228 C   0  0  1  0  0  0
  -13.4125   -5.8112   56.7379 C   0  0  0  0  0  0
  -14.3581   -5.1655   57.6584 N   0  0  0  0  0  0
  -13.6821   -4.6171   58.8535 C   0  0  2  0  0  0
  -13.9501   -3.1888   59.1144 C   0  0  0  0  0  0
  -14.1679   -2.0721   59.3279 N   0  0  0  0  0  0
  -15.6995   -5.2972   57.4847 C   0  0  0  0  0  0
  -16.1806   -5.9086   56.5272 O   0  0  0  0  0  0
  -16.6882   -4.6971   58.4991 C   0  0  0  0  0  0
  -17.3355   -5.7992   59.1753 N   0  0  1  0  0  0
  -17.5283   -5.6113   60.6045 C   0  0  2  0  0  0
  -17.8178   -6.9629   61.3033 C   0  0  2  0  0  0
  -19.2359   -7.4582   60.9286 C   0  0  0  0  0  0
  -20.3276   -6.4350   61.3402 C   0  0  2  0  0  0
  -20.0196   -5.0911   60.6248 C   0  0  0  0  0  0
  -18.6073   -4.5526   60.9938 C   0  0  1  0  0  0
  -18.5376   -4.3500   62.5311 C   0  0  0  0  0  0
  -18.8207   -5.6739   63.2880 C   0  0  1  0  0  0
  -20.2203   -6.2066   62.8761 C   0  0  0  0  0  0
  -17.7660   -6.7142   62.8201 C   0  0  0  0  0  0
  -18.7000   -5.5087   64.6824 O   0  0  0  0  0  0
  -11.1001   -6.0412   56.8778 F   0  0  0  0  0  0
  -12.2659   -7.0202   58.1279 H   0  0  0  0  0  0
  -14.0078   -5.1885   59.7249 H   0  0  0  0  0  0
  -11.6988   -4.0327   58.1322 H   0  0  0  0  0  0
  -11.6526   -5.1082   59.5099 H   0  0  0  0  0  0
  -13.1061   -5.1092   55.9643 H   0  0  0  0  0  0
  -13.7585   -6.7613   56.3259 H   0  0  0  0  0  0
  -16.2206   -3.9977   59.1849 H   0  0  0  0  0  0
  -17.4272   -4.1051   57.9576 H   0  0  0  0  0  0
  -18.2448   -5.9558   58.7648 H   0  0  0  0  0  0
  -16.5668   -5.2627   60.9903 H   0  0  0  0  0  0
  -17.0678   -7.7068   61.0269 H   0  0  0  0  0  0
  -19.4329   -8.4240   61.3966 H   0  0  0  0  0  0
  -19.2694   -7.6391   59.8558 H   0  0  0  0  0  0
  -21.3205   -6.7976   61.0695 H   0  0  0  0  0  0
  -20.7767   -4.3516   60.8904 H   0  0  0  0  0  0
  -20.1079   -5.2150   59.5445 H   0  0  0  0  0  0
  -18.4190   -3.6036   60.4902 H   0  0  0  0  0  0
  -17.5591   -3.9564   62.8136 H   0  0  0  0  0  0
  -19.2564   -3.5887   62.8377 H   0  0  0  0  0  0
  -20.9909   -5.5051   63.2002 H   0  0  0  0  0  0
  -20.4361   -7.1362   63.4055 H   0  0  0  0  0  0
  -17.9008   -7.6693   63.3279 H   0  0  0  0  0  0
  -16.7632   -6.3654   63.0774 H   0  0  0  0  0  0
  -17.9637   -6.0791   64.9515 H   0  0  0  0  0  0
  1  5  1  0  0  0
  1  2  1  0  0  0
  1 26  1  0  0  0
  1 27  1  0  0  0
  2 24  1  0  0  0
  2  3  1  0  0  0
  2 23  1  0  0  0
  3  4  1  0  0  0
  3 28  1  0  0  0
  3 29  1  0  0  0
  4  5  1  0  0  0
  4  8  1  0  0  0
  5 25  1  0  0  0
  5  6  1  0  0  0
  6  7  3  0  0  0
  8  9  2  0  0  0
  8 10  1  0  0  0
 10 11  1  0  0  0
 10 30  1  0  0  0
 10 31  1  0  0  0
 11 12  1  0  0  0
 11 32  1  0  0  0
 12 17  1  0  0  0
 12 13  1  0  0  0
 12 33  1  0  0  0
 13 21  1  0  0  0
 13 14  1  0  0  0
 13 34  1  0  0  0
 14 15  1  0  0  0
 14 35  1  0  0  0
 14 36  1  0  0  0
 15 20  1  0  0  0
 15 16  1  0  0  0
 15 37  1  0  0  0
 16 17  1  0  0  0
 16 38  1  0  0  0
 16 39  1  0  0  0
 17 18  1  0  0  0
 17 40  1  0  0  0
 18 19  1  0  0  0
 18 41  1  0  0  0
 18 42  1  0  0  0
 19 20  1  0  0  0
 19 21  1  0  0  0
 19 22  1  0  0  0
 20 43  1  0  0  0
 20 44  1  0  0  0
 21 45  1  0  0  0
 21 46  1  0  0  0
 22 47  1  0  0  0
M  END
> <s_m_entry_id>
6158

> <s_m_entry_name>
ligand_docking-pose.14

> <s_m_Source_Path>
/home/csk/Desktop/cluster/DUD-E-result/dpp4

> <s_m_Source_File>
ligand_docking-pose.sdf

> <i_m_Source_File_Index>
14

> <i_lp_mmshare_version>
53161

> <i_f3d_flags>
0

> <r_lp_tautomer_probability>
1

> <s_lp_Force_Field>
OPLS_2005

> <r_lp_Energy>
55.226921

> <b_lp_Chiralities_Consistent>
1

> <s_lp_Variant>
446936-2

> <s_i_glide_gridfile>
glide-grid_2i78

> <i_i_glide_lignum>
1174

> <i_i_glide_rotatable_bonds>
5

> <r_i_docking_score>
-6.83421694380612

> <r_i_glide_ligand_efficiency>
-0.297139867122005

> <r_i_glide_ligand_efficiency_sa>
-0.84502625562256

> <r_i_glide_ligand_efficiency_ln>
-1.65257562626541

> <r_i_glide_gscore>
-6.83421694380612

> <r_i_glide_lipo>
-1.16786944543917

> <r_i_glide_hbond>
-0.909122051304044

> <r_i_glide_metal>
0

> <r_i_glide_rewards>
-2.34127069558153

> <r_i_glide_evdw>
-25.5312175750732

> <r_i_glide_ecoul>
-12.4200868606567

> <r_i_glide_erotb>
0.7236191563708

> <r_i_glide_esite>
0

> <r_i_glide_emodel>
-48.9190540220911

> <r_i_glide_energy>
-37.95130443573

> <r_i_glide_einternal>
9.83367824554443

> <i_i_glide_confnum>
55

> <i_i_glide_posenum>
145

> <r_i_glide_eff_state_penalty>
0

> <s_user_duplicate_titles>
446936

> <s_m_subgroup_title>
dock_pv

> <s_m_subgroupid>
dock_pv1

> <b_m_subgroup_collapsed>
0

$$$$
316813
                    3D
 Schrodinger Suite 2021-1.
 49 53  0  0  1  0            999 V2000
  -11.9338   -5.1121   58.1262 C   0  0  0  0  0  0
  -13.1748   -4.8533   58.9978 C   0  0  2  0  0  0
  -14.2491   -5.5880   58.3131 N   0  0  0  0  0  0
  -13.9070   -5.9091   56.9300 C   0  0  1  0  0  0
  -12.4156   -5.7709   56.8306 C   0  0  2  0  0  0
  -13.0315   -7.1450   56.9823 C   0  0  0  0  0  0
  -15.4612   -5.8827   58.8470 C   0  0  0  0  0  0
  -16.3936   -6.3076   58.1594 O   0  0  0  0  0  0
  -15.6312   -5.7362   60.3923 C   0  0  1  0  0  0
  -17.0970   -5.7427   60.9873 C   0  0  1  0  0  0
  -17.8281   -7.1187   60.8309 C   0  0  0  0  0  0
  -19.2500   -7.1096   61.4629 C   0  0  1  0  0  0
  -19.1157   -6.7698   62.9698 C   0  0  0  0  0  0
  -18.4229   -5.4009   63.1936 C   0  0  1  0  0  0
  -17.0343   -5.4283   62.5155 C   0  0  0  0  0  0
  -19.2701   -4.3184   62.4788 C   0  0  0  0  0  0
  -19.4166   -4.5934   60.9576 C   0  0  2  0  0  0
  -20.0784   -5.9837   60.7901 C   0  0  0  0  0  0
  -17.9901   -4.6309   60.3448 C   0  0  0  0  0  0
  -20.1991   -3.5796   60.3655 O   0  0  0  0  0  0
  -18.3016   -5.1067   64.5710 O   0  0  0  0  0  0
  -14.7060   -6.7090   61.0270 N   0  0  0  0  0  0
  -13.5616   -3.4398   59.1754 C   0  0  0  0  0  0
  -13.8872   -2.3396   59.3280 N   0  0  0  0  0  0
  -12.9853   -5.2348   59.9976 H   0  0  0  0  0  0
  -11.3463   -4.2141   57.9440 H   0  0  0  0  0  0
  -11.2495   -5.7987   58.6270 H   0  0  0  0  0  0
  -14.6204   -5.7185   56.1281 H   0  0  0  0  0  0
  -11.9488   -5.4780   55.8922 H   0  0  0  0  0  0
  -12.9045   -7.6951   57.9167 H   0  0  0  0  0  0
  -13.0352   -7.8215   56.1273 H   0  0  0  0  0  0
  -15.2612   -4.7348   60.6187 H   0  0  0  0  0  0
  -17.9185   -7.4010   59.7843 H   0  0  0  0  0  0
  -17.2306   -7.9099   61.2895 H   0  0  0  0  0  0
  -19.7367   -8.0786   61.3301 H   0  0  0  0  0  0
  -18.5589   -7.5604   63.4731 H   0  0  0  0  0  0
  -20.1019   -6.7690   63.4376 H   0  0  0  0  0  0
  -16.4113   -6.1719   63.0147 H   0  0  0  0  0  0
  -16.5299   -4.4734   62.6818 H   0  0  0  0  0  0
  -20.2568   -4.2577   62.9411 H   0  0  0  0  0  0
  -18.8225   -3.3368   62.6371 H   0  0  0  0  0  0
  -21.0877   -5.9733   61.2046 H   0  0  0  0  0  0
  -20.2037   -6.2076   59.7298 H   0  0  0  0  0  0
  -17.5139   -3.6550   60.4623 H   0  0  0  0  0  0
  -18.0803   -4.7791   59.2693 H   0  0  0  0  0  0
  -20.3254   -3.7997   59.4400 H   0  0  0  0  0  0
  -17.6844   -5.7590   64.9279 H   0  0  0  0  0  0
  -13.7871   -6.7094   60.5929 H   0  0  0  0  0  0
  -14.5515   -6.4162   61.9888 H   0  0  0  0  0  0
  1  5  1  0  0  0
  1  2  1  0  0  0
  1 26  1  0  0  0
  1 27  1  0  0  0
  2 25  1  0  0  0
  2  3  1  0  0  0
  2 23  1  0  0  0
  3  4  1  0  0  0
  3  7  1  0  0  0
  4  6  1  0  0  0
  4  5  1  0  0  0
  4 28  1  0  0  0
  5  6  1  0  0  0
  5 29  1  0  0  0
  6 30  1  0  0  0
  6 31  1  0  0  0
  7  8  2  0  0  0
  7  9  1  0  0  0
  9 10  1  0  0  0
  9 22  1  0  0  0
  9 32  1  0  0  0
 10 15  1  0  0  0
 10 19  1  0  0  0
 10 11  1  0  0  0
 11 12  1  0  0  0
 11 33  1  0  0  0
 11 34  1  0  0  0
 12 18  1  0  0  0
 12 13  1  0  0  0
 12 35  1  0  0  0
 13 14  1  0  0  0
 13 36  1  0  0  0
 13 37  1  0  0  0
 14 15  1  0  0  0
 14 16  1  0  0  0
 14 21  1  0  0  0
 15 38  1  0  0  0
 15 39  1  0  0  0
 16 17  1  0  0  0
 16 40  1  0  0  0
 16 41  1  0  0  0
 17 18  1  0  0  0
 17 19  1  0  0  0
 17 20  1  0  0  0
 18 42  1  0  0  0
 18 43  1  0  0  0
 19 44  1  0  0  0
 19 45  1  0  0  0
 20 46  1  0  0  0
 21 47  1  0  0  0
 22 48  1  0  0  0
 22 49  1  0  0  0
 23 24  3  0  0  0
M  END
> <s_m_entry_id>
6161

> <s_m_entry_name>
ligand_docking-pose.17

> <s_m_Source_Path>
/home/csk/Desktop/cluster/DUD-E-result/dpp4

> <s_m_Source_File>
ligand_docking-pose.sdf

> <i_m_Source_File_Index>
17

> <i_lp_mmshare_version>
53161

> <i_f3d_flags>
0

> <r_lp_tautomer_probability>
1

> <s_lp_Force_Field>
OPLS_2005

> <r_lp_Energy>
75.775591

> <b_lp_Chiralities_Consistent>
1

> <s_lp_Variant>
316813-3

> <s_i_glide_gridfile>
glide-grid_2i78

> <i_i_glide_lignum>
1191

> <i_i_glide_rotatable_bonds>
5

> <r_i_docking_score>
-6.80595764445216

> <r_i_glide_ligand_efficiency>
-0.28358156851884

> <r_i_glide_ligand_efficiency_sa>
-0.817990789820256

> <r_i_glide_ligand_efficiency_ln>
-1.62897796936364

> <r_i_glide_gscore>
-6.80595764445216

> <r_i_glide_lipo>
-1.46328975491142

> <r_i_glide_hbond>
-0.549445993204034

> <r_i_glide_metal>
0

> <r_i_glide_rewards>
-1.86264994596641

> <r_i_glide_evdw>
-35.2330703735352

> <r_i_glide_ecoul>
-11.220006942749

> <r_i_glide_erotb>
0.514082609718827

> <r_i_glide_esite>
0

> <r_i_glide_emodel>
-63.0530565781255

> <r_i_glide_energy>
-46.4530773162842

> <r_i_glide_einternal>
4.97012662887573

> <i_i_glide_confnum>
10

> <i_i_glide_posenum>
188

> <r_i_glide_eff_state_penalty>
0

> <s_user_duplicate_titles>
316813

> <s_m_subgroup_title>
dock_pv

> <s_m_subgroupid>
dock_pv1

> <b_m_subgroup_collapsed>
0

$$$$
