CHEMBL4581_lig61
                    3D
 Schrodinger Suite 2021-1.
 46 49  0  0  1  0            999 V2000
   22.7121   15.4111  105.2244 C   0  0  0  0  0  0
   21.6996   16.3327  105.4583 C   0  0  0  0  0  0
   20.7166   16.0492  106.4049 C   0  0  0  0  0  0
   20.7179   14.8382  107.1237 C   0  0  0  0  0  0
   21.7755   13.9368  106.8912 C   0  0  0  0  0  0
   22.7537   14.2354  105.9492 C   0  0  0  0  0  0
   19.5992   14.5606  108.0597 C   0  0  0  0  0  0
   18.3321   15.3783  108.0543 C   0  0  0  0  0  0
   17.4934   14.7932  109.0851 N   0  0  0  0  0  0
   18.1141   13.5621  109.5872 C   0  0  1  0  0  0
   19.4954   13.5630  108.9589 C   0  0  0  0  0  0
   18.1251   13.4092  111.1114 C   0  0  0  0  0  0
   19.0225   14.1377  111.9026 C   0  0  0  0  0  0
   19.0434   13.9630  113.2855 C   0  0  0  0  0  0
   18.1530   13.0749  113.8871 C   0  0  0  0  0  0
   17.2409   12.3626  113.1137 C   0  0  0  0  0  0
   17.2425   12.5106  111.7259 C   0  0  0  0  0  0
   16.2599   15.2583  109.4029 C   0  0  0  0  0  0
   15.7970   16.6245  108.8071 C   0  0  2  0  0  0
   15.5180   14.6305  110.1592 O   0  0  0  0  0  0
   21.9053   12.7777  107.5756 F   0  0  0  0  0  0
   21.6555   17.4848  104.7549 F   0  0  0  0  0  0
   16.3179   11.5620  113.7318 O   0  0  0  0  0  0
   16.3852   17.9048  109.4715 C   0  0  0  0  0  0
   14.3844   16.7407  108.8802 O   0  0  0  0  0  0
   16.2417   18.1429  110.9587 C   0  0  0  0  0  0
   17.6162   17.9173  110.3638 C   0  0  0  0  0  0
   23.4666   15.5620  104.4753 H   0  0  0  0  0  0
   19.9426   16.7876  106.5517 H   0  0  0  0  0  0
   23.5650   13.5619  105.7642 H   0  0  0  0  0  0
   17.8361   15.3438  107.0830 H   0  0  0  0  0  0
   18.5319   16.4284  108.2691 H   0  0  0  0  0  0
   17.5586   12.7125  109.1842 H   0  0  0  0  0  0
   20.2107   12.7864  109.1804 H   0  0  0  0  0  0
   19.7089   14.8353  111.4448 H   0  0  0  0  0  0
   19.7442   14.5202  113.8894 H   0  0  0  0  0  0
   18.1569   12.9490  114.9589 H   0  0  0  0  0  0
   16.5341   11.9563  111.1268 H   0  0  0  0  0  0
   16.0391   16.6306  107.7443 H   0  0  0  0  0  0
   15.6757   11.1630  113.1261 H   0  0  0  0  0  0
   16.2378   18.7748  108.8287 H   0  0  0  0  0  0
   14.1538   17.0140  109.7719 H   0  0  0  0  0  0
   15.8039   17.3636  111.5837 H   0  0  0  0  0  0
   15.9765   19.1428  111.3057 H   0  0  0  0  0  0
   18.3023   18.7619  110.2859 H   0  0  0  0  0  0
   18.1415   16.9951  110.6123 H   0  0  0  0  0  0
  1  6  1  0  0  0
  1  2  2  0  0  0
  1 28  1  0  0  0
  2 22  1  0  0  0
  2  3  1  0  0  0
  3  4  2  0  0  0
  3 29  1  0  0  0
  4  7  1  0  0  0
  4  5  1  0  0  0
  5  6  2  0  0  0
  5 21  1  0  0  0
  6 30  1  0  0  0
  7  8  1  0  0  0
  7 11  2  0  0  0
  8  9  1  0  0  0
  8 31  1  0  0  0
  8 32  1  0  0  0
  9 10  1  0  0  0
  9 18  1  0  0  0
 10 11  1  0  0  0
 10 12  1  0  0  0
 10 33  1  0  0  0
 11 34  1  0  0  0
 12 13  2  0  0  0
 12 17  1  0  0  0
 13 14  1  0  0  0
 13 35  1  0  0  0
 14 15  2  0  0  0
 14 36  1  0  0  0
 15 16  1  0  0  0
 15 37  1  0  0  0
 16 17  2  0  0  0
 16 23  1  0  0  0
 17 38  1  0  0  0
 18 19  1  0  0  0
 18 20  2  0  0  0
 19 24  1  0  0  0
 19 25  1  0  0  0
 19 39  1  0  0  0
 23 40  1  0  0  0
 24 26  1  0  0  0
 24 27  1  0  0  0
 24 41  1  0  0  0
 25 42  1  0  0  0
 26 27  1  0  0  0
 26 43  1  0  0  0
 26 44  1  0  0  0
 27 45  1  0  0  0
 27 46  1  0  0  0
M  END
> <s_m_entry_id>
3

> <s_m_entry_name>
dock_pv.2

> <s_m_Source_Path>
/home/csk/Desktop/cluster/DUD-E-result/kif11

> <s_m_Source_File>
dock_pv.maegz

> <i_m_Source_File_Index>
2

> <chembl_id>
CHEMBL377596

> <chembl_pref_name>
None

> <i_lp_mmshare_version>
53161

> <i_f3d_flags>
0

> <r_lp_tautomer_probability>
0.999999999997365

> <s_lp_Force_Field>
OPLS_2005

> <r_lp_Energy>
38.188549

> <b_lp_Chiralities_Consistent>
1

> <s_lp_Variant>
CHEMBL4581_lig61-1

> <s_i_glide_gridfile>
glide-grid_3cjo

> <i_i_glide_lignum>
91

> <i_i_glide_rotatable_bonds>
7

> <r_i_docking_score>
-9.94418318691499

> <r_i_glide_ligand_efficiency>
-0.368303080996851

> <r_i_glide_ligand_efficiency_sa>
-1.10490924177669

> <r_i_glide_ligand_efficiency_ln>
-2.31484190324116

> <r_i_glide_gscore>
-9.94418318691499

> <r_i_glide_lipo>
-5.08786988861494

> <r_i_glide_hbond>
-0.32

> <r_i_glide_metal>
0

> <r_i_glide_rewards>
-2.06342631299683

> <r_i_glide_evdw>
-43.8353576660156

> <r_i_glide_ecoul>
-6.53922653198242

> <r_i_glide_erotb>
0.699764877794927

> <r_i_glide_esite>
0

> <r_i_glide_emodel>
-75.7844348667361

> <r_i_glide_energy>
-50.374584197998

> <r_i_glide_einternal>
6.82412528991699

> <i_i_glide_confnum>
25

> <i_i_glide_posenum>
247

> <r_i_glide_eff_state_penalty>
0

> <s_user_duplicate_titles>
CHEMBL4581_lig61,344125

> <s_m_subgroup_title>
dock_pv

> <s_m_subgroupid>
dock_pv

> <b_m_subgroup_collapsed>
1

$$$$
CHEMBL4581_lig62
                    3D
 Schrodinger Suite 2021-1.
 47 50  0  0  1  0            999 V2000
   22.7137   15.4102  105.2154 C   0  0  0  0  0  0
   21.6995   16.3303  105.4484 C   0  0  0  0  0  0
   20.7156   16.0457  106.3936 C   0  0  0  0  0  0
   20.7179   14.8349  107.1126 C   0  0  0  0  0  0
   21.7780   13.9357  106.8819 C   0  0  0  0  0  0
   22.7567   14.2350  105.9409 C   0  0  0  0  0  0
   19.6025   14.5556  108.0503 C   0  0  0  0  0  0
   18.3291   15.3619  108.0339 C   0  0  0  0  0  0
   17.4922   14.7764  109.0654 N   0  0  0  0  0  0
   18.1259   13.5603  109.5843 C   0  0  1  0  0  0
   19.5079   13.5658  108.9590 C   0  0  0  0  0  0
   18.1302   13.4122  111.1100 C   0  0  0  0  0  0
   19.0263   14.1395  111.9038 C   0  0  0  0  0  0
   19.0449   13.9624  113.2865 C   0  0  0  0  0  0
   18.1543   13.0733  113.8865 C   0  0  0  0  0  0
   17.2432   12.3621  113.1106 C   0  0  0  0  0  0
   17.2469   12.5127  111.7228 C   0  0  0  0  0  0
   16.2565   15.2309  109.3870 C   0  0  0  0  0  0
   15.7792   16.5962  108.7853 C   0  0  2  0  0  0
   15.5180   14.6174  110.1590 O   0  0  0  0  0  0
   21.9091   12.7767  107.5664 F   0  0  0  0  0  0
   21.6550   17.4826  104.7452 F   0  0  0  0  0  0
   16.3180   11.5620  113.7263 O   0  0  0  0  0  0
   16.3465   17.8791  109.4582 C   0  0  0  0  0  0
   14.3043   16.6477  108.7673 N   0  0  0  0  0  0
   16.2716   18.0597  110.9590 C   0  0  0  0  0  0
   17.6193   17.9204  110.2906 C   0  0  0  0  0  0
   23.4690   15.5620  104.4672 H   0  0  0  0  0  0
   19.9407   16.7834  106.5397 H   0  0  0  0  0  0
   23.5693   13.5620  105.7588 H   0  0  0  0  0  0
   17.8370   15.3130  107.0611 H   0  0  0  0  0  0
   18.5175   16.4160  108.2387 H   0  0  0  0  0  0
   17.5824   12.7009  109.1855 H   0  0  0  0  0  0
   20.2304   12.7982  109.1888 H   0  0  0  0  0  0
   19.7145   14.8371  111.4487 H   0  0  0  0  0  0
   19.7454   14.5186  113.8918 H   0  0  0  0  0  0
   18.1572   12.9461  114.9589 H   0  0  0  0  0  0
   16.5396   11.9587  111.1224 H   0  0  0  0  0  0
   16.0932   16.6078  107.7418 H   0  0  0  0  0  0
   15.6768   11.1622  113.1202 H   0  0  0  0  0  0
   16.1037   18.7637  108.8667 H   0  0  0  0  0  0
   13.9210   15.7118  108.7619 H   0  0  0  0  0  0
   13.9571   17.1041  109.5988 H   0  0  0  0  0  0
   15.9137   17.2391  111.5817 H   0  0  0  0  0  0
   15.9884   19.0344  111.3588 H   0  0  0  0  0  0
   18.2602   18.7998  110.2211 H   0  0  0  0  0  0
   18.1925   17.0174  110.4989 H   0  0  0  0  0  0
  1  6  1  0  0  0
  1  2  2  0  0  0
  1 28  1  0  0  0
  2 22  1  0  0  0
  2  3  1  0  0  0
  3  4  2  0  0  0
  3 29  1  0  0  0
  4  7  1  0  0  0
  4  5  1  0  0  0
  5  6  2  0  0  0
  5 21  1  0  0  0
  6 30  1  0  0  0
  7  8  1  0  0  0
  7 11  2  0  0  0
  8  9  1  0  0  0
  8 31  1  0  0  0
  8 32  1  0  0  0
  9 10  1  0  0  0
  9 18  1  0  0  0
 10 11  1  0  0  0
 10 12  1  0  0  0
 10 33  1  0  0  0
 11 34  1  0  0  0
 12 13  2  0  0  0
 12 17  1  0  0  0
 13 14  1  0  0  0
 13 35  1  0  0  0
 14 15  2  0  0  0
 14 36  1  0  0  0
 15 16  1  0  0  0
 15 37  1  0  0  0
 16 17  2  0  0  0
 16 23  1  0  0  0
 17 38  1  0  0  0
 18 19  1  0  0  0
 18 20  2  0  0  0
 19 24  1  0  0  0
 19 25  1  0  0  0
 19 39  1  0  0  0
 23 40  1  0  0  0
 24 26  1  0  0  0
 24 27  1  0  0  0
 24 41  1  0  0  0
 25 42  1  0  0  0
 25 43  1  0  0  0
 26 27  1  0  0  0
 26 44  1  0  0  0
 26 45  1  0  0  0
 27 46  1  0  0  0
 27 47  1  0  0  0
M  END
> <s_m_entry_id>
4

> <s_m_entry_name>
dock_pv.3

> <s_m_Source_Path>
/home/csk/Desktop/cluster/DUD-E-result/kif11

> <s_m_Source_File>
dock_pv.maegz

> <i_m_Source_File_Index>
3

> <chembl_id>
CHEMBL206115

> <chembl_pref_name>
None

> <i_lp_mmshare_version>
53161

> <i_f3d_flags>
0

> <r_lp_tautomer_probability>
0.999999999997365

> <s_lp_Force_Field>
OPLS_2005

> <r_lp_Energy>
36.77098

> <b_lp_Chiralities_Consistent>
1

> <s_lp_Variant>
CHEMBL4581_lig62-1

> <s_i_glide_gridfile>
glide-grid_3cjo

> <i_i_glide_lignum>
92

> <i_i_glide_rotatable_bonds>
6

> <r_i_docking_score>
-9.92624050743533

> <r_i_glide_ligand_efficiency>
-0.36763853731242

> <r_i_glide_ligand_efficiency_sa>
-1.10291561072558

> <r_i_glide_ligand_efficiency_ln>
-2.31066514326648

> <r_i_glide_gscore>
-9.92624050743533

> <r_i_glide_lipo>
-5.08812285260279

> <r_i_glide_hbond>
-0.32

> <r_i_glide_metal>
0

> <r_i_glide_rewards>
-2.07049903528812

> <r_i_glide_evdw>
-43.8785285949707

> <r_i_glide_ecoul>
-6.37857580184937

> <r_i_glide_erotb>
0.703094180481518

> <r_i_glide_esite>
0

> <r_i_glide_emodel>
-74.5152359269853

> <r_i_glide_energy>
-50.2571043968201

> <r_i_glide_einternal>
8.01437854766846

> <i_i_glide_confnum>
71

> <i_i_glide_posenum>
103

> <r_i_glide_eff_state_penalty>
0

> <s_user_duplicate_titles>
CHEMBL4581_lig62,344118

> <s_m_subgroup_title>
dock_pv

> <s_m_subgroupid>
dock_pv

> <b_m_subgroup_collapsed>
1

$$$$
CHEMBL4581_lig30
                    3D
 Schrodinger Suite 2021-1.
 37 39  0  0  1  0            999 V2000
   17.7712   15.5184  109.5473 N   0  0  0  0  0  0
   18.7385   15.9053  108.6782 N   0  0  0  0  0  0
   19.4179   14.9078  108.2720 C   0  0  0  0  0  0
   17.7978   14.0681  109.7760 C   0  0  1  0  0  0
   18.9519   13.6191  108.9027 C   0  0  0  0  0  0
   20.5134   14.9796  107.2782 C   0  0  0  0  0  0
   16.7873   16.3612  109.9580 C   0  0  0  0  0  0
   17.9652   13.6758  111.2423 C   0  0  0  0  0  0
   21.4778   13.9620  107.1263 C   0  0  0  0  0  0
   20.6225   16.1237  106.4659 C   0  0  0  0  0  0
   17.1180   12.7175  111.8072 C   0  0  0  0  0  0
   15.7875   15.9656  110.5590 O   0  0  0  0  0  0
   22.4714   14.0735  106.1590 C   0  0  0  0  0  0
   21.6387   16.2387  105.5189 C   0  0  0  0  0  0
   17.2339   12.3875  113.1574 C   0  0  0  0  0  0
   21.5180   12.8742  107.9288 F   0  0  0  0  0  0
   22.5591   15.2080  105.3590 C   0  0  0  0  0  0
   21.7196   17.3402  104.7414 F   0  0  0  0  0  0
   16.3180   11.5620  113.7536 O   0  0  0  0  0  0
   18.9675   14.2608  112.0254 C   0  0  0  0  0  0
   16.9207   17.8656  109.6866 C   0  0  0  0  0  0
   19.1162   13.8934  113.3590 C   0  0  0  0  0  0
   18.2482   12.9580  113.9216 C   0  0  0  0  0  0
   16.8503   13.6627  109.4106 H   0  0  0  0  0  0
   19.7452   13.1531  109.4883 H   0  0  0  0  0  0
   18.5920   12.9143  108.1590 H   0  0  0  0  0  0
   19.9201   16.9410  106.5590 H   0  0  0  0  0  0
   16.3348   12.2685  111.2134 H   0  0  0  0  0  0
   23.1717   13.2661  106.0344 H   0  0  0  0  0  0
   23.3311   15.2821  104.6087 H   0  0  0  0  0  0
   15.6574   11.1998  113.1452 H   0  0  0  0  0  0
   19.6354   14.9951  111.5981 H   0  0  0  0  0  0
   16.6531   18.0874  108.6537 H   0  0  0  0  0  0
   16.2607   18.4329  110.3433 H   0  0  0  0  0  0
   17.9410   18.2089  109.8626 H   0  0  0  0  0  0
   19.8952   14.3403  113.9590 H   0  0  0  0  0  0
   18.3481   12.6883  114.9590 H   0  0  0  0  0  0
  1  2  1  0  0  0
  1  4  1  0  0  0
  1  7  1  0  0  0
  2  3  2  0  0  0
  3  6  1  0  0  0
  3  5  1  0  0  0
  4  5  1  0  0  0
  4  8  1  0  0  0
  4 24  1  0  0  0
  5 25  1  0  0  0
  5 26  1  0  0  0
  6  9  2  0  0  0
  6 10  1  0  0  0
  7 12  2  0  0  0
  7 21  1  0  0  0
  8 11  1  0  0  0
  8 20  2  0  0  0
  9 13  1  0  0  0
  9 16  1  0  0  0
 10 14  2  0  0  0
 10 27  1  0  0  0
 11 15  2  0  0  0
 11 28  1  0  0  0
 13 17  2  0  0  0
 13 29  1  0  0  0
 14 17  1  0  0  0
 14 18  1  0  0  0
 15 19  1  0  0  0
 15 23  1  0  0  0
 17 30  1  0  0  0
 19 31  1  0  0  0
 20 22  1  0  0  0
 20 32  1  0  0  0
 21 33  1  0  0  0
 21 34  1  0  0  0
 21 35  1  0  0  0
 22 23  2  0  0  0
 22 36  1  0  0  0
 23 37  1  0  0  0
M  END
> <s_m_entry_id>
5

> <s_m_entry_name>
dock_pv.4

> <s_m_Source_Path>
/home/csk/Desktop/cluster/DUD-E-result/kif11

> <s_m_Source_File>
dock_pv.maegz

> <i_m_Source_File_Index>
4

> <chembl_id>
CHEMBL196329

> <chembl_pref_name>
None

> <i_lp_mmshare_version>
53161

> <i_f3d_flags>
0

> <r_lp_tautomer_probability>
0.999999999997365

> <s_lp_Force_Field>
OPLS_2005

> <r_lp_Energy>
22.189434

> <b_lp_Chiralities_Consistent>
1

> <s_lp_Variant>
CHEMBL4581_lig30-2

> <s_i_glide_gridfile>
glide-grid_3cjo

> <i_i_glide_lignum>
47

> <i_i_glide_rotatable_bonds>
4

> <r_i_docking_score>
-9.83069424136489

> <r_i_glide_ligand_efficiency>
-0.427421488754995

> <r_i_glide_ligand_efficiency_sa>
-1.2155298570789

> <r_i_glide_ligand_efficiency_ln>
-2.37715100736906

> <r_i_glide_gscore>
-9.83069424136489

> <r_i_glide_lipo>
-4.19257048620244

> <r_i_glide_hbond>
-0.32

> <r_i_glide_metal>
0

> <r_i_glide_rewards>
-2.83079558149009

> <r_i_glide_evdw>
-39.239917755127

> <r_i_glide_ecoul>
-5.98302936553955

> <r_i_glide_erotb>
0.372122118914912

> <r_i_glide_esite>
0

> <r_i_glide_emodel>
-69.857479942258

> <r_i_glide_energy>
-45.2229471206665

> <r_i_glide_einternal>
1.92855274677277

> <i_i_glide_confnum>
8

> <i_i_glide_posenum>
16

> <r_i_glide_eff_state_penalty>
0

> <s_user_duplicate_titles>
CHEMBL4581_lig30,CHEMBL4581_lig32,325162,325281

> <s_m_subgroup_title>
dock_pv

> <s_m_subgroupid>
dock_pv

> <b_m_subgroup_collapsed>
1

$$$$
CHEMBL4581_lig56
                    3D
 Schrodinger Suite 2021-1.
 47 49  0  0  1  0            999 V2000
   22.6410   15.4356  105.2764 C   0  0  0  0  0  0
   21.6394   16.3962  105.3595 C   0  0  0  0  0  0
   20.5754   16.2168  106.2417 C   0  0  0  0  0  0
   20.4934   15.0793  107.0630 C   0  0  0  0  0  0
   21.5179   14.1165  106.9590 C   0  0  0  0  0  0
   22.5774   14.2990  106.0721 C   0  0  0  0  0  0
   19.3552   14.9529  108.0138 C   0  0  0  0  0  0
   18.4792   16.1153  108.4300 C   0  0  0  0  0  0
   17.4562   15.5505  109.3003 N   0  0  0  0  0  0
   17.7383   14.1190  109.4969 C   0  0  1  0  0  0
   18.9414   13.8338  108.6322 C   0  0  0  0  0  0
   17.9462   13.6998  110.9571 C   0  0  0  0  0  0
   18.9200   14.3151  111.7545 C   0  0  0  0  0  0
   19.0570   13.9622  113.0977 C   0  0  0  0  0  0
   18.2054   13.0108  113.6598 C   0  0  0  0  0  0
   17.2243   12.4042  112.8769 C   0  0  0  0  0  0
   17.1180   12.7236  111.5221 C   0  0  0  0  0  0
   16.3336   16.1547  109.7894 C   0  0  0  0  0  0
   16.0479   17.6999  109.6968 C   0  0  0  0  0  0
   15.5418   15.4829  110.4550 O   0  0  0  0  0  0
   21.5470   13.0275  107.7593 F   0  0  0  0  0  0
   21.6950   17.4971  104.5787 F   0  0  0  0  0  0
   16.3180   11.5620  113.4645 O   0  0  0  0  0  0
   16.5941   18.4390  108.4538 C   0  0  0  0  0  0
   16.6408   18.3621  110.9591 C   0  0  0  0  0  0
   14.5087   17.9403  109.7165 C   0  0  0  0  0  0
   23.4602   15.5618  104.5880 H   0  0  0  0  0  0
   19.8222   16.9891  106.2836 H   0  0  0  0  0  0
   23.3606   13.5620  106.0077 H   0  0  0  0  0  0
   19.0482   16.8894  108.9463 H   0  0  0  0  0  0
   18.0247   16.5691  107.5519 H   0  0  0  0  0  0
   16.8900   13.5516  109.1083 H   0  0  0  0  0  0
   19.3417   12.8348  108.5590 H   0  0  0  0  0  0
   19.5626   15.0745  111.3330 H   0  0  0  0  0  0
   19.8088   14.4406  113.7081 H   0  0  0  0  0  0
   18.2887   12.7626  114.7085 H   0  0  0  0  0  0
   16.3467   12.2597  110.9244 H   0  0  0  0  0  0
   15.6449   11.1997  112.8655 H   0  0  0  0  0  0
   16.3180   17.9284  107.5302 H   0  0  0  0  0  0
   16.1812   19.4465  108.3816 H   0  0  0  0  0  0
   17.6741   18.5787  108.4847 H   0  0  0  0  0  0
   16.3180   17.8472  111.8620 H   0  0  0  0  0  0
   17.7324   18.3580  110.9533 H   0  0  0  0  0  0
   16.3177   19.3983  111.0592 H   0  0  0  0  0  0
   14.0285   17.5166  110.6006 H   0  0  0  0  0  0
   14.2657   19.0041  109.7194 H   0  0  0  0  0  0
   14.0230   17.5034  108.8423 H   0  0  0  0  0  0
  1  6  1  0  0  0
  1  2  2  0  0  0
  1 27  1  0  0  0
  2 22  1  0  0  0
  2  3  1  0  0  0
  3  4  2  0  0  0
  3 28  1  0  0  0
  4  5  1  0  0  0
  4  7  1  0  0  0
  5  6  2  0  0  0
  5 21  1  0  0  0
  6 29  1  0  0  0
  7  8  1  0  0  0
  7 11  2  0  0  0
  8  9  1  0  0  0
  8 30  1  0  0  0
  8 31  1  0  0  0
  9 10  1  0  0  0
  9 18  1  0  0  0
 10 11  1  0  0  0
 10 12  1  0  0  0
 10 32  1  0  0  0
 11 33  1  0  0  0
 12 13  2  0  0  0
 12 17  1  0  0  0
 13 14  1  0  0  0
 13 34  1  0  0  0
 14 15  2  0  0  0
 14 35  1  0  0  0
 15 16  1  0  0  0
 15 36  1  0  0  0
 16 17  2  0  0  0
 16 23  1  0  0  0
 17 37  1  0  0  0
 18 19  1  0  0  0
 18 20  2  0  0  0
 19 24  1  0  0  0
 19 25  1  0  0  0
 19 26  1  0  0  0
 23 38  1  0  0  0
 24 39  1  0  0  0
 24 40  1  0  0  0
 24 41  1  0  0  0
 25 42  1  0  0  0
 25 43  1  0  0  0
 25 44  1  0  0  0
 26 45  1  0  0  0
 26 46  1  0  0  0
 26 47  1  0  0  0
M  END
> <s_m_entry_id>
7

> <s_m_entry_name>
dock_pv.6

> <s_m_Source_Path>
/home/csk/Desktop/cluster/DUD-E-result/kif11

> <s_m_Source_File>
dock_pv.maegz

> <i_m_Source_File_Index>
6

> <chembl_id>
CHEMBL378547

> <chembl_pref_name>
None

> <i_lp_mmshare_version>
53161

> <i_f3d_flags>
0

> <r_lp_tautomer_probability>
0.999999999997365

> <s_lp_Force_Field>
OPLS_2005

> <r_lp_Energy>
39.080682

> <b_lp_Chiralities_Consistent>
1

> <s_lp_Variant>
CHEMBL4581_lig56-1

> <s_i_glide_gridfile>
glide-grid_3cjo

> <i_i_glide_lignum>
85

> <i_i_glide_rotatable_bonds>
5

> <r_i_docking_score>
-9.70960308422883

> <r_i_glide_ligand_efficiency>
-0.37344627247034

> <r_i_glide_ligand_efficiency_sa>
-1.10633311275326

> <r_i_glide_ligand_efficiency_ln>
-2.28026842452482

> <r_i_glide_gscore>
-9.70960308422883

> <r_i_glide_lipo>
-4.72772502049434

> <r_i_glide_hbond>
-0.32

> <r_i_glide_metal>
0

> <r_i_glide_rewards>
-2.156433563169

> <r_i_glide_evdw>
-36.8176803588867

> <r_i_glide_ecoul>
-7.42790126800537

> <r_i_glide_erotb>
0.449624707579654

> <r_i_glide_esite>
0

> <r_i_glide_emodel>
-67.0446672694983

> <r_i_glide_energy>
-44.2455816268921

> <r_i_glide_einternal>
1.86920630931854

> <i_i_glide_confnum>
2

> <i_i_glide_posenum>
197

> <r_i_glide_eff_state_penalty>
0

> <s_user_duplicate_titles>
CHEMBL4581_lig56,343767

> <s_m_subgroup_title>
dock_pv

> <s_m_subgroupid>
dock_pv

> <b_m_subgroup_collapsed>
1

$$$$
CHEMBL4581_lig708
                    3D
 Schrodinger Suite 2021-1.
 54 57  0  0  1  0            999 V2000
   18.5838   17.2481  110.6315 C   0  0  0  0  0  0
   19.4097   16.0848  111.2262 C   0  0  0  0  0  0
   17.6392   14.6780  109.2300 C   0  0  0  0  0  0
   17.1306   17.0426  110.1920 C   0  0  0  0  0  0
   16.6753   15.8826  109.5005 C   0  0  0  0  0  0
   15.3106   15.8522  109.1372 C   0  0  0  0  0  0
   14.4394   16.8995  109.4150 C   0  0  0  0  0  0
   14.9030   18.0233  110.0790 C   0  0  0  0  0  0
   16.2360   18.0882  110.4594 C   0  0  0  0  0  0
   17.9049   14.0823  110.6575 C   0  0  0  0  0  0
   18.7262   14.7734  111.5873 C   0  0  0  0  0  0
   18.9271   14.2555  112.8752 C   0  0  0  0  0  0
   18.3169   13.0786  113.2850 C   0  0  0  0  0  0
   17.5015   12.3956  112.3984 C   0  0  0  0  0  0
   17.3045   12.8874  111.1120 C   0  0  0  0  0  0
   18.9128   15.0121  108.3978 C   0  0  0  0  0  0
   18.9613   16.1393  107.5648 C   0  0  0  0  0  0
   20.0454   16.3623  106.7209 C   0  0  0  0  0  0
   21.1171   15.4716  106.6908 C   0  0  0  0  0  0
   21.0715   14.3342  107.5049 C   0  0  0  0  0  0
   19.9959   14.1211  108.3689 C   0  0  0  0  0  0
   16.8433   13.3937  108.1412 S   0  0  0  0  0  0
   16.7643   14.1285  106.4685 C   0  0  0  0  0  0
   15.7512   13.4031  105.5604 C   0  0  1  0  0  0
   15.6071   14.0860  104.1796 C   0  0  0  0  0  0
   16.0523   11.9726  105.3590 N   0  0  0  0  0  0
   16.7176   13.9629  103.3871 O   0  0  0  0  0  0
   14.5924   14.7075  103.8724 O   0  0  0  0  0  0
   22.3235   15.7676  105.7908 C   0  0  0  0  0  0
   21.9181   15.9938  104.5590 F   0  0  0  0  0  0
   23.2004   14.7627  105.7633 F   0  0  0  0  0  0
   22.9558   16.8774  106.1589 F   0  0  0  0  0  0
   18.6084   18.0600  111.3595 H   0  0  0  0  0  0
   19.1176   17.6783  109.7861 H   0  0  0  0  0  0
   19.9264   16.4691  112.1066 H   0  0  0  0  0  0
   20.2291   15.8332  110.5648 H   0  0  0  0  0  0
   14.8774   15.0027  108.6357 H   0  0  0  0  0  0
   13.4024   16.8358  109.1179 H   0  0  0  0  0  0
   14.2347   18.8421  110.3011 H   0  0  0  0  0  0
   16.5766   18.9750  110.9762 H   0  0  0  0  0  0
   19.5599   14.7738  113.5801 H   0  0  0  0  0  0
   18.4696   12.7030  114.2871 H   0  0  0  0  0  0
   16.9932   11.4988  112.7150 H   0  0  0  0  0  0
   16.6398   12.3130  110.4857 H   0  0  0  0  0  0
   18.1386   16.8367  107.5405 H   0  0  0  0  0  0
   20.0556   17.2474  106.1000 H   0  0  0  0  0  0
   21.8794   13.6169  107.4919 H   0  0  0  0  0  0
   19.9777   13.2291  108.9786 H   0  0  0  0  0  0
   16.4972   15.1824  106.5599 H   0  0  0  0  0  0
   17.7626   14.0882  106.0289 H   0  0  0  0  0  0
   14.7703   13.4845  106.0326 H   0  0  0  0  0  0
   17.0532   11.8454  105.2881 H   0  0  0  0  0  0
   15.8017   11.4522  106.2039 H   0  0  0  0  0  0
   17.4209   13.4221  103.7790 H   0  0  0  0  0  0
  1  4  1  0  0  0
  1  2  1  0  0  0
  1 33  1  0  0  0
  1 34  1  0  0  0
  2 11  1  0  0  0
  2 35  1  0  0  0
  2 36  1  0  0  0
  3 10  1  0  0  0
  3  5  1  0  0  0
  3 16  1  0  0  0
  3 22  1  0  0  0
  4  5  2  0  0  0
  4  9  1  0  0  0
  5  6  1  0  0  0
  6  7  2  0  0  0
  6 37  1  0  0  0
  7  8  1  0  0  0
  7 38  1  0  0  0
  8  9  2  0  0  0
  8 39  1  0  0  0
  9 40  1  0  0  0
 10 11  2  0  0  0
 10 15  1  0  0  0
 11 12  1  0  0  0
 12 13  2  0  0  0
 12 41  1  0  0  0
 13 14  1  0  0  0
 13 42  1  0  0  0
 14 15  2  0  0  0
 14 43  1  0  0  0
 15 44  1  0  0  0
 16 17  2  0  0  0
 16 21  1  0  0  0
 17 18  1  0  0  0
 17 45  1  0  0  0
 18 19  2  0  0  0
 18 46  1  0  0  0
 19 20  1  0  0  0
 19 29  1  0  0  0
 20 21  2  0  0  0
 20 47  1  0  0  0
 21 48  1  0  0  0
 22 23  1  0  0  0
 23 24  1  0  0  0
 23 49  1  0  0  0
 23 50  1  0  0  0
 24 25  1  0  0  0
 24 26  1  0  0  0
 24 51  1  0  0  0
 25 27  1  0  0  0
 25 28  2  0  0  0
 26 52  1  0  0  0
 26 53  1  0  0  0
 27 54  1  0  0  0
 29 30  1  0  0  0
 29 31  1  0  0  0
 29 32  1  0  0  0
M  END
> <s_m_entry_id>
8

> <s_m_entry_name>
dock_pv.7

> <s_m_Source_Path>
/home/csk/Desktop/cluster/DUD-E-result/kif11

> <s_m_Source_File>
dock_pv.maegz

> <i_m_Source_File_Index>
7

> <chembl_id>
CHEMBL3633365

> <chembl_pref_name>
None

> <i_lp_mmshare_version>
53161

> <i_f3d_flags>
0

> <r_lp_tautomer_probability>
1

> <s_lp_Force_Field>
OPLS_2005

> <r_lp_Energy>
43.004797

> <b_lp_Chiralities_Consistent>
1

> <s_lp_Variant>
CHEMBL4581_lig708-1

> <s_i_glide_gridfile>
glide-grid_3cjo

> <i_i_glide_lignum>
1051

> <i_i_glide_rotatable_bonds>
7

> <r_i_docking_score>
-9.70885660260623

> <r_i_glide_ligand_efficiency>
-0.303401768831445

> <r_i_glide_ligand_efficiency_sa>
-0.963240572911317

> <r_i_glide_ligand_efficiency_ln>
-2.17407764675905

> <r_i_glide_gscore>
-9.70885660260623

> <r_i_glide_lipo>
-4.8846083782772

> <r_i_glide_hbond>
-0.307451690968254

> <r_i_glide_metal>
0

> <r_i_glide_rewards>
-1.53687181753384

> <r_i_glide_evdw>
-41.1562957763672

> <r_i_glide_ecoul>
-9.23751163482666

> <r_i_glide_erotb>
0.480269222229366

> <r_i_glide_esite>
-0.0167524040139506

> <r_i_glide_emodel>
-79.4552923274414

> <r_i_glide_energy>
-50.3938074111938

> <r_i_glide_einternal>
2.72331714630127

> <i_i_glide_confnum>
210

> <i_i_glide_posenum>
48

> <r_i_glide_eff_state_penalty>
0

> <s_user_duplicate_titles>
CHEMBL4581_lig708

> <s_m_subgroup_title>
dock_pv

> <s_m_subgroupid>
dock_pv

> <b_m_subgroup_collapsed>
1

$$$$
CHEMBL4581_lig59
                    3D
 Schrodinger Suite 2021-1.
 43 45  0  0  1  0            999 V2000
   22.6933   15.4539  105.2533 C   0  0  0  0  0  0
   21.7332   16.4571  105.3191 C   0  0  0  0  0  0
   20.6533   16.3300  106.1879 C   0  0  0  0  0  0
   20.5259   15.2120  107.0269 C   0  0  0  0  0  0
   21.5179   14.2124  106.9588 C   0  0  0  0  0  0
   22.5825   14.3335  106.0677 C   0  0  0  0  0  0
   19.3885   15.1589  107.9786 C   0  0  0  0  0  0
   18.5821   16.3758  108.3845 C   0  0  0  0  0  0
   17.6178   15.8836  109.3631 N   0  0  0  0  0  0
   17.7927   14.4406  109.5425 C   0  0  1  0  0  0
   18.9340   14.0717  108.6256 C   0  0  0  0  0  0
   18.0540   13.9940  110.9794 C   0  0  0  0  0  0
   18.9943   14.6474  111.7886 C   0  0  0  0  0  0
   19.1829   14.2483  113.1115 C   0  0  0  0  0  0
   18.4369   13.1920  113.6315 C   0  0  0  0  0  0
   17.5008   12.5455  112.8295 C   0  0  0  0  0  0
   17.3163   12.9324  111.5049 C   0  0  0  0  0  0
   16.7044   16.6264  110.0454 C   0  0  0  0  0  0
   15.6181   16.1361  110.3662 O   0  0  0  0  0  0
   21.5182   13.1482  107.7928 F   0  0  0  0  0  0
   21.8396   17.5451  104.5257 F   0  0  0  0  0  0
   16.7178   11.5621  113.3590 O   0  0  0  0  0  0
   17.0137   17.9166  110.3373 N   0  0  0  0  0  0
   15.9738   18.9396  110.4640 C   0  0  0  0  0  0
   18.3314   18.3628  110.7963 C   0  0  0  0  0  0
   23.5153   15.5367  104.5634 H   0  0  0  0  0  0
   19.9261   17.1274  106.2113 H   0  0  0  0  0  0
   23.3328   13.5610  106.0190 H   0  0  0  0  0  0
   19.2089   17.1737  108.7733 H   0  0  0  0  0  0
   18.0468   16.8059  107.5365 H   0  0  0  0  0  0
   16.8822   13.9507  109.1943 H   0  0  0  0  0  0
   19.2859   13.0539  108.5590 H   0  0  0  0  0  0
   19.5785   15.4633  111.3924 H   0  0  0  0  0  0
   19.9094   14.7546  113.7309 H   0  0  0  0  0  0
   18.5715   12.8852  114.6591 H   0  0  0  0  0  0
   16.5797   12.4278  110.8954 H   0  0  0  0  0  0
   16.0245   11.2363  112.7721 H   0  0  0  0  0  0
   15.0048   18.5991  110.0967 H   0  0  0  0  0  0
   15.8563   19.2353  111.5060 H   0  0  0  0  0  0
   16.2491   19.8241  109.8889 H   0  0  0  0  0  0
   19.0746   17.5659  110.8262 H   0  0  0  0  0  0
   18.7065   19.1607  110.1578 H   0  0  0  0  0  0
   18.2547   18.7603  111.8074 H   0  0  0  0  0  0
  1  6  1  0  0  0
  1  2  2  0  0  0
  1 26  1  0  0  0
  2 21  1  0  0  0
  2  3  1  0  0  0
  3  4  2  0  0  0
  3 27  1  0  0  0
  4  5  1  0  0  0
  4  7  1  0  0  0
  5  6  2  0  0  0
  5 20  1  0  0  0
  6 28  1  0  0  0
  7  8  1  0  0  0
  7 11  2  0  0  0
  8  9  1  0  0  0
  8 29  1  0  0  0
  8 30  1  0  0  0
  9 10  1  0  0  0
  9 18  1  0  0  0
 10 11  1  0  0  0
 10 12  1  0  0  0
 10 31  1  0  0  0
 11 32  1  0  0  0
 12 13  2  0  0  0
 12 17  1  0  0  0
 13 14  1  0  0  0
 13 33  1  0  0  0
 14 15  2  0  0  0
 14 34  1  0  0  0
 15 16  1  0  0  0
 15 35  1  0  0  0
 16 17  2  0  0  0
 16 22  1  0  0  0
 17 36  1  0  0  0
 18 19  2  0  0  0
 18 23  1  0  0  0
 22 37  1  0  0  0
 23 24  1  0  0  0
 23 25  1  0  0  0
 24 38  1  0  0  0
 24 39  1  0  0  0
 24 40  1  0  0  0
 25 41  1  0  0  0
 25 42  1  0  0  0
 25 43  1  0  0  0
M  END
> <s_m_entry_id>
9

> <s_m_entry_name>
dock_pv.8

> <s_m_Source_Path>
/home/csk/Desktop/cluster/DUD-E-result/kif11

> <s_m_Source_File>
dock_pv.maegz

> <i_m_Source_File_Index>
8

> <chembl_id>
CHEMBL381533

> <chembl_pref_name>
None

> <i_lp_mmshare_version>
53161

> <i_f3d_flags>
0

> <r_lp_tautomer_probability>
0.999999999997365

> <s_lp_Force_Field>
OPLS_2005

> <r_lp_Energy>
51.750597

> <b_lp_Chiralities_Consistent>
1

> <s_lp_Variant>
CHEMBL4581_lig59-1

> <s_i_glide_gridfile>
glide-grid_3cjo

> <i_i_glide_lignum>
89

> <i_i_glide_rotatable_bonds>
5

> <r_i_docking_score>
-9.67882129290023

> <r_i_glide_ligand_efficiency>
-0.387152851716009

> <r_i_glide_ligand_efficiency_sa>
-1.13204180460267

> <r_i_glide_ligand_efficiency_ln>
-2.29417069728583

> <r_i_glide_gscore>
-9.67882129290023

> <r_i_glide_lipo>
-4.70487084429184

> <r_i_glide_hbond>
-0.32

> <r_i_glide_metal>
0

> <r_i_glide_rewards>
-2.37476960587

> <r_i_glide_evdw>
-40.6994743347168

> <r_i_glide_ecoul>
-4.83032608032227

> <r_i_glide_erotb>
0.48034178604579

> <r_i_glide_esite>
0

> <r_i_glide_emodel>
-70.539999542195

> <r_i_glide_energy>
-45.5298004150391

> <r_i_glide_einternal>
2.28293681144714

> <i_i_glide_confnum>
10

> <i_i_glide_posenum>
166

> <r_i_glide_eff_state_penalty>
0

> <s_user_duplicate_titles>
CHEMBL4581_lig59,344072

> <s_m_subgroup_title>
dock_pv

> <s_m_subgroupid>
dock_pv

> <b_m_subgroup_collapsed>
1

$$$$
CHEMBL4581_lig204
                    3D
 Schrodinger Suite 2021-1.
 47 49  0  0  1  0            999 V2000
   22.5079   15.1587  105.3410 C   0  0  0  0  0  0
   21.5958   16.1979  105.4830 C   0  0  0  0  0  0
   20.5789   16.1044  106.4304 C   0  0  0  0  0  0
   20.4697   14.9809  107.2707 C   0  0  0  0  0  0
   21.4375   13.9618  107.1489 C   0  0  0  0  0  0
   22.4157   14.0387  106.1595 C   0  0  0  0  0  0
   21.6839   17.2847  104.6856 F   0  0  0  0  0  0
   21.5075   12.9216  108.0117 F   0  0  0  0  0  0
   19.3726   14.9467  108.2644 C   0  0  0  0  0  0
   18.8178   15.9784  108.7532 N   0  0  0  0  0  0
   17.8042   15.6543  109.5950 N   0  0  0  0  0  0
   17.6067   14.1832  109.6907 C   0  0  1  0  0  0
   18.7275   13.6791  108.7617 C   0  0  0  0  0  0
   17.0863   16.6203  110.2369 C   0  0  0  0  0  0
   16.1228   16.3621  110.9590 O   0  0  0  0  0  0
   17.8147   13.6475  111.1430 C   0  0  0  0  0  0
   16.2013   13.7748  109.0950 C   0  0  0  0  0  0
   17.1191   12.5198  111.6062 C   0  0  0  0  0  0
   17.2496   12.0935  112.9251 C   0  0  0  0  0  0
   18.1105   12.7609  113.7895 C   0  0  0  0  0  0
   18.8374   13.8602  113.3477 C   0  0  0  0  0  0
   18.6898   14.2993  112.0323 C   0  0  0  0  0  0
   15.7493   14.5035  107.8007 C   0  0  0  0  0  0
   14.4506   13.9536  107.1823 C   0  0  0  0  0  0
   14.7045   12.7621  106.3920 N   0  0  0  0  0  0
   17.4778   18.0954  110.0658 C   0  0  0  0  0  0
   23.2776   15.2136  104.5862 H   0  0  0  0  0  0
   19.8790   16.9249  106.5051 H   0  0  0  0  0  0
   23.1174   13.2298  106.0494 H   0  0  0  0  0  0
   18.3217   13.1096  107.9232 H   0  0  0  0  0  0
   19.4441   13.0474  109.2910 H   0  0  0  0  0  0
   16.1917   12.7012  108.9017 H   0  0  0  0  0  0
   15.4299   13.9405  109.8497 H   0  0  0  0  0  0
   16.4479   11.9678  110.9657 H   0  0  0  0  0  0
   16.6753   11.2478  113.2762 H   0  0  0  0  0  0
   18.2143   12.4221  114.8111 H   0  0  0  0  0  0
   19.5161   14.3686  114.0180 H   0  0  0  0  0  0
   19.2631   15.1554  111.7092 H   0  0  0  0  0  0
   15.5774   15.5554  108.0296 H   0  0  0  0  0  0
   16.5449   14.4975  107.0542 H   0  0  0  0  0  0
   13.7075   13.7447  107.9544 H   0  0  0  0  0  0
   14.0132   14.7039  106.5220 H   0  0  0  0  0  0
   15.1182   12.0238  106.9579 H   0  0  0  0  0  0
   13.8373   12.3846  106.0362 H   0  0  0  0  0  0
   17.4773   18.3745  109.0113 H   0  0  0  0  0  0
   16.7758   18.7444  110.5932 H   0  0  0  0  0  0
   18.4750   18.2772  110.4718 H   0  0  0  0  0  0
  1  2  2  0  0  0
  1  6  1  0  0  0
  1 27  1  0  0  0
  2  7  1  0  0  0
  2  3  1  0  0  0
  3  4  2  0  0  0
  3 28  1  0  0  0
  4  9  1  0  0  0
  4  5  1  0  0  0
  5  8  1  0  0  0
  5  6  2  0  0  0
  6 29  1  0  0  0
  9 13  1  0  0  0
  9 10  2  0  0  0
 10 11  1  0  0  0
 11 14  1  0  0  0
 11 12  1  0  0  0
 12 13  1  0  0  0
 12 16  1  0  0  0
 12 17  1  0  0  0
 13 30  1  0  0  0
 13 31  1  0  0  0
 14 15  2  0  0  0
 14 26  1  0  0  0
 16 18  2  0  0  0
 16 22  1  0  0  0
 17 23  1  0  0  0
 17 32  1  0  0  0
 17 33  1  0  0  0
 18 19  1  0  0  0
 18 34  1  0  0  0
 19 20  2  0  0  0
 19 35  1  0  0  0
 20 21  1  0  0  0
 20 36  1  0  0  0
 21 22  2  0  0  0
 21 37  1  0  0  0
 22 38  1  0  0  0
 23 24  1  0  0  0
 23 39  1  0  0  0
 23 40  1  0  0  0
 24 25  1  0  0  0
 24 41  1  0  0  0
 24 42  1  0  0  0
 25 43  1  0  0  0
 25 44  1  0  0  0
 26 45  1  0  0  0
 26 46  1  0  0  0
 26 47  1  0  0  0
M  END
> <s_m_entry_id>
10

> <s_m_entry_name>
dock_pv.9

> <s_m_Source_Path>
/home/csk/Desktop/cluster/DUD-E-result/kif11

> <s_m_Source_File>
dock_pv.maegz

> <i_m_Source_File_Index>
9

> <chembl_id>
CHEMBL241754

> <chembl_pref_name>
None

> <i_lp_mmshare_version>
53161

> <i_f3d_flags>
0

> <r_lp_tautomer_probability>
1

> <s_lp_Force_Field>
OPLS_2005

> <r_lp_Energy>
31.470987

> <b_lp_Chiralities_Consistent>
1

> <s_lp_Variant>
CHEMBL4581_lig204-1

> <s_i_glide_gridfile>
glide-grid_3cjo

> <i_i_glide_lignum>
311

> <i_i_glide_rotatable_bonds>
6

> <r_i_docking_score>
-9.63848356929825

> <r_i_glide_ligand_efficiency>
-0.370710906511471

> <r_i_glide_ligand_efficiency_sa>
-1.09822960186325

> <r_i_glide_ligand_efficiency_ln>
-2.26356623980553

> <r_i_glide_gscore>
-9.63848356929825

> <r_i_glide_lipo>
-4.47476679828967

> <r_i_glide_hbond>
-0.32

> <r_i_glide_metal>
0

> <r_i_glide_rewards>
-2.59951173822816

> <r_i_glide_evdw>
-42.1191711425781

> <r_i_glide_ecoul>
-4.91824150085449

> <r_i_glide_erotb>
0.599489749476659

> <r_i_glide_esite>
0

> <r_i_glide_emodel>
-71.1566837891033

> <r_i_glide_energy>
-47.0374126434326

> <r_i_glide_einternal>
6.54744338989258

> <i_i_glide_confnum>
23

> <i_i_glide_posenum>
225

> <r_i_glide_eff_state_penalty>
0

> <s_user_duplicate_titles>
CHEMBL4581_lig204,402086

> <s_m_subgroup_title>
dock_pv

> <s_m_subgroupid>
dock_pv

> <b_m_subgroup_collapsed>
1

$$$$
CHEMBL4581_lig235
                    3D
 Schrodinger Suite 2021-1.
 48 51  0  0  1  0            999 V2000
   22.5004   15.1804  105.5242 C   0  0  0  0  0  0
   21.5859   16.2269  105.4088 C   0  0  0  0  0  0
   20.4111   16.2177  106.1599 C   0  0  0  0  0  0
   22.2612   14.1433  106.4258 C   0  0  0  0  0  0
   21.1184   14.1684  107.2269 C   0  0  0  0  0  0
   20.1546   15.1740  107.0594 C   0  0  0  0  0  0
   20.0185   13.3348  109.1660 C   0  0  0  0  0  0
   21.0260   13.1619  108.1639 O   0  0  0  0  0  0
   18.6755   13.9018  108.6097 C   0  0  2  0  0  0
   18.9589   15.0685  107.7834 N   0  0  0  0  0  0
   18.5387   16.2377  108.4297 N   0  0  0  0  0  0
   17.7855   15.9221  109.4040 C   0  0  0  0  0  0
   17.6004   14.3975  109.6158 C   0  0  1  0  0  0
   16.1563   13.9259  109.1557 C   0  0  0  0  0  0
   17.1212   16.9399  110.2212 C   0  0  0  0  0  0
   16.1718   16.6827  110.9592 O   0  0  0  0  0  0
   17.8901   13.9239  111.0834 C   0  0  0  0  0  0
   17.2920   12.7613  111.5989 C   0  0  0  0  0  0
   17.5181   12.3623  112.9136 C   0  0  0  0  0  0
   18.3886   13.0817  113.7218 C   0  0  0  0  0  0
   19.0316   14.2074  113.2231 C   0  0  0  0  0  0
   18.7809   14.6270  111.9196 C   0  0  0  0  0  0
   15.4785   14.5622  107.9014 C   0  0  0  0  0  0
   15.8597   13.9895  106.5178 C   0  0  0  0  0  0
   17.6740   18.3655  110.1860 C   0  0  0  0  0  0
   21.8256   17.2371  104.5443 F   0  0  0  0  0  0
   15.2038   12.7621  106.2631 O   0  0  0  0  0  0
   18.2524   13.1092  107.9952 H   0  0  0  0  0  0
   23.3937   15.1769  104.9189 H   0  0  0  0  0  0
   19.6938   17.0151  106.0325 H   0  0  0  0  0  0
   22.9764   13.3427  106.5306 H   0  0  0  0  0  0
   19.8565   12.3679  109.6477 H   0  0  0  0  0  0
   20.4175   14.0081  109.9188 H   0  0  0  0  0  0
   15.4726   14.1198  109.9847 H   0  0  0  0  0  0
   16.1392   12.8434  109.0231 H   0  0  0  0  0  0
   16.6220   12.1571  111.0066 H   0  0  0  0  0  0
   17.0118   11.4930  113.3042 H   0  0  0  0  0  0
   18.5686   12.7586  114.7380 H   0  0  0  0  0  0
   19.7183   14.7613  113.8466 H   0  0  0  0  0  0
   19.2992   15.5054  111.5683 H   0  0  0  0  0  0
   15.6454   15.6382  107.8859 H   0  0  0  0  0  0
   14.3959   14.4728  108.0099 H   0  0  0  0  0  0
   16.9327   13.8350  106.4210 H   0  0  0  0  0  0
   15.5983   14.7044  105.7363 H   0  0  0  0  0  0
   17.6446   18.7617  109.1709 H   0  0  0  0  0  0
   17.0840   19.0183  110.8292 H   0  0  0  0  0  0
   18.7058   18.3834  110.5378 H   0  0  0  0  0  0
   15.5186   12.0768  106.8686 H   0  0  0  0  0  0
  1  2  2  0  0  0
  1  4  1  0  0  0
  1 29  1  0  0  0
  2  3  1  0  0  0
  2 26  1  0  0  0
  3  6  2  0  0  0
  3 30  1  0  0  0
  4  5  2  0  0  0
  4 31  1  0  0  0
  5  8  1  0  0  0
  5  6  1  0  0  0
  6 10  1  0  0  0
  7  9  1  0  0  0
  7  8  1  0  0  0
  7 32  1  0  0  0
  7 33  1  0  0  0
  9 13  1  0  0  0
  9 10  1  0  0  0
  9 28  1  0  0  0
 10 11  1  0  0  0
 11 12  2  0  0  0
 12 13  1  0  0  0
 12 15  1  0  0  0
 13 14  1  0  0  0
 13 17  1  0  0  0
 14 23  1  0  0  0
 14 34  1  0  0  0
 14 35  1  0  0  0
 15 16  2  0  0  0
 15 25  1  0  0  0
 17 18  2  0  0  0
 17 22  1  0  0  0
 18 19  1  0  0  0
 18 36  1  0  0  0
 19 20  2  0  0  0
 19 37  1  0  0  0
 20 21  1  0  0  0
 20 38  1  0  0  0
 21 22  2  0  0  0
 21 39  1  0  0  0
 22 40  1  0  0  0
 23 24  1  0  0  0
 23 41  1  0  0  0
 23 42  1  0  0  0
 24 27  1  0  0  0
 24 43  1  0  0  0
 24 44  1  0  0  0
 25 45  1  0  0  0
 25 46  1  0  0  0
 25 47  1  0  0  0
 27 48  1  0  0  0
M  END
> <s_m_entry_id>
11

> <s_m_entry_name>
dock_pv.10

> <s_m_Source_Path>
/home/csk/Desktop/cluster/DUD-E-result/kif11

> <s_m_Source_File>
dock_pv.maegz

> <i_m_Source_File_Index>
10

> <chembl_id>
CHEMBL250743

> <chembl_pref_name>
None

> <i_lp_mmshare_version>
53161

> <i_f3d_flags>
0

> <r_lp_tautomer_probability>
1

> <s_lp_Force_Field>
OPLS_2005

> <r_lp_Energy>
39.461168

> <b_lp_Chiralities_Consistent>
1

> <s_lp_Variant>
CHEMBL4581_lig235-1

> <s_i_glide_gridfile>
glide-grid_3cjo

> <i_i_glide_lignum>
358

> <i_i_glide_rotatable_bonds>
6

> <r_i_docking_score>
-9.62315221355728

> <r_i_glide_ligand_efficiency>
-0.356413044946566

> <r_i_glide_ligand_efficiency_sa>
-1.06923913366502

> <r_i_glide_ligand_efficiency_ln>
-2.24011118525272

> <r_i_glide_gscore>
-9.62315221355728

> <r_i_glide_lipo>
-4.82173800736659

> <r_i_glide_hbond>
-0.32

> <r_i_glide_metal>
0

> <r_i_glide_rewards>
-2.10195264306846

> <r_i_glide_evdw>
-44.0520477294922

> <r_i_glide_ecoul>
-4.96518898010254

> <r_i_glide_erotb>
0.567919170367765

> <r_i_glide_esite>
0

> <r_i_glide_emodel>
-75.5456509776812

> <r_i_glide_energy>
-49.0172367095947

> <r_i_glide_einternal>
3.58804440498352

> <i_i_glide_confnum>
26

> <i_i_glide_posenum>
47

> <r_i_glide_eff_state_penalty>
0

> <s_user_duplicate_titles>
CHEMBL4581_lig235,414289

> <s_m_subgroup_title>
dock_pv

> <s_m_subgroupid>
dock_pv

> <b_m_subgroup_collapsed>
1

$$$$
CHEMBL4581_lig854
                    3D
 Schrodinger Suite 2021-1.
 54 56  0  0  1  0            999 V2000
   14.8978   13.5949  106.3942 C   0  0  0  0  0  0
   15.3209   12.3638  105.7503 N   0  0  0  0  0  0
   16.0398   14.2078  107.2202 C   0  0  0  0  0  0
   16.4532   13.3539  108.7824 S   0  0  0  0  0  0
   17.6678   14.4341  109.6967 C   0  0  0  0  0  0
   18.9295   14.4213  108.7859 C   0  0  0  0  0  0
   17.0758   15.8615  109.9352 C   0  0  0  0  0  0
   17.9617   13.8686  111.1212 C   0  0  0  0  0  0
   18.9765   15.2718  107.6776 C   0  0  0  0  0  0
   20.0278   15.2245  106.7850 C   0  0  0  0  0  0
   21.1182   14.3790  107.0094 C   0  0  0  0  0  0
   21.1177   13.5620  108.1448 C   0  0  0  0  0  0
   20.0217   13.5649  109.0107 C   0  0  0  0  0  0
   18.9120   14.5225  111.9244 C   0  0  0  0  0  0
   19.1491   14.1163  113.2332 C   0  0  0  0  0  0
   18.4472   13.0381  113.7576 C   0  0  0  0  0  0
   17.5176   12.3620  112.9783 C   0  0  0  0  0  0
   17.2827   12.7644  111.6682 C   0  0  0  0  0  0
   17.9076   16.9963  109.9669 C   0  0  0  0  0  0
   17.3875   18.2627  110.2134 C   0  0  0  0  0  0
   16.0224   18.4150  110.4303 C   0  0  0  0  0  0
   15.1768   17.3109  110.4024 C   0  0  0  0  0  0
   15.7023   16.0448  110.1582 C   0  0  0  0  0  0
   22.3207   14.3565  106.0507 C   0  0  0  0  0  0
   22.2847   15.3362  104.9590 N   0  0  0  0  0  0
   22.3180   16.6692  105.1059 C   0  0  0  0  0  0
   21.9180   17.5235  103.9072 C   0  0  0  0  0  0
   22.6222   17.2076  106.1590 O   0  0  0  0  0  0
   14.0221   13.4088  107.0182 H   0  0  0  0  0  0
   14.5922   14.2946  105.6158 H   0  0  0  0  0  0
   16.1934   12.5099  105.2612 H   0  0  0  0  0  0
   15.5162   11.6597  106.4652 H   0  0  0  0  0  0
   15.7904   15.2424  107.4534 H   0  0  0  0  0  0
   16.9228   14.2370  106.5843 H   0  0  0  0  0  0
   18.1657   15.9531  107.4675 H   0  0  0  0  0  0
   19.9651   15.8654  105.9210 H   0  0  0  0  0  0
   21.9505   12.9015  108.3363 H   0  0  0  0  0  0
   20.0220   12.8809  109.8455 H   0  0  0  0  0  0
   19.4654   15.3658  111.5391 H   0  0  0  0  0  0
   19.8771   14.6373  113.8375 H   0  0  0  0  0  0
   18.6240   12.7239  114.7764 H   0  0  0  0  0  0
   16.9613   11.5344  113.3908 H   0  0  0  0  0  0
   16.5386   12.2118  111.1163 H   0  0  0  0  0  0
   18.9736   16.9062  109.8208 H   0  0  0  0  0  0
   18.0432   19.1211  110.2470 H   0  0  0  0  0  0
   15.6187   19.3974  110.6294 H   0  0  0  0  0  0
   14.1186   17.4364  110.5769 H   0  0  0  0  0  0
   15.0310   15.2012  110.1587 H   0  0  0  0  0  0
   22.3684   13.3589  105.6140 H   0  0  0  0  0  0
   23.2592   14.4644  106.5935 H   0  0  0  0  0  0
   22.0350   14.9719  104.0524 H   0  0  0  0  0  0
   21.9179   16.9445  102.9907 H   0  0  0  0  0  0
   22.6067   18.3545  103.7591 H   0  0  0  0  0  0
   20.9175   17.9265  104.0564 H   0  0  0  0  0  0
  1  3  1  0  0  0
  1  2  1  0  0  0
  1 29  1  0  0  0
  1 30  1  0  0  0
  2 31  1  0  0  0
  2 32  1  0  0  0
  3  4  1  0  0  0
  3 33  1  0  0  0
  3 34  1  0  0  0
  4  5  1  0  0  0
  5  8  1  0  0  0
  5  6  1  0  0  0
  5  7  1  0  0  0
  6  9  2  0  0  0
  6 13  1  0  0  0
  7 19  2  0  0  0
  7 23  1  0  0  0
  8 14  2  0  0  0
  8 18  1  0  0  0
  9 10  1  0  0  0
  9 35  1  0  0  0
 10 11  2  0  0  0
 10 36  1  0  0  0
 11 12  1  0  0  0
 11 24  1  0  0  0
 12 13  2  0  0  0
 12 37  1  0  0  0
 13 38  1  0  0  0
 14 15  1  0  0  0
 14 39  1  0  0  0
 15 16  2  0  0  0
 15 40  1  0  0  0
 16 17  1  0  0  0
 16 41  1  0  0  0
 17 18  2  0  0  0
 17 42  1  0  0  0
 18 43  1  0  0  0
 19 20  1  0  0  0
 19 44  1  0  0  0
 20 21  2  0  0  0
 20 45  1  0  0  0
 21 22  1  0  0  0
 21 46  1  0  0  0
 22 23  2  0  0  0
 22 47  1  0  0  0
 23 48  1  0  0  0
 24 25  1  0  0  0
 24 49  1  0  0  0
 24 50  1  0  0  0
 25 26  1  0  0  0
 25 51  1  0  0  0
 26 27  1  0  0  0
 26 28  2  0  0  0
 27 52  1  0  0  0
 27 53  1  0  0  0
 27 54  1  0  0  0
M  END
> <s_m_entry_id>
12

> <s_m_entry_name>
dock_pv.11

> <s_m_Source_Path>
/home/csk/Desktop/cluster/DUD-E-result/kif11

> <s_m_Source_File>
dock_pv.maegz

> <i_m_Source_File_Index>
11

> <chembl_id>
CHEMBL2024132

> <chembl_pref_name>
None

> <i_lp_mmshare_version>
53161

> <i_f3d_flags>
0

> <r_lp_tautomer_probability>
1

> <s_lp_Force_Field>
OPLS_2005

> <r_lp_Energy>
23.569913

> <b_lp_Chiralities_Consistent>
1

> <s_lp_Variant>
CHEMBL4581_lig854-1

> <s_i_glide_gridfile>
glide-grid_3cjo

> <i_i_glide_lignum>
1241

> <i_i_glide_rotatable_bonds>
9

> <r_i_docking_score>
-9.45591815924375

> <r_i_glide_ligand_efficiency>
-0.337711362830134

> <r_i_glide_ligand_efficiency_sa>
-1.02549059890804

> <r_i_glide_ligand_efficiency_ln>
-2.18270354897473

> <r_i_glide_gscore>
-9.45591815924375

> <r_i_glide_lipo>
-5.21643079323361

> <r_i_glide_hbond>
-0.32

> <r_i_glide_metal>
0

> <r_i_glide_rewards>
-1.29835286527176

> <r_i_glide_evdw>
-47.7375259399414

> <r_i_glide_ecoul>
-7.52972173690796

> <r_i_glide_erotb>
0.895200056794883

> <r_i_glide_esite>
0

> <r_i_glide_emodel>
-80.4120434012323

> <r_i_glide_energy>
-55.2672476768494

> <r_i_glide_einternal>
5.92709541320801

> <i_i_glide_confnum>
168

> <i_i_glide_posenum>
126

> <r_i_glide_eff_state_penalty>
0

> <s_user_duplicate_titles>
CHEMBL4581_lig854

> <s_m_subgroup_title>
dock_pv

> <s_m_subgroupid>
dock_pv

> <b_m_subgroup_collapsed>
1

$$$$
CHEMBL4581_lig38
                    3D
 Schrodinger Suite 2021-1.
 40 42  0  0  1  0            999 V2000
   17.7238   15.4976  109.4971 N   0  0  0  0  0  0
   18.7180   15.9066  108.6733 N   0  0  0  0  0  0
   19.3359   14.9216  108.1590 C   0  0  0  0  0  0
   17.7006   14.0376  109.6366 C   0  0  1  0  0  0
   18.7612   13.6056  108.6323 C   0  0  0  0  0  0
   16.7838   16.3548  109.9789 C   0  0  0  0  0  0
   20.4068   15.0687  107.1395 C   0  0  0  0  0  0
   17.9548   13.6002  111.0887 C   0  0  0  0  0  0
   21.4767   14.1617  106.9465 C   0  0  0  0  0  0
   17.1180   12.6534  111.6891 C   0  0  0  0  0  0
   15.7702   15.9620  110.5590 O   0  0  0  0  0  0
   17.2384   12.3620  113.0494 C   0  0  0  0  0  0
   21.7493   12.7620  107.9188 Cl  0  0  0  0  0  0
   16.3180   11.5620  113.6727 O   0  0  0  0  0  0
   18.9701   14.1921  111.8537 C   0  0  0  0  0  0
   20.3811   16.2331  106.3465 C   0  0  0  0  0  0
   16.9999   17.8736  109.8375 C   0  0  0  0  0  0
   19.1180   13.8711  113.2023 C   0  0  0  0  0  0
   22.4352   14.4085  105.9622 C   0  0  0  0  0  0
   18.2489   12.9591  113.7997 C   0  0  0  0  0  0
   18.1728   18.3767  110.6981 C   0  0  0  0  0  0
   21.3586   16.4837  105.3881 C   0  0  0  0  0  0
   22.3783   15.5620  105.1894 C   0  0  0  0  0  0
   16.7112   13.6843  109.3346 H   0  0  0  0  0  0
   19.4941   12.9635  109.1150 H   0  0  0  0  0  0
   18.3046   13.0827  107.7927 H   0  0  0  0  0  0
   16.3202   12.2011  111.1178 H   0  0  0  0  0  0
   15.6496   11.1883  113.0788 H   0  0  0  0  0  0
   19.6302   14.9231  111.4092 H   0  0  0  0  0  0
   19.6000   16.9713  106.4693 H   0  0  0  0  0  0
   17.1547   18.1248  108.7874 H   0  0  0  0  0  0
   16.0876   18.3941  110.1328 H   0  0  0  0  0  0
   19.8951   14.3412  113.7867 H   0  0  0  0  0  0
   23.2401   13.7059  105.8052 H   0  0  0  0  0  0
   18.3414   12.7354  114.8531 H   0  0  0  0  0  0
   18.3180   19.4437  110.5590 H   0  0  0  0  0  0
   17.9841   18.2338  111.7590 H   0  0  0  0  0  0
   19.1182   17.9039  110.4379 H   0  0  0  0  0  0
   21.3140   17.3822  104.7899 H   0  0  0  0  0  0
   23.1180   15.7332  104.4257 H   0  0  0  0  0  0
  1  2  1  0  0  0
  1  4  1  0  0  0
  1  6  1  0  0  0
  2  3  2  0  0  0
  3  7  1  0  0  0
  3  5  1  0  0  0
  4  5  1  0  0  0
  4  8  1  0  0  0
  4 24  1  0  0  0
  5 25  1  0  0  0
  5 26  1  0  0  0
  6 11  2  0  0  0
  6 17  1  0  0  0
  7  9  2  0  0  0
  7 16  1  0  0  0
  8 10  1  0  0  0
  8 15  2  0  0  0
  9 13  1  0  0  0
  9 19  1  0  0  0
 10 12  2  0  0  0
 10 27  1  0  0  0
 12 14  1  0  0  0
 12 20  1  0  0  0
 14 28  1  0  0  0
 15 18  1  0  0  0
 15 29  1  0  0  0
 16 22  2  0  0  0
 16 30  1  0  0  0
 17 21  1  0  0  0
 17 31  1  0  0  0
 17 32  1  0  0  0
 18 20  2  0  0  0
 18 33  1  0  0  0
 19 23  2  0  0  0
 19 34  1  0  0  0
 20 35  1  0  0  0
 21 36  1  0  0  0
 21 37  1  0  0  0
 21 38  1  0  0  0
 22 23  1  0  0  0
 22 39  1  0  0  0
 23 40  1  0  0  0
M  END
> <s_m_entry_id>
13

> <s_m_entry_name>
dock_pv.12

> <s_m_Source_Path>
/home/csk/Desktop/cluster/DUD-E-result/kif11

> <s_m_Source_File>
dock_pv.maegz

> <i_m_Source_File_Index>
12

> <chembl_id>
CHEMBL370051

> <chembl_pref_name>
None

> <i_lp_mmshare_version>
53161

> <i_f3d_flags>
0

> <r_lp_tautomer_probability>
0.999999999997365

> <s_lp_Force_Field>
OPLS_2005

> <r_lp_Energy>
26.196378

> <b_lp_Chiralities_Consistent>
1

> <s_lp_Variant>
CHEMBL4581_lig38-2

> <s_i_glide_gridfile>
glide-grid_3cjo

> <i_i_glide_lignum>
61

> <i_i_glide_rotatable_bonds>
5

> <r_i_docking_score>
-9.40355455332411

> <r_i_glide_ligand_efficiency>
-0.408850197970613

> <r_i_glide_ligand_efficiency_sa>
-1.16271557649917

> <r_i_glide_ligand_efficiency_ln>
-2.27386475771224

> <r_i_glide_gscore>
-9.40355455332411

> <r_i_glide_lipo>
-4.769694308846

> <r_i_glide_hbond>
-0.32

> <r_i_glide_metal>
0

> <r_i_glide_rewards>
-1.91352126752071

> <r_i_glide_evdw>
-39.7228012084961

> <r_i_glide_ecoul>
-6.23690414428711

> <r_i_glide_erotb>
0.52133670511047

> <r_i_glide_esite>
0

> <r_i_glide_emodel>
-66.2389035074426

> <r_i_glide_energy>
-45.9597053527832

> <r_i_glide_einternal>
7.92129945755005

> <i_i_glide_confnum>
16

> <i_i_glide_posenum>
168

> <r_i_glide_eff_state_penalty>
0

> <s_user_duplicate_titles>
CHEMBL4581_lig38

> <s_m_subgroup_title>
dock_pv

> <s_m_subgroupid>
dock_pv

> <b_m_subgroup_collapsed>
1

$$$$
CHEMBL4581_lig765
                    3D
 Schrodinger Suite 2021-1.
 36 39  0  0  1  0            999 V2000
   18.0556   14.2409  109.7901 C   0  0  1  0  0  0
   16.7800   13.4003  109.5329 C   0  0  0  0  0  0
   16.6613   12.4640  110.6062 O   0  0  0  0  0  0
   19.4783   13.5618  108.9590 S   0  0  0  0  0  0
   19.6760   15.0478  107.9992 C   0  0  0  0  0  0
   18.8767   15.9881  108.3195 N   0  0  0  0  0  0
   18.0267   15.6420  109.3243 N   0  0  0  0  0  0
   20.7286   15.1359  106.9506 C   0  0  0  0  0  0
   20.7851   16.2982  106.1577 C   0  0  0  0  0  0
   21.7678   16.4583  105.1830 C   0  0  0  0  0  0
   22.7175   15.4651  104.9812 C   0  0  0  0  0  0
   22.6979   14.3205  105.7589 C   0  0  0  0  0  0
   21.7155   14.1413  106.7293 C   0  0  0  0  0  0
   18.2651   13.9794  111.2512 C   0  0  0  0  0  0
   17.4631   12.9149  111.6197 C   0  0  0  0  0  0
   17.5109   12.3628  112.8951 C   0  0  0  0  0  0
   18.3846   12.9260  113.8266 C   0  0  0  0  0  0
   19.1827   14.0191  113.4682 C   0  0  0  0  0  0
   19.1175   14.5619  112.1862 C   0  0  0  0  0  0
   17.2143   16.5824  109.8956 C   0  0  0  0  0  0
   16.4115   16.3273  110.7967 O   0  0  0  0  0  0
   17.2901   18.0391  109.4181 C   0  0  0  0  0  0
   21.8193   13.0214  107.4794 F   0  0  0  0  0  0
   21.7823   17.5619  104.4081 F   0  0  0  0  0  0
   16.7689   12.8976  108.5644 H   0  0  0  0  0  0
   15.8931   14.0345  109.5689 H   0  0  0  0  0  0
   20.0682   17.0979  106.2852 H   0  0  0  0  0  0
   23.4554   15.5572  104.2070 H   0  0  0  0  0  0
   23.4474   13.5620  105.6027 H   0  0  0  0  0  0
   16.8756   11.5342  113.1679 H   0  0  0  0  0  0
   18.4439   12.5176  114.8256 H   0  0  0  0  0  0
   19.8722   14.4486  114.1769 H   0  0  0  0  0  0
   19.7560   15.3912  111.9185 H   0  0  0  0  0  0
   18.3173   18.4032  109.4540 H   0  0  0  0  0  0
   16.9261   18.1230  108.3946 H   0  0  0  0  0  0
   16.6831   18.6863  110.0518 H   0  0  0  0  0  0
  1  2  1  0  0  0
  1 14  1  0  0  0
  1  7  1  0  0  0
  1  4  1  0  0  0
  2  3  1  0  0  0
  2 25  1  0  0  0
  2 26  1  0  0  0
  3 15  1  0  0  0
  4  5  1  0  0  0
  5  6  2  0  0  0
  5  8  1  0  0  0
  6  7  1  0  0  0
  7 20  1  0  0  0
  8  9  2  0  0  0
  8 13  1  0  0  0
  9 10  1  0  0  0
  9 27  1  0  0  0
 10 11  2  0  0  0
 10 24  1  0  0  0
 11 12  1  0  0  0
 11 28  1  0  0  0
 12 13  2  0  0  0
 12 29  1  0  0  0
 13 23  1  0  0  0
 14 15  2  0  0  0
 14 19  1  0  0  0
 15 16  1  0  0  0
 16 17  2  0  0  0
 16 30  1  0  0  0
 17 18  1  0  0  0
 17 31  1  0  0  0
 18 19  2  0  0  0
 18 32  1  0  0  0
 19 33  1  0  0  0
 20 21  2  0  0  0
 20 22  1  0  0  0
 22 34  1  0  0  0
 22 35  1  0  0  0
 22 36  1  0  0  0
M  END
> <s_m_entry_id>
14

> <s_m_entry_name>
dock_pv.13

> <s_m_Source_Path>
/home/csk/Desktop/cluster/DUD-E-result/kif11

> <s_m_Source_File>
dock_pv.maegz

> <i_m_Source_File_Index>
13

> <chembl_id>
CHEMBL3402336

> <chembl_pref_name>
None

> <i_lp_mmshare_version>
53161

> <i_f3d_flags>
0

> <r_lp_tautomer_probability>
1

> <s_lp_Force_Field>
OPLS_2005

> <r_lp_Energy>
29.534186

> <b_lp_Chiralities_Consistent>
1

> <s_lp_Variant>
CHEMBL4581_lig765-1

> <s_i_glide_gridfile>
glide-grid_3cjo

> <i_i_glide_lignum>
1135

> <i_i_glide_rotatable_bonds>
2

> <r_i_docking_score>
-9.40121992520416

> <r_i_glide_ligand_efficiency>
-0.391717496883507

> <r_i_glide_ligand_efficiency_sa>
-1.12990878192729

> <r_i_glide_ligand_efficiency_ln>
-2.25014332197372

> <r_i_glide_gscore>
-9.40121992520416

> <r_i_glide_lipo>
-4.45139295276301

> <r_i_glide_hbond>
0

> <r_i_glide_metal>
0

> <r_i_glide_rewards>
-2.6996207071158

> <r_i_glide_evdw>
-44.3897895812988

> <r_i_glide_ecoul>
-1.26130223274231

> <r_i_glide_erotb>
0.158478548650934

> <r_i_glide_esite>
0

> <r_i_glide_emodel>
-68.602694340857

> <r_i_glide_energy>
-45.6510918140411

> <r_i_glide_einternal>
0.879916846752167

> <i_i_glide_confnum>
3

> <i_i_glide_posenum>
350

> <r_i_glide_eff_state_penalty>
0

> <s_user_duplicate_titles>
CHEMBL4581_lig765

> <s_m_subgroup_title>
dock_pv

> <s_m_subgroupid>
dock_pv

> <b_m_subgroup_collapsed>
1

$$$$
CHEMBL4581_lig57
                    3D
 Schrodinger Suite 2021-1.
 55 58  0  0  1  0            999 V2000
   22.6971   15.4441  105.2496 C   0  0  0  0  0  0
   21.7239   16.4322  105.3106 C   0  0  0  0  0  0
   20.6320   16.2812  106.1593 C   0  0  0  0  0  0
   20.5061   15.1542  106.9867 C   0  0  0  0  0  0
   21.5180   14.1743  106.9360 C   0  0  0  0  0  0
   22.5962   14.3205  106.0631 C   0  0  0  0  0  0
   19.3422   15.0733  107.9035 C   0  0  0  0  0  0
   18.5047   16.2760  108.2681 C   0  0  0  0  0  0
   17.4996   15.7867  109.2040 N   0  0  0  0  0  0
   17.7367   14.3618  109.4568 C   0  0  1  0  0  0
   18.9059   13.9946  108.5751 C   0  0  0  0  0  0
   17.9872   13.9844  110.9134 C   0  0  0  0  0  0
   18.9081   14.6863  111.7031 C   0  0  0  0  0  0
   19.1170   14.3146  113.0309 C   0  0  0  0  0  0
   18.4019   13.2497  113.5798 C   0  0  0  0  0  0
   17.4764   12.5614  112.7995 C   0  0  0  0  0  0
   17.2778   12.9181  111.4677 C   0  0  0  0  0  0
   16.4696   16.4985  109.7476 C   0  0  0  0  0  0
   15.4572   15.9127  110.1389 O   0  0  0  0  0  0
   21.5181   13.1060  107.7625 F   0  0  0  0  0  0
   21.8243   17.5261  104.5239 F   0  0  0  0  0  0
   16.7177   11.5715  113.3590 O   0  0  0  0  0  0
   16.5562   17.8588  109.8006 N   0  0  0  0  0  0
   17.8205   18.5734  110.0247 C   0  0  0  0  0  0
   15.3263   18.6804  109.7242 C   0  0  0  0  0  0
   14.9300   19.3359  111.0729 C   0  0  0  0  0  0
   13.7331   20.3037  110.9804 C   0  0  0  0  0  0
   13.9982   21.3585  110.0107 N   0  0  2  0  0  0
   14.2217   20.7935  108.6833 C   0  0  0  0  0  0
   15.4383   19.8451  108.6971 C   0  0  0  0  0  0
   23.5180   15.5489  104.5608 H   0  0  0  0  0  0
   19.8951   17.0704  106.1708 H   0  0  0  0  0  0
   23.3627   13.5644  106.0244 H   0  0  0  0  0  0
   18.0230   16.7341  107.4035 H   0  0  0  0  0  0
   19.1434   17.0304  108.7132 H   0  0  0  0  0  0
   16.8554   13.8133  109.1162 H   0  0  0  0  0  0
   19.2892   12.9845  108.5584 H   0  0  0  0  0  0
   19.4673   15.5106  111.2839 H   0  0  0  0  0  0
   19.8336   14.8484  113.6374 H   0  0  0  0  0  0
   18.5502   12.9681  114.6137 H   0  0  0  0  0  0
   16.5579   12.3793  110.8689 H   0  0  0  0  0  0
   16.0254   11.2227  112.7852 H   0  0  0  0  0  0
   18.5413   17.9718  110.5788 H   0  0  0  0  0  0
   18.2528   18.8319  109.0604 H   0  0  0  0  0  0
   17.6854   19.5117  110.5587 H   0  0  0  0  0  0
   14.4959   18.0851  109.3378 H   0  0  0  0  0  0
   15.7615   19.8519  111.5530 H   0  0  0  0  0  0
   14.6527   18.5329  111.7580 H   0  0  0  0  0  0
   13.5513   20.7701  111.9502 H   0  0  0  0  0  0
   12.8206   19.7712  110.7043 H   0  0  0  0  0  0
   14.8358   21.8486  110.3057 H   0  0  0  0  0  0
   14.3861   21.6101  107.9774 H   0  0  0  0  0  0
   13.3236   20.2638  108.3594 H   0  0  0  0  0  0
   15.5545   19.4253  107.6981 H   0  0  0  0  0  0
   16.3182   20.4621  108.8668 H   0  0  0  0  0  0
  1  2  2  0  0  0
  1  6  1  0  0  0
  1 31  1  0  0  0
  2 21  1  0  0  0
  2  3  1  0  0  0
  3  4  2  0  0  0
  3 32  1  0  0  0
  4  5  1  0  0  0
  4  7  1  0  0  0
  5 20  1  0  0  0
  5  6  2  0  0  0
  6 33  1  0  0  0
  7 11  2  0  0  0
  7  8  1  0  0  0
  8  9  1  0  0  0
  8 34  1  0  0  0
  8 35  1  0  0  0
  9 10  1  0  0  0
  9 18  1  0  0  0
 10 11  1  0  0  0
 10 12  1  0  0  0
 10 36  1  0  0  0
 11 37  1  0  0  0
 12 13  2  0  0  0
 12 17  1  0  0  0
 13 14  1  0  0  0
 13 38  1  0  0  0
 14 15  2  0  0  0
 14 39  1  0  0  0
 15 16  1  0  0  0
 15 40  1  0  0  0
 16 17  2  0  0  0
 16 22  1  0  0  0
 17 41  1  0  0  0
 18 19  2  0  0  0
 18 23  1  0  0  0
 22 42  1  0  0  0
 23 24  1  0  0  0
 23 25  1  0  0  0
 24 43  1  0  0  0
 24 44  1  0  0  0
 24 45  1  0  0  0
 25 26  1  0  0  0
 25 30  1  0  0  0
 25 46  1  0  0  0
 26 27  1  0  0  0
 26 47  1  0  0  0
 26 48  1  0  0  0
 27 28  1  0  0  0
 27 49  1  0  0  0
 27 50  1  0  0  0
 28 29  1  0  0  0
 28 51  1  0  0  0
 29 30  1  0  0  0
 29 52  1  0  0  0
 29 53  1  0  0  0
 30 54  1  0  0  0
 30 55  1  0  0  0
M  END
> <s_m_entry_id>
15

> <s_m_entry_name>
dock_pv.14

> <s_m_Source_Path>
/home/csk/Desktop/cluster/DUD-E-result/kif11

> <s_m_Source_File>
dock_pv.maegz

> <i_m_Source_File_Index>
14

> <chembl_id>
CHEMBL206249

> <chembl_pref_name>
None

> <i_lp_mmshare_version>
53161

> <i_f3d_flags>
0

> <r_lp_tautomer_probability>
0.999999999997365

> <s_lp_Force_Field>
OPLS_2005

> <r_lp_Energy>
67.178771

> <b_lp_Chiralities_Consistent>
1

> <s_lp_Variant>
CHEMBL4581_lig57-2

> <s_i_glide_gridfile>
glide-grid_3cjo

> <i_i_glide_lignum>
87

> <i_i_glide_rotatable_bonds>
6

> <r_i_docking_score>
-9.39441546913801

> <r_i_glide_ligand_efficiency>
-0.3131471823046

> <r_i_glide_ligand_efficiency_sa>
-0.973021102901568

> <r_i_glide_ligand_efficiency_ln>
-2.13451355494311

> <r_i_glide_gscore>
-9.39441546913801

> <r_i_glide_lipo>
-4.73823966466701

> <r_i_glide_hbond>
-0.32

> <r_i_glide_metal>
0

> <r_i_glide_rewards>
-2.08543728198479

> <r_i_glide_evdw>
-41.3912010192871

> <r_i_glide_ecoul>
-5.05469655990601

> <r_i_glide_erotb>
0.577026012464047

> <r_i_glide_esite>
0

> <r_i_glide_emodel>
-71.4997803057921

> <r_i_glide_energy>
-46.4458975791931

> <r_i_glide_einternal>
2.82945895195007

> <i_i_glide_confnum>
111

> <i_i_glide_posenum>
117

> <r_i_glide_eff_state_penalty>
0

> <s_user_duplicate_titles>
CHEMBL4581_lig57,344079

> <s_m_subgroup_title>
dock_pv

> <s_m_subgroupid>
dock_pv

> <b_m_subgroup_collapsed>
1

$$$$
CHEMBL4581_lig188
                    3D
 Schrodinger Suite 2021-1.
 59 61  0  0  1  0            999 V2000
   20.4738   16.0611  106.3232 C   0  0  0  0  0  0
   20.3001   14.9982  107.2236 C   0  0  0  0  0  0
   21.2619   13.9660  107.2333 C   0  0  0  0  0  0
   22.3189   13.9774  106.3215 C   0  0  0  0  0  0
   22.4792   15.0495  105.4439 C   0  0  0  0  0  0
   21.5648   16.0995  105.4562 C   0  0  0  0  0  0
   21.7280   17.1531  104.6256 F   0  0  0  0  0  0
   21.2233   12.9810  108.1595 F   0  0  0  0  0  0
   19.1431   15.0243  108.1537 C   0  0  0  0  0  0
   18.4794   16.2890  108.6390 C   0  0  0  0  0  0
   17.4972   15.8531  109.6341 N   0  0  0  0  0  0
   17.4263   14.3678  109.6476 C   0  0  1  0  0  0
   18.5466   13.9566  108.7092 C   0  0  0  0  0  0
   16.6300   16.6877  110.2836 C   0  0  0  0  0  0
   17.7617   13.7937  111.0557 C   0  0  0  0  0  0
   17.1179   12.6535  111.5579 C   0  0  0  0  0  0
   17.3783   12.2008  112.8486 C   0  0  0  0  0  0
   18.3159   12.8495  113.6416 C   0  0  0  0  0  0
   18.9931   13.9637  113.1522 C   0  0  0  0  0  0
   18.7138   14.4342  111.8706 C   0  0  0  0  0  0
   16.0590   13.8345  109.0627 C   0  0  0  0  0  0
   15.4595   14.5685  107.8275 C   0  0  0  0  0  0
   15.7120   13.9101  106.4615 C   0  0  0  0  0  0
   14.8321   12.7623  106.2993 N   0  0  1  0  0  0
   15.5189   16.2978  110.6498 O   0  0  0  0  0  0
   17.0058   17.9741  110.4989 N   0  0  0  0  0  0
   18.3367   18.3682  110.9575 C   0  0  0  0  0  0
   16.0179   19.0538  110.5637 C   0  0  0  0  0  0
   14.8563   12.2754  104.9311 C   0  0  0  0  0  0
   13.9146   11.0714  104.8275 C   0  0  0  0  0  0
   19.7750   16.8852  106.3042 H   0  0  0  0  0  0
   23.0376   13.1721  106.3211 H   0  0  0  0  0  0
   23.3106   15.0683  104.7553 H   0  0  0  0  0  0
   19.2036   16.9773  109.0597 H   0  0  0  0  0  0
   17.9880   16.8362  107.8337 H   0  0  0  0  0  0
   18.7899   12.9152  108.5575 H   0  0  0  0  0  0
   16.3893   12.1117  110.9732 H   0  0  0  0  0  0
   16.8399   11.3492  113.2372 H   0  0  0  0  0  0
   18.5172   12.4939  114.6424 H   0  0  0  0  0  0
   19.7293   14.4653  113.7635 H   0  0  0  0  0  0
   19.2470   15.3022  111.5145 H   0  0  0  0  0  0
   15.3087   13.8923  109.8519 H   0  0  0  0  0  0
   16.1341   12.7683  108.8454 H   0  0  0  0  0  0
   15.8178   15.5932  107.7672 H   0  0  0  0  0  0
   14.3827   14.6821  107.9684 H   0  0  0  0  0  0
   16.7573   13.6080  106.3651 H   0  0  0  0  0  0
   15.5116   14.6426  105.6758 H   0  0  0  0  0  0
   15.1184   12.0058  106.9189 H   0  0  0  0  0  0
   19.0549   17.5513  110.9864 H   0  0  0  0  0  0
   18.7201   19.1558  110.3166 H   0  0  0  0  0  0
   18.2809   18.7647  111.9676 H   0  0  0  0  0  0
   15.0286   18.7347  110.2259 H   0  0  0  0  0  0
   15.9189   19.4212  111.5848 H   0  0  0  0  0  0
   16.3199   19.8889  109.9304 H   0  0  0  0  0  0
   15.8692   11.9925  104.6412 H   0  0  0  0  0  0
   14.5176   13.0601  104.2510 H   0  0  0  0  0  0
   13.8184   10.7409  103.7933 H   0  0  0  0  0  0
   12.9125   11.3148  105.1820 H   0  0  0  0  0  0
   14.2800   10.2278  105.4133 H   0  0  0  0  0  0
  1  6  1  0  0  0
  1  2  2  0  0  0
  1 31  1  0  0  0
  2  9  1  0  0  0
  2  3  1  0  0  0
  3  4  2  0  0  0
  3  8  1  0  0  0
  4  5  1  0  0  0
  4 32  1  0  0  0
  5  6  2  0  0  0
  5 33  1  0  0  0
  6  7  1  0  0  0
  9 10  1  0  0  0
  9 13  2  0  0  0
 10 11  1  0  0  0
 10 34  1  0  0  0
 10 35  1  0  0  0
 11 12  1  0  0  0
 11 14  1  0  0  0
 12 15  1  0  0  0
 12 21  1  0  0  0
 12 13  1  0  0  0
 13 36  1  0  0  0
 14 25  2  0  0  0
 14 26  1  0  0  0
 15 16  2  0  0  0
 15 20  1  0  0  0
 16 17  1  0  0  0
 16 37  1  0  0  0
 17 18  2  0  0  0
 17 38  1  0  0  0
 18 19  1  0  0  0
 18 39  1  0  0  0
 19 20  2  0  0  0
 19 40  1  0  0  0
 20 41  1  0  0  0
 21 22  1  0  0  0
 21 42  1  0  0  0
 21 43  1  0  0  0
 22 23  1  0  0  0
 22 44  1  0  0  0
 22 45  1  0  0  0
 23 24  1  0  0  0
 23 46  1  0  0  0
 23 47  1  0  0  0
 24 29  1  0  0  0
 24 48  1  0  0  0
 26 27  1  0  0  0
 26 28  1  0  0  0
 27 49  1  0  0  0
 27 50  1  0  0  0
 27 51  1  0  0  0
 28 52  1  0  0  0
 28 53  1  0  0  0
 28 54  1  0  0  0
 29 30  1  0  0  0
 29 55  1  0  0  0
 29 56  1  0  0  0
 30 57  1  0  0  0
 30 58  1  0  0  0
 30 59  1  0  0  0
M  END
> <s_m_entry_id>
16

> <s_m_entry_name>
dock_pv.15

> <s_m_Source_Path>
/home/csk/Desktop/cluster/DUD-E-result/kif11

> <s_m_Source_File>
dock_pv.maegz

> <i_m_Source_File_Index>
15

> <chembl_id>
CHEMBL389082

> <chembl_pref_name>
None

> <i_lp_mmshare_version>
53161

> <i_f3d_flags>
0

> <r_lp_tautomer_probability>
1

> <s_lp_Force_Field>
OPLS_2005

> <r_lp_Energy>
61.901653

> <b_lp_Chiralities_Consistent>
1

> <s_lp_Variant>
CHEMBL4581_lig188-1

> <s_i_glide_gridfile>
glide-grid_3cjo

> <i_i_glide_lignum>
284

> <i_i_glide_rotatable_bonds>
9

> <r_i_docking_score>
-9.34349135875933

> <r_i_glide_ligand_efficiency>
-0.311449711958644

> <r_i_glide_ligand_efficiency_sa>
-0.9677466678707

> <r_i_glide_ligand_efficiency_ln>
-2.12294304220245

> <r_i_glide_gscore>
-9.34349135875933

> <r_i_glide_lipo>
-4.84035974169786

> <r_i_glide_hbond>
-0.32

> <r_i_glide_metal>
0

> <r_i_glide_rewards>
-1.90259407810904

> <r_i_glide_evdw>
-46.4142799377441

> <r_i_glide_ecoul>
-5.11672067642212

> <r_i_glide_erotb>
0.807684559398096

> <r_i_glide_esite>
0

> <r_i_glide_emodel>
-76.843340176594

> <r_i_glide_energy>
-51.5310006141663

> <r_i_glide_einternal>
7.00785493850708

> <i_i_glide_confnum>
57

> <i_i_glide_posenum>
223

> <r_i_glide_eff_state_penalty>
0

> <s_user_duplicate_titles>
CHEMBL4581_lig188,394399

> <s_m_subgroup_title>
dock_pv

> <s_m_subgroupid>
dock_pv

> <b_m_subgroup_collapsed>
1

$$$$
CHEMBL4581_lig714
                    3D
 Schrodinger Suite 2021-1.
 52 55  0  0  1  0            999 V2000
   17.9784   17.4312  110.2276 C   0  0  0  0  0  0
   19.1179   16.3439  111.1281 S   0  0  0  0  0  0
   17.3440   14.6194  109.0491 C   0  0  2  0  0  0
   16.5573   16.9697  109.8880 C   0  0  0  0  0  0
   16.2487   15.7174  109.2775 C   0  0  0  0  0  0
   14.8935   15.4816  108.9572 C   0  0  0  0  0  0
   13.8912   16.4094  109.2108 C   0  0  0  0  0  0
   14.2064   17.6133  109.8172 C   0  0  0  0  0  0
   15.5263   17.8842  110.1488 C   0  0  0  0  0  0
   17.6072   14.0603  110.4925 C   0  0  0  0  0  0
   18.3605   14.7846  111.4517 C   0  0  0  0  0  0
   18.5733   14.2753  112.7373 C   0  0  0  0  0  0
   18.0074   13.0726  113.1351 C   0  0  0  0  0  0
   17.2299   12.3621  112.2351 C   0  0  0  0  0  0
   17.0480   12.8423  110.9430 C   0  0  0  0  0  0
   18.6026   15.0604  108.2458 C   0  0  0  0  0  0
   18.5475   16.1464  107.3610 C   0  0  0  0  0  0
   19.6062   16.4248  106.5045 C   0  0  0  0  0  0
   20.7513   15.6304  106.5032 C   0  0  0  0  0  0
   20.8186   14.5484  107.3878 C   0  0  0  0  0  0
   19.7717   14.2866  108.2720 C   0  0  0  0  0  0
   16.7186   13.2375  107.9560 S   0  0  0  0  0  0
   16.6142   13.9290  106.2712 C   0  0  0  0  0  0
   15.9335   12.9863  105.2601 C   0  0  1  0  0  0
   14.3878   12.9852  105.3790 C   0  0  0  0  0  0
   16.3179   13.3658  103.8834 N   0  0  0  0  0  0
   13.9237   11.9629  106.1586 O   0  0  0  0  0  0
   13.6777   13.8404  104.8492 O   0  0  0  0  0  0
   21.9005   15.9360  105.5307 C   0  0  0  0  0  0
   22.3729   14.8247  104.9680 F   0  0  0  0  0  0
   21.5166   16.7620  104.5591 F   0  0  0  0  0  0
   22.9027   16.5390  106.1590 F   0  0  0  0  0  0
   17.9209   18.3212  110.8570 H   0  0  0  0  0  0
   18.4738   17.7906  109.3288 H   0  0  0  0  0  0
   14.5676   14.5532  108.5164 H   0  0  0  0  0  0
   12.8669   16.1850  108.9500 H   0  0  0  0  0  0
   13.4329   18.3400  110.0243 H   0  0  0  0  0  0
   15.7479   18.8382  110.6079 H   0  0  0  0  0  0
   19.1699   14.8292  113.4461 H   0  0  0  0  0  0
   18.1566   12.7013  114.1395 H   0  0  0  0  0  0
   16.7380   11.4511  112.5413 H   0  0  0  0  0  0
   16.4151   12.2398  110.3111 H   0  0  0  0  0  0
   17.6612   16.7618  107.2930 H   0  0  0  0  0  0
   19.5198   17.2644  105.8301 H   0  0  0  0  0  0
   21.6877   13.9075  107.3926 H   0  0  0  0  0  0
   19.8375   13.4309  108.9287 H   0  0  0  0  0  0
   17.6394   14.0929  105.9383 H   0  0  0  0  0  0
   16.1275   14.9045  106.2964 H   0  0  0  0  0  0
   16.2825   11.9672  105.4358 H   0  0  0  0  0  0
   16.2350   14.3644  103.7713 H   0  0  0  0  0  0
   17.3173   13.1625  103.7729 H   0  0  0  0  0  0
   14.6164   11.4266  106.5719 H   0  0  0  0  0  0
  1  4  1  0  0  0
  1  2  1  0  0  0
  1 33  1  0  0  0
  1 34  1  0  0  0
  2 11  1  0  0  0
  3 10  1  0  0  0
  3  5  1  0  0  0
  3 16  1  0  0  0
  3 22  1  0  0  0
  4  5  2  0  0  0
  4  9  1  0  0  0
  5  6  1  0  0  0
  6  7  2  0  0  0
  6 35  1  0  0  0
  7  8  1  0  0  0
  7 36  1  0  0  0
  8  9  2  0  0  0
  8 37  1  0  0  0
  9 38  1  0  0  0
 10 11  2  0  0  0
 10 15  1  0  0  0
 11 12  1  0  0  0
 12 13  2  0  0  0
 12 39  1  0  0  0
 13 14  1  0  0  0
 13 40  1  0  0  0
 14 15  2  0  0  0
 14 41  1  0  0  0
 15 42  1  0  0  0
 16 17  2  0  0  0
 16 21  1  0  0  0
 17 18  1  0  0  0
 17 43  1  0  0  0
 18 19  2  0  0  0
 18 44  1  0  0  0
 19 20  1  0  0  0
 19 29  1  0  0  0
 20 21  2  0  0  0
 20 45  1  0  0  0
 21 46  1  0  0  0
 22 23  1  0  0  0
 23 24  1  0  0  0
 23 47  1  0  0  0
 23 48  1  0  0  0
 24 25  1  0  0  0
 24 26  1  0  0  0
 24 49  1  0  0  0
 25 27  1  0  0  0
 25 28  2  0  0  0
 26 50  1  0  0  0
 26 51  1  0  0  0
 27 52  1  0  0  0
 29 30  1  0  0  0
 29 31  1  0  0  0
 29 32  1  0  0  0
M  END
> <s_m_entry_id>
17

> <s_m_entry_name>
dock_pv.16

> <s_m_Source_Path>
/home/csk/Desktop/cluster/DUD-E-result/kif11

> <s_m_Source_File>
dock_pv.maegz

> <i_m_Source_File_Index>
16

> <chembl_id>
CHEMBL3633541

> <chembl_pref_name>
None

> <i_lp_mmshare_version>
53161

> <i_f3d_flags>
0

> <r_lp_tautomer_probability>
1

> <s_lp_Force_Field>
OPLS_2005

> <r_lp_Energy>
40.369867

> <b_lp_Chiralities_Consistent>
1

> <s_lp_Variant>
CHEMBL4581_lig714-2

> <s_i_glide_gridfile>
glide-grid_3cjo

> <i_i_glide_lignum>
1059

> <i_i_glide_rotatable_bonds>
7

> <r_i_docking_score>
-9.32919717784802

> <r_i_glide_ligand_efficiency>
-0.291537411807751

> <r_i_glide_ligand_efficiency_sa>
-0.925573587314155

> <r_i_glide_ligand_efficiency_ln>
-2.08906155243064

> <r_i_glide_gscore>
-9.32919717784802

> <r_i_glide_lipo>
-4.64841229885712

> <r_i_glide_hbond>
-0.152

> <r_i_glide_metal>
0

> <r_i_glide_rewards>
-1.43296287950229

> <r_i_glide_evdw>
-42.3260231018066

> <r_i_glide_ecoul>
-9.50742149353027

> <r_i_glide_erotb>
0.447568656195145

> <r_i_glide_esite>
-0.000976276563891092

> <r_i_glide_emodel>
-81.8546600270989

> <r_i_glide_energy>
-51.8334445953369

> <r_i_glide_einternal>
2.9618501663208

> <i_i_glide_confnum>
29

> <i_i_glide_posenum>
276

> <r_i_glide_eff_state_penalty>
0

> <s_user_duplicate_titles>
CHEMBL4581_lig714

> <s_m_subgroup_title>
dock_pv

> <s_m_subgroupid>
dock_pv

> <b_m_subgroup_collapsed>
1

$$$$
CHEMBL4581_lig186
                    3D
 Schrodinger Suite 2021-1.
 59 61  0  0  1  0            999 V2000
   20.5745   16.0559  106.3868 C   0  0  0  0  0  0
   20.4694   14.9817  107.2859 C   0  0  0  0  0  0
   21.4404   13.9621  107.2166 C   0  0  0  0  0  0
   22.4216   13.9866  106.2275 C   0  0  0  0  0  0
   22.5198   15.0699  105.3588 C   0  0  0  0  0  0
   21.6012   16.1112  105.4460 C   0  0  0  0  0  0
   21.6904   17.1622  104.6016 F   0  0  0  0  0  0
   21.4909   12.9666  108.1328 F   0  0  0  0  0  0
   19.3535   14.9681  108.2646 C   0  0  0  0  0  0
   18.5065   16.1755  108.5961 C   0  0  0  0  0  0
   17.6135   15.7228  109.6616 N   0  0  0  0  0  0
   17.6791   14.2446  109.7705 C   0  0  1  0  0  0
   18.9047   13.8990  108.9454 C   0  0  0  0  0  0
   16.6908   16.5185  110.2776 C   0  0  0  0  0  0
   17.9434   13.7920  111.2328 C   0  0  0  0  0  0
   17.2574   12.7138  111.8117 C   0  0  0  0  0  0
   17.4854   12.3621  113.1378 C   0  0  0  0  0  0
   18.4157   13.0601  113.8958 C   0  0  0  0  0  0
   19.1178   14.1227  113.3409 C   0  0  0  0  0  0
   18.8823   14.4849  112.0171 C   0  0  0  0  0  0
   16.4218   13.5466  109.1178 C   0  0  0  0  0  0
   15.9413   14.0340  107.7225 C   0  0  0  0  0  0
   16.7255   13.4338  106.5349 C   0  0  0  0  0  0
   16.3184   13.9319  105.2246 N   0  0  1  0  0  0
   15.5711   16.0860  110.5593 O   0  0  0  0  0  0
   17.0315   17.8067  110.5583 N   0  0  0  0  0  0
   18.3796   18.2705  110.8987 C   0  0  0  0  0  0
   16.0160   18.8506  110.7145 C   0  0  0  0  0  0
   16.6819   15.3360  105.0252 C   0  0  0  0  0  0
   16.4077   15.7812  103.5775 C   0  0  0  0  0  0
   17.1174   15.1017  102.6739 F   0  0  0  0  0  0
   16.6544   17.0788  103.4004 F   0  0  0  0  0  0
   19.8677   16.8721  106.4127 H   0  0  0  0  0  0
   23.1182   13.1680  106.1600 H   0  0  0  0  0  0
   23.2951   15.0967  104.6078 H   0  0  0  0  0  0
   19.1191   17.0181  108.9015 H   0  0  0  0  0  0
   17.9282   16.5220  107.7390 H   0  0  0  0  0  0
   19.2702   12.8840  108.8982 H   0  0  0  0  0  0
   16.5257   12.1403  111.2637 H   0  0  0  0  0  0
   16.9218   11.5576  113.5824 H   0  0  0  0  0  0
   18.5895   12.7744  114.9237 H   0  0  0  0  0  0
   19.8460   14.6604  113.9302 H   0  0  0  0  0  0
   19.4408   15.3082  111.5968 H   0  0  0  0  0  0
   15.5745   13.6623  109.7950 H   0  0  0  0  0  0
   16.5848   12.4684  109.0595 H   0  0  0  0  0  0
   15.9410   15.1213  107.6929 H   0  0  0  0  0  0
   14.8961   13.7461  107.6022 H   0  0  0  0  0  0
   16.5738   12.3556  106.5402 H   0  0  0  0  0  0
   17.8006   13.5632  106.6353 H   0  0  0  0  0  0
   16.8555   13.3849  104.5551 H   0  0  0  0  0  0
   19.1120   17.4656  110.9549 H   0  0  0  0  0  0
   18.7179   18.9971  110.1609 H   0  0  0  0  0  0
   18.3772   18.7619  111.8706 H   0  0  0  0  0  0
   15.0143   18.5109  110.4463 H   0  0  0  0  0  0
   15.9871   19.1984  111.7484 H   0  0  0  0  0  0
   16.2524   19.7022  110.0762 H   0  0  0  0  0  0
   17.7418   15.4826  105.2421 H   0  0  0  0  0  0
   16.1108   15.9747  105.6991 H   0  0  0  0  0  0
   15.3573   15.6306  103.3241 H   0  0  0  0  0  0
  1  6  1  0  0  0
  1  2  2  0  0  0
  1 33  1  0  0  0
  2  9  1  0  0  0
  2  3  1  0  0  0
  3  4  2  0  0  0
  3  8  1  0  0  0
  4  5  1  0  0  0
  4 34  1  0  0  0
  5  6  2  0  0  0
  5 35  1  0  0  0
  6  7  1  0  0  0
  9 10  1  0  0  0
  9 13  2  0  0  0
 10 11  1  0  0  0
 10 36  1  0  0  0
 10 37  1  0  0  0
 11 12  1  0  0  0
 11 14  1  0  0  0
 12 21  1  0  0  0
 12 13  1  0  0  0
 12 15  1  0  0  0
 13 38  1  0  0  0
 14 25  2  0  0  0
 14 26  1  0  0  0
 15 16  2  0  0  0
 15 20  1  0  0  0
 16 17  1  0  0  0
 16 39  1  0  0  0
 17 18  2  0  0  0
 17 40  1  0  0  0
 18 19  1  0  0  0
 18 41  1  0  0  0
 19 20  2  0  0  0
 19 42  1  0  0  0
 20 43  1  0  0  0
 21 22  1  0  0  0
 21 44  1  0  0  0
 21 45  1  0  0  0
 22 23  1  0  0  0
 22 46  1  0  0  0
 22 47  1  0  0  0
 23 24  1  0  0  0
 23 48  1  0  0  0
 23 49  1  0  0  0
 24 29  1  0  0  0
 24 50  1  0  0  0
 26 27  1  0  0  0
 26 28  1  0  0  0
 27 51  1  0  0  0
 27 52  1  0  0  0
 27 53  1  0  0  0
 28 54  1  0  0  0
 28 55  1  0  0  0
 28 56  1  0  0  0
 29 30  1  0  0  0
 29 57  1  0  0  0
 29 58  1  0  0  0
 30 31  1  0  0  0
 30 32  1  0  0  0
 30 59  1  0  0  0
M  END
> <s_m_entry_id>
18

> <s_m_entry_name>
dock_pv.17

> <s_m_Source_Path>
/home/csk/Desktop/cluster/DUD-E-result/kif11

> <s_m_Source_File>
dock_pv.maegz

> <i_m_Source_File_Index>
17

> <chembl_id>
CHEMBL232258

> <chembl_pref_name>
None

> <i_lp_mmshare_version>
53161

> <i_f3d_flags>
0

> <r_lp_tautomer_probability>
1

> <s_lp_Force_Field>
OPLS_2005

> <r_lp_Energy>
66.61448

> <b_lp_Chiralities_Consistent>
1

> <s_lp_Variant>
CHEMBL4581_lig186-1

> <s_i_glide_gridfile>
glide-grid_3cjo

> <i_i_glide_lignum>
282

> <i_i_glide_rotatable_bonds>
10

> <r_i_docking_score>
-9.32185199454466

> <r_i_glide_ligand_efficiency>
-0.291307874829521

> <r_i_glide_ligand_efficiency_sa>
-0.92484485283358

> <r_i_glide_ligand_efficiency_ln>
-2.08741676566688

> <r_i_glide_gscore>
-9.32185199454466

> <r_i_glide_lipo>
-4.94240770821126

> <r_i_glide_hbond>
-0.0508715321642744

> <r_i_glide_metal>
0

> <r_i_glide_rewards>
-1.86569812293701

> <r_i_glide_evdw>
-49.587272644043

> <r_i_glide_ecoul>
-4.77652025222778

> <r_i_glide_erotb>
0.793571880052177

> <r_i_glide_esite>
-0.0606048412479682

> <r_i_glide_emodel>
-82.5381770004978

> <r_i_glide_energy>
-54.3637928962708

> <r_i_glide_einternal>
4.69955062866211

> <i_i_glide_confnum>
124

> <i_i_glide_posenum>
141

> <r_i_glide_eff_state_penalty>
0

> <s_user_duplicate_titles>
CHEMBL4581_lig186,394405

> <s_m_subgroup_title>
dock_pv

> <s_m_subgroupid>
dock_pv

> <b_m_subgroup_collapsed>
1

$$$$
CHEMBL4581_lig184
                    3D
 Schrodinger Suite 2021-1.
 56 58  0  0  1  0            999 V2000
   20.4437   16.1987  106.2382 C   0  0  0  0  0  0
   20.2870   15.1510  107.1592 C   0  0  0  0  0  0
   21.2519   14.1256  107.1718 C   0  0  0  0  0  0
   22.3041   14.1266  106.2531 C   0  0  0  0  0  0
   22.4486   15.1818  105.3583 C   0  0  0  0  0  0
   21.5245   16.2237  105.3598 C   0  0  0  0  0  0
   21.6693   17.2517  104.4949 F   0  0  0  0  0  0
   21.2352   13.1616  108.1212 F   0  0  0  0  0  0
   19.1403   15.1681  108.1003 C   0  0  0  0  0  0
   18.4323   16.4213  108.5597 C   0  0  0  0  0  0
   17.4704   15.9664  109.5618 N   0  0  0  0  0  0
   17.4424   14.4808  109.5981 C   0  0  1  0  0  0
   18.5883   14.0916  108.6849 C   0  0  0  0  0  0
   16.5982   16.7867  110.2205 C   0  0  0  0  0  0
   17.7615   13.9332  111.0182 C   0  0  0  0  0  0
   17.1187   12.7978  111.5362 C   0  0  0  0  0  0
   17.3905   12.3621  112.8306 C   0  0  0  0  0  0
   18.3155   13.0395  113.6168 C   0  0  0  0  0  0
   18.9824   14.1504  113.1132 C   0  0  0  0  0  0
   18.7064   14.5930  111.8243 C   0  0  0  0  0  0
   16.1153   13.9002  108.9766 C   0  0  0  0  0  0
   15.6068   14.5898  107.6806 C   0  0  0  0  0  0
   14.3197   13.9711  107.0874 C   0  0  2  0  0  0
   14.6671   12.7621  106.3565 N   0  0  0  0  0  0
   15.5174   16.3703  110.6399 O   0  0  0  0  0  0
   16.9460   18.0896  110.3776 N   0  0  0  0  0  0
   18.2260   18.5028  110.9596 C   0  0  0  0  0  0
   15.9322   19.1454  110.3504 C   0  0  0  0  0  0
   13.5667   14.9372  106.1407 C   0  0  0  0  0  0
   12.4593   14.4015  105.6225 F   0  0  0  0  0  0
   13.2292   16.0840  106.7319 F   0  0  0  0  0  0
   19.7384   17.0157  106.2101 H   0  0  0  0  0  0
   23.0270   13.3243  106.2621 H   0  0  0  0  0  0
   23.2729   15.1890  104.6604 H   0  0  0  0  0  0
   19.1190   17.1560  108.9679 H   0  0  0  0  0  0
   17.9139   16.9249  107.7445 H   0  0  0  0  0  0
   18.8636   13.0554  108.5539 H   0  0  0  0  0  0
   16.3920   12.2473  110.9604 H   0  0  0  0  0  0
   16.8683   11.5045  113.2294 H   0  0  0  0  0  0
   18.5216   12.6968  114.6212 H   0  0  0  0  0  0
   19.7067   14.6690  113.7237 H   0  0  0  0  0  0
   19.2358   15.4577  111.4524 H   0  0  0  0  0  0
   16.2461   12.8349  108.7748 H   0  0  0  0  0  0
   15.3160   13.9585  109.7173 H   0  0  0  0  0  0
   15.4025   15.6348  107.9087 H   0  0  0  0  0  0
   16.3933   14.6087  106.9246 H   0  0  0  0  0  0
   13.6419   13.7056  107.9011 H   0  0  0  0  0  0
   15.1176   12.0752  106.9584 H   0  0  0  0  0  0
   13.8346   12.3134  105.9986 H   0  0  0  0  0  0
   18.9954   17.7321  110.9308 H   0  0  0  0  0  0
   18.6092   19.3945  110.4627 H   0  0  0  0  0  0
   18.0775   18.7638  112.0048 H   0  0  0  0  0  0
   14.9919   18.8071  109.9096 H   0  0  0  0  0  0
   15.7203   19.5042  111.3561 H   0  0  0  0  0  0
   16.2879   19.9891  109.7591 H   0  0  0  0  0  0
   14.1972   15.2122  105.2942 H   0  0  0  0  0  0
  1  6  1  0  0  0
  1  2  2  0  0  0
  1 32  1  0  0  0
  2  9  1  0  0  0
  2  3  1  0  0  0
  3  4  2  0  0  0
  3  8  1  0  0  0
  4  5  1  0  0  0
  4 33  1  0  0  0
  5  6  2  0  0  0
  5 34  1  0  0  0
  6  7  1  0  0  0
  9 10  1  0  0  0
  9 13  2  0  0  0
 10 11  1  0  0  0
 10 35  1  0  0  0
 10 36  1  0  0  0
 11 12  1  0  0  0
 11 14  1  0  0  0
 12 15  1  0  0  0
 12 21  1  0  0  0
 12 13  1  0  0  0
 13 37  1  0  0  0
 14 25  2  0  0  0
 14 26  1  0  0  0
 15 16  2  0  0  0
 15 20  1  0  0  0
 16 17  1  0  0  0
 16 38  1  0  0  0
 17 18  2  0  0  0
 17 39  1  0  0  0
 18 19  1  0  0  0
 18 40  1  0  0  0
 19 20  2  0  0  0
 19 41  1  0  0  0
 20 42  1  0  0  0
 21 22  1  0  0  0
 21 43  1  0  0  0
 21 44  1  0  0  0
 22 23  1  0  0  0
 22 45  1  0  0  0
 22 46  1  0  0  0
 23 24  1  0  0  0
 23 29  1  0  0  0
 23 47  1  0  0  0
 24 48  1  0  0  0
 24 49  1  0  0  0
 26 27  1  0  0  0
 26 28  1  0  0  0
 27 50  1  0  0  0
 27 51  1  0  0  0
 27 52  1  0  0  0
 28 53  1  0  0  0
 28 54  1  0  0  0
 28 55  1  0  0  0
 29 30  1  0  0  0
 29 31  1  0  0  0
 29 56  1  0  0  0
M  END
> <s_m_entry_id>
19

> <s_m_entry_name>
dock_pv.18

> <s_m_Source_Path>
/home/csk/Desktop/cluster/DUD-E-result/kif11

> <s_m_Source_File>
dock_pv.maegz

> <i_m_Source_File_Index>
18

> <chembl_id>
CHEMBL395034

> <chembl_pref_name>
None

> <i_lp_mmshare_version>
53161

> <i_f3d_flags>
0

> <r_lp_tautomer_probability>
1

> <s_lp_Force_Field>
OPLS_2005

> <r_lp_Energy>
63.087643

> <b_lp_Chiralities_Consistent>
1

> <s_lp_Variant>
CHEMBL4581_lig184-1

> <s_i_glide_gridfile>
glide-grid_3cjo

> <i_i_glide_lignum>
280

> <i_i_glide_rotatable_bonds>
8

> <r_i_docking_score>
-9.31592552821429

> <r_i_glide_ligand_efficiency>
-0.30051372671659

> <r_i_glide_ligand_efficiency_sa>
-0.944028005804937

> <r_i_glide_ligand_efficiency_ln>
-2.10102670544265

> <r_i_glide_gscore>
-9.31592552821429

> <r_i_glide_lipo>
-4.90214325013711

> <r_i_glide_hbond>
-0.32

> <r_i_glide_metal>
0

> <r_i_glide_rewards>
-1.7818115644599

> <r_i_glide_evdw>
-44.2271995544434

> <r_i_glide_ecoul>
-4.873694896698

> <r_i_glide_erotb>
0.630443498609591

> <r_i_glide_esite>
0

> <r_i_glide_emodel>
-75.0527926325221

> <r_i_glide_energy>
-49.1008944511414

> <r_i_glide_einternal>
4.44652652740479

> <i_i_glide_confnum>
89

> <i_i_glide_posenum>
138

> <r_i_glide_eff_state_penalty>
0

> <s_user_duplicate_titles>
CHEMBL4581_lig184,394409

> <s_m_subgroup_title>
dock_pv

> <s_m_subgroupid>
dock_pv

> <b_m_subgroup_collapsed>
1

$$$$
CHEMBL4581_lig27
                    3D
 Schrodinger Suite 2021-1.
 37 39  0  0  1  0            999 V2000
   17.7307   15.6090  109.6110 N   0  0  0  0  0  0
   18.7180   16.0168  108.7780 N   0  0  0  0  0  0
   19.3209   15.0284  108.2469 C   0  0  0  0  0  0
   17.7031   14.1472  109.7430 C   0  0  1  0  0  0
   18.7639   13.7147  108.7433 C   0  0  0  0  0  0
   16.7551   16.4529  110.0390 C   0  0  0  0  0  0
   20.3774   15.1654  107.2087 C   0  0  0  0  0  0
   17.9487   13.6853  111.1880 C   0  0  0  0  0  0
   21.4048   14.2219  106.9590 C   0  0  0  0  0  0
   17.1180   12.7157  111.7590 C   0  0  0  0  0  0
   15.7146   16.0484  110.5590 O   0  0  0  0  0  0
   17.2386   12.3827  113.1095 C   0  0  0  0  0  0
   21.6324   12.7621  107.8566 Cl  0  0  0  0  0  0
   16.3180   11.5620  113.7069 O   0  0  0  0  0  0
   18.9632   14.2566  111.9692 C   0  0  0  0  0  0
   20.3882   16.3591  106.4591 C   0  0  0  0  0  0
   16.9471   17.9681  109.8897 C   0  0  0  0  0  0
   19.1180   13.8888  113.3055 C   0  0  0  0  0  0
   22.3681   14.4769  105.9817 C   0  0  0  0  0  0
   18.2507   12.9567  113.8759 C   0  0  0  0  0  0
   21.3698   16.6139  105.5057 C   0  0  0  0  0  0
   22.3588   15.6685  105.2673 C   0  0  0  0  0  0
   16.7157   13.7978  109.4294 H   0  0  0  0  0  0
   19.5113   13.0996  109.2394 H   0  0  0  0  0  0
   18.3180   13.1620  107.9160 H   0  0  0  0  0  0
   16.3235   12.2759  111.1735 H   0  0  0  0  0  0
   15.6545   11.2001  113.1008 H   0  0  0  0  0  0
   19.6225   15.0006  111.5453 H   0  0  0  0  0  0
   19.6387   17.1226  106.6186 H   0  0  0  0  0  0
   16.6576   18.2870  108.8887 H   0  0  0  0  0  0
   16.3320   18.5030  110.6140 H   0  0  0  0  0  0
   17.9851   18.2569  110.0596 H   0  0  0  0  0  0
   19.8970   14.3397  113.9024 H   0  0  0  0  0  0
   23.1458   13.7521  105.7907 H   0  0  0  0  0  0
   18.3461   12.6993  114.9213 H   0  0  0  0  0  0
   21.3581   17.5405  104.9502 H   0  0  0  0  0  0
   23.1180   15.8524  104.5246 H   0  0  0  0  0  0
  1  2  1  0  0  0
  1  4  1  0  0  0
  1  6  1  0  0  0
  2  3  2  0  0  0
  3  7  1  0  0  0
  3  5  1  0  0  0
  4  5  1  0  0  0
  4  8  1  0  0  0
  4 23  1  0  0  0
  5 24  1  0  0  0
  5 25  1  0  0  0
  6 11  2  0  0  0
  6 17  1  0  0  0
  7  9  2  0  0  0
  7 16  1  0  0  0
  8 10  1  0  0  0
  8 15  2  0  0  0
  9 13  1  0  0  0
  9 19  1  0  0  0
 10 12  2  0  0  0
 10 26  1  0  0  0
 12 14  1  0  0  0
 12 20  1  0  0  0
 14 27  1  0  0  0
 15 18  1  0  0  0
 15 28  1  0  0  0
 16 21  2  0  0  0
 16 29  1  0  0  0
 17 30  1  0  0  0
 17 31  1  0  0  0
 17 32  1  0  0  0
 18 20  2  0  0  0
 18 33  1  0  0  0
 19 22  2  0  0  0
 19 34  1  0  0  0
 20 35  1  0  0  0
 21 22  1  0  0  0
 21 36  1  0  0  0
 22 37  1  0  0  0
M  END
> <s_m_entry_id>
20

> <s_m_entry_name>
dock_pv.19

> <s_m_Source_Path>
/home/csk/Desktop/cluster/DUD-E-result/kif11

> <s_m_Source_File>
dock_pv.maegz

> <i_m_Source_File_Index>
19

> <chembl_id>
CHEMBL364452

> <chembl_pref_name>
None

> <i_lp_mmshare_version>
53161

> <i_f3d_flags>
0

> <r_lp_tautomer_probability>
0.999999999997365

> <s_lp_Force_Field>
OPLS_2005

> <r_lp_Energy>
24.94725

> <b_lp_Chiralities_Consistent>
1

> <s_lp_Variant>
CHEMBL4581_lig27-2

> <s_i_glide_gridfile>
glide-grid_3cjo

> <i_i_glide_lignum>
41

> <i_i_glide_rotatable_bonds>
4

> <r_i_docking_score>
-9.3158199465865

> <r_i_glide_ligand_efficiency>
-0.423446361208477

> <r_i_glide_ligand_efficiency_sa>
-1.18651335730654

> <r_i_glide_ligand_efficiency_ln>
-2.27712619773456

> <r_i_glide_gscore>
-9.3158199465865

> <r_i_glide_lipo>
-4.42946724480334

> <r_i_glide_hbond>
-0.32

> <r_i_glide_metal>
0

> <r_i_glide_rewards>
-2.00702653308444

> <r_i_glide_evdw>
-39.9377021789551

> <r_i_glide_ecoul>
-6.2517614364624

> <r_i_glide_erotb>
0.37532315571839

> <r_i_glide_esite>
0

> <r_i_glide_emodel>
-67.2866107973821

> <r_i_glide_energy>
-46.1894636154175

> <r_i_glide_einternal>
5.75695133209229

> <i_i_glide_confnum>
14

> <i_i_glide_posenum>
223

> <r_i_glide_eff_state_penalty>
0

> <s_user_duplicate_titles>
CHEMBL4581_lig27,324974

> <s_m_subgroup_title>
dock_pv

> <s_m_subgroupid>
dock_pv

> <b_m_subgroup_collapsed>
1

$$$$
CHEMBL4581_lig105
                    3D
 Schrodinger Suite 2021-1.
 42 44  0  0  1  0            999 V2000
   22.4717   14.1798  106.1441 C   0  0  0  0  0  0
   22.5159   15.3447  105.3801 C   0  0  0  0  0  0
   21.5412   16.3189  105.5548 C   0  0  0  0  0  0
   20.5182   16.1217  106.4772 C   0  0  0  0  0  0
   20.4463   14.9473  107.2512 C   0  0  0  0  0  0
   21.4559   13.9740  107.0779 C   0  0  0  0  0  0
   21.5187   12.8525  107.8305 F   0  0  0  0  0  0
   21.5793   17.4507  104.8189 F   0  0  0  0  0  0
   19.3206   14.8068  108.2087 C   0  0  0  0  0  0
   18.5213   15.7408  108.5236 N   0  0  0  0  0  0
   17.5026   15.2944  109.3165 N   0  0  0  0  0  0
   17.6730   13.8618  109.6785 C   0  0  1  0  0  0
   18.9456   13.5207  108.8909 C   0  0  0  0  0  0
   17.9261   13.6100  111.1944 C   0  0  0  0  0  0
   17.2756   12.5787  111.8928 C   0  0  0  0  0  0
   17.5303   12.3616  113.2407 C   0  0  0  0  0  0
   18.4529   13.1606  113.9049 C   0  0  0  0  0  0
   19.1149   14.1847  113.2342 C   0  0  0  0  0  0
   18.8463   14.4127  111.8875 C   0  0  0  0  0  0
   16.6229   16.1714  109.8804 C   0  0  0  0  0  0
   16.2734   17.2134  109.0966 N   0  0  0  0  0  0
   16.0707   15.9631  110.9590 O   0  0  0  0  0  0
   15.3931   18.3118  109.4830 C   0  0  0  0  0  0
   16.4595   13.0237  109.1348 C   0  0  0  0  0  0
   16.1953   13.1622  107.7488 O   0  0  0  0  0  0
   23.2304   13.4274  106.0144 H   0  0  0  0  0  0
   23.3008   15.5041  104.6580 H   0  0  0  0  0  0
   19.7798   16.9049  106.5780 H   0  0  0  0  0  0
   18.7188   12.7607  108.1592 H   0  0  0  0  0  0
   19.7552   13.1576  109.5252 H   0  0  0  0  0  0
   16.5569   11.9252  111.4254 H   0  0  0  0  0  0
   17.0128   11.5674  113.7596 H   0  0  0  0  0  0
   18.6564   12.9796  114.9513 H   0  0  0  0  0  0
   19.8346   14.7956  113.7575 H   0  0  0  0  0  0
   19.3675   15.2089  111.3749 H   0  0  0  0  0  0
   16.6750   17.2568  108.1712 H   0  0  0  0  0  0
   14.5410   18.3595  108.8060 H   0  0  0  0  0  0
   15.0099   18.2142  110.5007 H   0  0  0  0  0  0
   15.9310   19.2586  109.4196 H   0  0  0  0  0  0
   16.6509   11.9623  109.2914 H   0  0  0  0  0  0
   15.5452   13.2635  109.6802 H   0  0  0  0  0  0
   15.9174   12.2960  107.4177 H   0  0  0  0  0  0
  1  2  2  0  0  0
  1  6  1  0  0  0
  1 26  1  0  0  0
  2  3  1  0  0  0
  2 27  1  0  0  0
  3  4  2  0  0  0
  3  8  1  0  0  0
  4  5  1  0  0  0
  4 28  1  0  0  0
  5  9  1  0  0  0
  5  6  2  0  0  0
  6  7  1  0  0  0
  9 13  1  0  0  0
  9 10  2  0  0  0
 10 11  1  0  0  0
 11 12  1  0  0  0
 11 20  1  0  0  0
 12 13  1  0  0  0
 12 14  1  0  0  0
 12 24  1  0  0  0
 13 29  1  0  0  0
 13 30  1  0  0  0
 14 15  2  0  0  0
 14 19  1  0  0  0
 15 16  1  0  0  0
 15 31  1  0  0  0
 16 17  2  0  0  0
 16 32  1  0  0  0
 17 18  1  0  0  0
 17 33  1  0  0  0
 18 19  2  0  0  0
 18 34  1  0  0  0
 19 35  1  0  0  0
 20 21  1  0  0  0
 20 22  2  0  0  0
 21 23  1  0  0  0
 21 36  1  0  0  0
 23 37  1  0  0  0
 23 38  1  0  0  0
 23 39  1  0  0  0
 24 25  1  0  0  0
 24 40  1  0  0  0
 24 41  1  0  0  0
 25 42  1  0  0  0
M  END
> <s_m_entry_id>
21

> <s_m_entry_name>
dock_pv.20

> <s_m_Source_Path>
/home/csk/Desktop/cluster/DUD-E-result/kif11

> <s_m_Source_File>
dock_pv.maegz

> <i_m_Source_File_Index>
20

> <chembl_id>
CHEMBL206967

> <chembl_pref_name>
None

> <i_lp_mmshare_version>
53161

> <i_f3d_flags>
0

> <r_lp_tautomer_probability>
1

> <s_lp_Force_Field>
OPLS_2005

> <r_lp_Energy>
34.456022

> <b_lp_Chiralities_Consistent>
1

> <s_lp_Variant>
CHEMBL4581_lig105-2

> <s_i_glide_gridfile>
glide-grid_3cjo

> <i_i_glide_lignum>
179

> <i_i_glide_rotatable_bonds>
6

> <r_i_docking_score>
-9.31422367351056

> <r_i_glide_ligand_efficiency>
-0.372568946940422

> <r_i_glide_ligand_efficiency_sa>
-1.0893982083922

> <r_i_glide_ligand_efficiency_ln>
-2.20775013538151

> <r_i_glide_gscore>
-9.31422367351056

> <r_i_glide_lipo>
-4.24408719048029

> <r_i_glide_hbond>
-0.32

> <r_i_glide_metal>
0

> <r_i_glide_rewards>
-2.56347702217443

> <r_i_glide_evdw>
-40.1882781982422

> <r_i_glide_ecoul>
-5.42967987060547

> <r_i_glide_erotb>
0.637206429647087

> <r_i_glide_esite>
0

> <r_i_glide_emodel>
-67.2212577762171

> <r_i_glide_energy>
-45.6179580688477

> <r_i_glide_einternal>
6.6169261932373

> <i_i_glide_confnum>
28

> <i_i_glide_posenum>
40

> <r_i_glide_eff_state_penalty>
0

> <s_user_duplicate_titles>
CHEMBL4581_lig105,347607

> <s_m_subgroup_title>
dock_pv

> <s_m_subgroupid>
dock_pv

> <b_m_subgroup_collapsed>
1

$$$$
CHEMBL4581_lig185
                    3D
 Schrodinger Suite 2021-1.
 59 61  0  0  1  0            999 V2000
   20.3933   16.3588  106.2288 C   0  0  0  0  0  0
   20.2700   15.2688  107.1013 C   0  0  0  0  0  0
   21.2615   14.2692  107.0600 C   0  0  0  0  0  0
   22.3205   14.3535  106.1589 C   0  0  0  0  0  0
   22.4343   15.4558  105.3187 C   0  0  0  0  0  0
   21.4744   16.4615  105.3583 C   0  0  0  0  0  0
   21.5822   17.5262  104.5358 F   0  0  0  0  0  0
   21.2728   13.2448  107.9450 F   0  0  0  0  0  0
   19.1411   15.2357  108.0583 C   0  0  0  0  0  0
   18.4224   16.4647  108.5583 C   0  0  0  0  0  0
   17.4807   15.9673  109.5613 N   0  0  0  0  0  0
   17.4705   14.4832  109.5546 C   0  0  1  0  0  0
   18.6232   14.1376  108.6305 C   0  0  0  0  0  0
   16.6101   16.7541  110.2583 C   0  0  0  0  0  0
   17.7913   13.9095  110.9644 C   0  0  0  0  0  0
   18.7642   14.5354  111.7625 C   0  0  0  0  0  0
   19.0275   14.0901  113.0537 C   0  0  0  0  0  0
   18.3203   13.0096  113.5663 C   0  0  0  0  0  0
   17.3710   12.3603  112.7825 C   0  0  0  0  0  0
   17.1176   12.7949  111.4842 C   0  0  0  0  0  0
   16.1594   13.9026  108.9055 C   0  0  0  0  0  0
   15.6256   14.6639  107.6600 C   0  0  0  0  0  0
   14.6224   13.8793  106.7920 C   0  0  0  0  0  0
   15.2208   12.7621  106.0686 N   0  0  1  0  0  0
   15.5057   16.3363  110.6014 O   0  0  0  0  0  0
   16.9881   18.0212  110.5563 N   0  0  0  0  0  0
   18.3258   18.3742  111.0286 C   0  0  0  0  0  0
   16.0084   19.1030  110.6757 C   0  0  0  0  0  0
   16.2722   13.0919  105.0939 C   0  0  0  0  0  0
   15.8157   13.9824  103.9113 C   0  0  0  0  0  0
   16.7164   13.9782  102.9315 F   0  0  0  0  0  0
   15.6518   15.2527  104.2816 F   0  0  0  0  0  0
   14.6702   13.5619  103.3759 F   0  0  0  0  0  0
   19.6647   17.1551  106.2305 H   0  0  0  0  0  0
   23.0685   13.5764  106.1360 H   0  0  0  0  0  0
   23.2595   15.5256  104.6267 H   0  0  0  0  0  0
   19.1180   17.1905  108.9694 H   0  0  0  0  0  0
   17.8807   16.9820  107.7652 H   0  0  0  0  0  0
   18.9224   13.1151  108.4701 H   0  0  0  0  0  0
   19.3239   15.3773  111.3824 H   0  0  0  0  0  0
   19.7737   14.5867  113.6567 H   0  0  0  0  0  0
   18.5165   12.6644  114.5725 H   0  0  0  0  0  0
   16.8209   11.5233  113.1857 H   0  0  0  0  0  0
   16.3722   12.2670  110.9086 H   0  0  0  0  0  0
   15.3545   13.8935  109.6401 H   0  0  0  0  0  0
   16.3252   12.8536  108.6492 H   0  0  0  0  0  0
   16.4477   15.0188  107.0377 H   0  0  0  0  0  0
   15.1272   15.5719  107.9996 H   0  0  0  0  0  0
   14.1041   14.5469  106.1018 H   0  0  0  0  0  0
   13.8464   13.4675  107.4398 H   0  0  0  0  0  0
   15.4983   12.0076  106.6948 H   0  0  0  0  0  0
   19.0288   17.5390  111.0363 H   0  0  0  0  0  0
   18.7264   19.1614  110.4029 H   0  0  0  0  0  0
   18.2772   18.7620  112.0453 H   0  0  0  0  0  0
   15.0136   18.8087  110.3362 H   0  0  0  0  0  0
   15.9218   19.4353  111.7117 H   0  0  0  0  0  0
   16.3157   19.9573  110.0730 H   0  0  0  0  0  0
   16.6370   12.1469  104.6910 H   0  0  0  0  0  0
   17.1347   13.5342  105.5913 H   0  0  0  0  0  0
  1  6  1  0  0  0
  1  2  2  0  0  0
  1 34  1  0  0  0
  2  9  1  0  0  0
  2  3  1  0  0  0
  3  8  1  0  0  0
  3  4  2  0  0  0
  4  5  1  0  0  0
  4 35  1  0  0  0
  5  6  2  0  0  0
  5 36  1  0  0  0
  6  7  1  0  0  0
  9 10  1  0  0  0
  9 13  2  0  0  0
 10 11  1  0  0  0
 10 37  1  0  0  0
 10 38  1  0  0  0
 11 12  1  0  0  0
 11 14  1  0  0  0
 12 21  1  0  0  0
 12 13  1  0  0  0
 12 15  1  0  0  0
 13 39  1  0  0  0
 14 25  2  0  0  0
 14 26  1  0  0  0
 15 16  2  0  0  0
 15 20  1  0  0  0
 16 17  1  0  0  0
 16 40  1  0  0  0
 17 18  2  0  0  0
 17 41  1  0  0  0
 18 19  1  0  0  0
 18 42  1  0  0  0
 19 20  2  0  0  0
 19 43  1  0  0  0
 20 44  1  0  0  0
 21 22  1  0  0  0
 21 45  1  0  0  0
 21 46  1  0  0  0
 22 23  1  0  0  0
 22 47  1  0  0  0
 22 48  1  0  0  0
 23 24  1  0  0  0
 23 49  1  0  0  0
 23 50  1  0  0  0
 24 29  1  0  0  0
 24 51  1  0  0  0
 26 27  1  0  0  0
 26 28  1  0  0  0
 27 52  1  0  0  0
 27 53  1  0  0  0
 27 54  1  0  0  0
 28 55  1  0  0  0
 28 56  1  0  0  0
 28 57  1  0  0  0
 29 30  1  0  0  0
 29 58  1  0  0  0
 29 59  1  0  0  0
 30 31  1  0  0  0
 30 32  1  0  0  0
 30 33  1  0  0  0
M  END
> <s_m_entry_id>
22

> <s_m_entry_name>
dock_pv.21

> <s_m_Source_Path>
/home/csk/Desktop/cluster/DUD-E-result/kif11

> <s_m_Source_File>
dock_pv.maegz

> <i_m_Source_File_Index>
21

> <chembl_id>
CHEMBL232259

> <chembl_pref_name>
None

> <i_lp_mmshare_version>
53161

> <i_f3d_flags>
0

> <r_lp_tautomer_probability>
1

> <s_lp_Force_Field>
OPLS_2005

> <r_lp_Energy>
68.319763

> <b_lp_Chiralities_Consistent>
1

> <s_lp_Variant>
CHEMBL4581_lig185-1

> <s_i_glide_gridfile>
glide-grid_3cjo

> <i_i_glide_lignum>
281

> <i_i_glide_rotatable_bonds>
10

> <r_i_docking_score>
-9.31224990828142

> <r_i_glide_ligand_efficiency>
-0.282189391160043

> <r_i_glide_ligand_efficiency_sa>
-0.905132158651525

> <r_i_glide_ligand_efficiency_ln>
-2.07099616335224

> <r_i_glide_gscore>
-9.31224990828142

> <r_i_glide_lipo>
-4.84959316352703

> <r_i_glide_hbond>
-0.32

> <r_i_glide_metal>
0

> <r_i_glide_rewards>
-1.48831631456333

> <r_i_glide_evdw>
-47.0479278564453

> <r_i_glide_ecoul>
-6.41264915466309

> <r_i_glide_erotb>
0.738841638326609

> <r_i_glide_esite>
-0.0788883024959276

> <r_i_glide_emodel>
-80.4630106582609

> <r_i_glide_energy>
-53.4605770111084

> <r_i_glide_einternal>
5.27340221405029

> <i_i_glide_confnum>
208

> <i_i_glide_posenum>
390

> <r_i_glide_eff_state_penalty>
0

> <s_user_duplicate_titles>
CHEMBL4581_lig185,394407

> <s_m_subgroup_title>
dock_pv

> <s_m_subgroupid>
dock_pv

> <b_m_subgroup_collapsed>
1

$$$$
CHEMBL4581_lig187
                    3D
 Schrodinger Suite 2021-1.
 59 61  0  0  1  0            999 V2000
   20.4186   16.3628  106.2116 C   0  0  0  0  0  0
   20.2869   15.2670  107.0768 C   0  0  0  0  0  0
   21.2793   14.2690  107.0453 C   0  0  0  0  0  0
   22.3511   14.3634  106.1582 C   0  0  0  0  0  0
   22.4788   15.4721  105.3268 C   0  0  0  0  0  0
   21.5150   16.4791  105.3584 C   0  0  0  0  0  0
   21.6417   17.5603  104.5587 F   0  0  0  0  0  0
   21.2825   13.2447  107.9318 F   0  0  0  0  0  0
   19.1461   15.2307  108.0227 C   0  0  0  0  0  0
   18.4263   16.4598  108.5294 C   0  0  0  0  0  0
   17.4914   15.9594  109.5392 N   0  0  0  0  0  0
   17.4676   14.4771  109.5066 C   0  0  1  0  0  0
   18.6211   14.1301  108.5830 C   0  0  0  0  0  0
   16.6173   16.7397  110.2422 C   0  0  0  0  0  0
   17.7775   13.8695  110.9032 C   0  0  0  0  0  0
   17.1172   12.7282  111.3743 C   0  0  0  0  0  0
   17.3579   12.2531  112.6603 C   0  0  0  0  0  0
   18.2888   12.8889  113.4778 C   0  0  0  0  0  0
   18.9832   13.9997  113.0168 C   0  0  0  0  0  0
   18.7276   14.4862  111.7384 C   0  0  0  0  0  0
   16.1533   13.9265  108.8388 C   0  0  0  0  0  0
   15.6439   14.7196  107.6011 C   0  0  0  0  0  0
   14.5492   14.0178  106.7719 C   0  0  0  0  0  0
   14.9722   12.7620  106.1605 N   0  0  1  0  0  0
   15.5066   16.3188  110.5691 O   0  0  0  0  0  0
   16.9956   18.0053  110.5584 N   0  0  0  0  0  0
   18.3450   18.3785  110.9817 C   0  0  0  0  0  0
   16.0136   19.0839  110.7059 C   0  0  0  0  0  0
   16.1188   12.8159  105.2546 C   0  0  0  0  0  0
   15.8684   13.6681  103.9957 C   0  0  0  0  0  0
   14.8539   13.2516  103.2347 F   0  0  0  0  0  0
   19.6896   17.1610  106.2140 H   0  0  0  0  0  0
   23.1068   13.5920  106.1467 H   0  0  0  0  0  0
   23.3161   15.5451  104.6531 H   0  0  0  0  0  0
   19.1216   17.1832  108.9414 H   0  0  0  0  0  0
   17.8840   16.9811  107.7397 H   0  0  0  0  0  0
   18.9148   13.1056  108.4212 H   0  0  0  0  0  0
   16.3892   12.2056  110.7735 H   0  0  0  0  0  0
   16.8076   11.4003  113.0309 H   0  0  0  0  0  0
   18.4742   12.5134  114.4743 H   0  0  0  0  0  0
   19.7139   14.4863  113.6461 H   0  0  0  0  0  0
   19.2714   15.3537  111.3974 H   0  0  0  0  0  0
   15.3441   13.9085  109.5706 H   0  0  0  0  0  0
   16.3065   12.8817  108.5600 H   0  0  0  0  0  0
   16.4720   14.9875  106.9470 H   0  0  0  0  0  0
   15.2309   15.6699  107.9388 H   0  0  0  0  0  0
   14.1494   14.6895  106.0085 H   0  0  0  0  0  0
   13.7071   13.7868  107.4252 H   0  0  0  0  0  0
   15.1161   12.0299  106.8541 H   0  0  0  0  0  0
   19.0581   17.5550  110.9766 H   0  0  0  0  0  0
   18.7197   19.1621  110.3302 H   0  0  0  0  0  0
   18.3248   18.7673  111.9972 H   0  0  0  0  0  0
   15.0117   18.7860  110.3863 H   0  0  0  0  0  0
   15.9489   19.4009  111.7485 H   0  0  0  0  0  0
   16.3052   19.9484  110.1085 H   0  0  0  0  0  0
   16.3451   11.7917  104.9581 H   0  0  0  0  0  0
   17.0097   13.1601  105.7813 H   0  0  0  0  0  0
   16.7475   13.6575  103.3535 H   0  0  0  0  0  0
   15.6742   14.7109  104.2474 H   0  0  0  0  0  0
  1  6  1  0  0  0
  1  2  2  0  0  0
  1 32  1  0  0  0
  2  9  1  0  0  0
  2  3  1  0  0  0
  3  4  2  0  0  0
  3  8  1  0  0  0
  4  5  1  0  0  0
  4 33  1  0  0  0
  5  6  2  0  0  0
  5 34  1  0  0  0
  6  7  1  0  0  0
  9 10  1  0  0  0
  9 13  2  0  0  0
 10 11  1  0  0  0
 10 35  1  0  0  0
 10 36  1  0  0  0
 11 12  1  0  0  0
 11 14  1  0  0  0
 12 15  1  0  0  0
 12 21  1  0  0  0
 12 13  1  0  0  0
 13 37  1  0  0  0
 14 25  2  0  0  0
 14 26  1  0  0  0
 15 16  2  0  0  0
 15 20  1  0  0  0
 16 17  1  0  0  0
 16 38  1  0  0  0
 17 18  2  0  0  0
 17 39  1  0  0  0
 18 19  1  0  0  0
 18 40  1  0  0  0
 19 20  2  0  0  0
 19 41  1  0  0  0
 20 42  1  0  0  0
 21 22  1  0  0  0
 21 43  1  0  0  0
 21 44  1  0  0  0
 22 23  1  0  0  0
 22 45  1  0  0  0
 22 46  1  0  0  0
 23 24  1  0  0  0
 23 47  1  0  0  0
 23 48  1  0  0  0
 24 29  1  0  0  0
 24 49  1  0  0  0
 26 27  1  0  0  0
 26 28  1  0  0  0
 27 50  1  0  0  0
 27 51  1  0  0  0
 27 52  1  0  0  0
 28 53  1  0  0  0
 28 54  1  0  0  0
 28 55  1  0  0  0
 29 30  1  0  0  0
 29 56  1  0  0  0
 29 57  1  0  0  0
 30 31  1  0  0  0
 30 58  1  0  0  0
 30 59  1  0  0  0
M  END
> <s_m_entry_id>
23

> <s_m_entry_name>
dock_pv.22

> <s_m_Source_Path>
/home/csk/Desktop/cluster/DUD-E-result/kif11

> <s_m_Source_File>
dock_pv.maegz

> <i_m_Source_File_Index>
22

> <chembl_id>
CHEMBL232460

> <chembl_pref_name>
None

> <i_lp_mmshare_version>
53161

> <i_f3d_flags>
0

> <r_lp_tautomer_probability>
1

> <s_lp_Force_Field>
OPLS_2005

> <r_lp_Energy>
63.100841

> <b_lp_Chiralities_Consistent>
1

> <s_lp_Variant>
CHEMBL4581_lig187-1

> <s_i_glide_gridfile>
glide-grid_3cjo

> <i_i_glide_lignum>
283

> <i_i_glide_rotatable_bonds>
10

> <r_i_docking_score>
-9.27278354709912

> <r_i_glide_ligand_efficiency>
-0.299122049906423

> <r_i_glide_ligand_efficiency_sa>
-0.939656219204101

> <r_i_glide_ligand_efficiency_ln>
-2.09129686655824

> <r_i_glide_gscore>
-9.27278354709912

> <r_i_glide_lipo>
-4.82200088588712

> <r_i_glide_hbond>
-0.32

> <r_i_glide_metal>
0

> <r_i_glide_rewards>
-1.7397464133372

> <r_i_glide_evdw>
-46.6753120422363

> <r_i_glide_ecoul>
-6.05870294570923

> <r_i_glide_erotb>
0.854640079679956

> <r_i_glide_esite>
-0.00310528358654717

> <r_i_glide_emodel>
-79.7008447229302

> <r_i_glide_energy>
-52.7340149879456

> <r_i_glide_einternal>
4.59209060668945

> <i_i_glide_confnum>
33

> <i_i_glide_posenum>
374

> <r_i_glide_eff_state_penalty>
0

> <s_user_duplicate_titles>
CHEMBL4581_lig187,394401

> <s_m_subgroup_title>
dock_pv

> <s_m_subgroupid>
dock_pv

> <b_m_subgroup_collapsed>
1

$$$$
CHEMBL4581_lig215
                    3D
 Schrodinger Suite 2021-1.
 47 49  0  0  1  0            999 V2000
   22.6081   15.1572  105.3498 C   0  0  0  0  0  0
   21.7139   16.2126  105.4965 C   0  0  0  0  0  0
   20.6931   16.1335  106.4422 C   0  0  0  0  0  0
   20.5568   15.0038  107.2712 C   0  0  0  0  0  0
   21.4965   13.9622  107.1327 C   0  0  0  0  0  0
   22.4859   14.0323  106.1589 C   0  0  0  0  0  0
   21.5181   12.8881  107.9540 F   0  0  0  0  0  0
   21.8221   17.3021  104.7059 F   0  0  0  0  0  0
   19.4606   14.9718  108.2659 C   0  0  0  0  0  0
   18.7821   15.9837  108.6285 N   0  0  0  0  0  0
   17.8328   15.6484  109.5393 N   0  0  0  0  0  0
   17.7706   14.1811  109.7564 C   0  0  2  0  0  0
   19.0035   13.7199  108.9727 C   0  0  0  0  0  0
   16.4380   13.6071  109.1301 C   0  0  0  0  0  0
   15.9709   14.0945  107.7255 C   0  0  1  0  0  0
   16.7229   13.4399  106.5417 C   0  0  0  0  0  0
   16.3177   13.9596  105.2475 N   0  0  0  0  0  0
   14.6571   13.8855  107.6118 F   0  0  0  0  0  0
   17.0728   16.5991  110.1552 C   0  0  0  0  0  0
   16.1823   16.3218  110.9589 O   0  0  0  0  0  0
   17.3261   18.0827  109.8524 C   0  0  0  0  0  0
   17.9616   13.7740  111.2448 C   0  0  0  0  0  0
   17.2501   12.7094  111.8189 C   0  0  0  0  0  0
   17.4537   12.3621  113.1503 C   0  0  0  0  0  0
   18.3877   13.0505  113.9138 C   0  0  0  0  0  0
   19.1141   14.0987  113.3593 C   0  0  0  0  0  0
   18.8962   14.4628  112.0358 C   0  0  0  0  0  0
   23.3810   15.1998  104.5974 H   0  0  0  0  0  0
   20.0109   16.9694  106.5228 H   0  0  0  0  0  0
   23.1545   13.1981  106.0400 H   0  0  0  0  0  0
   18.7500   12.9025  108.3047 H   0  0  0  0  0  0
   19.8001   13.3576  109.6252 H   0  0  0  0  0  0
   16.4735   12.5169  109.1060 H   0  0  0  0  0  0
   15.6290   13.8465  109.8233 H   0  0  0  0  0  0
   16.0658   15.1781  107.6577 H   0  0  0  0  0  0
   17.7931   13.6130  106.6005 H   0  0  0  0  0  0
   16.5733   12.3608  106.5536 H   0  0  0  0  0  0
   16.4731   14.9566  105.2175 H   0  0  0  0  0  0
   16.9479   13.5588  104.5593 H   0  0  0  0  0  0
   17.1755   18.2912  108.7929 H   0  0  0  0  0  0
   16.6468   18.7152  110.4241 H   0  0  0  0  0  0
   18.3472   18.3584  110.1187 H   0  0  0  0  0  0
   16.5270   12.1376  111.2594 H   0  0  0  0  0  0
   16.8777   11.5625  113.5896 H   0  0  0  0  0  0
   18.5454   12.7685  114.9461 H   0  0  0  0  0  0
   19.8437   14.6298  113.9526 H   0  0  0  0  0  0
   19.4742   15.2753  111.6197 H   0  0  0  0  0  0
  1  2  2  0  0  0
  1  6  1  0  0  0
  1 28  1  0  0  0
  2  8  1  0  0  0
  2  3  1  0  0  0
  3  4  2  0  0  0
  3 29  1  0  0  0
  4  9  1  0  0  0
  4  5  1  0  0  0
  5  7  1  0  0  0
  5  6  2  0  0  0
  6 30  1  0  0  0
  9 13  1  0  0  0
  9 10  2  0  0  0
 10 11  1  0  0  0
 11 19  1  0  0  0
 11 12  1  0  0  0
 12 14  1  0  0  0
 12 22  1  0  0  0
 12 13  1  0  0  0
 13 31  1  0  0  0
 13 32  1  0  0  0
 14 15  1  0  0  0
 14 33  1  0  0  0
 14 34  1  0  0  0
 15 16  1  0  0  0
 15 18  1  0  0  0
 15 35  1  0  0  0
 16 17  1  0  0  0
 16 36  1  0  0  0
 16 37  1  0  0  0
 17 38  1  0  0  0
 17 39  1  0  0  0
 19 20  2  0  0  0
 19 21  1  0  0  0
 21 40  1  0  0  0
 21 41  1  0  0  0
 21 42  1  0  0  0
 22 23  2  0  0  0
 22 27  1  0  0  0
 23 24  1  0  0  0
 23 43  1  0  0  0
 24 25  2  0  0  0
 24 44  1  0  0  0
 25 26  1  0  0  0
 25 45  1  0  0  0
 26 27  2  0  0  0
 26 46  1  0  0  0
 27 47  1  0  0  0
M  END
> <s_m_entry_id>
24

> <s_m_entry_name>
dock_pv.23

> <s_m_Source_Path>
/home/csk/Desktop/cluster/DUD-E-result/kif11

> <s_m_Source_File>
dock_pv.maegz

> <i_m_Source_File_Index>
23

> <chembl_id>
CHEMBL400042

> <chembl_pref_name>
None

> <i_lp_mmshare_version>
53161

> <i_f3d_flags>
0

> <r_lp_tautomer_probability>
1

> <s_lp_Force_Field>
OPLS_2005

> <r_lp_Energy>
32.325016

> <b_lp_Chiralities_Consistent>
1

> <s_lp_Variant>
CHEMBL4581_lig215-1

> <s_i_glide_gridfile>
glide-grid_3cjo

> <i_i_glide_lignum>
323

> <i_i_glide_rotatable_bonds>
6

> <r_i_docking_score>
-9.23016617011389

> <r_i_glide_ligand_efficiency>
-0.341858006300514

> <r_i_glide_ligand_efficiency_sa>
-1.02557401777484

> <r_i_glide_ligand_efficiency_ln>
-2.14863051322038

> <r_i_glide_gscore>
-9.23016617011389

> <r_i_glide_lipo>
-4.46357778914612

> <r_i_glide_hbond>
-0.0702183531659364

> <r_i_glide_metal>
0

> <r_i_glide_rewards>
-2.50881697732875

> <r_i_glide_evdw>
-44.1204986572266

> <r_i_glide_ecoul>
-3.53791737556458

> <r_i_glide_erotb>
0.549159488722929

> <r_i_glide_esite>
0

> <r_i_glide_emodel>
-71.6724755630055

> <r_i_glide_energy>
-47.6584160327911

> <r_i_glide_einternal>
5.4349889755249

> <i_i_glide_confnum>
12

> <i_i_glide_posenum>
204

> <r_i_glide_eff_state_penalty>
0

> <s_user_duplicate_titles>
CHEMBL4581_lig215,402131

> <s_m_subgroup_title>
dock_pv

> <s_m_subgroupid>
dock_pv

> <b_m_subgroup_collapsed>
1

$$$$
CHEMBL4581_lig714
                    3D
 Schrodinger Suite 2021-1.
 52 55  0  0  1  0            999 V2000
   19.5222   15.8516  111.3358 C   0  0  0  0  0  0
   18.6799   17.4017  110.9588 S   0  0  0  0  0  0
   17.3013   14.6876  109.6041 C   0  0  1  0  0  0
   18.6952   14.6683  111.8091 C   0  0  0  0  0  0
   17.7210   14.0510  110.9785 C   0  0  0  0  0  0
   17.1244   12.8725  111.4843 C   0  0  0  0  0  0
   17.4146   12.3632  112.7443 C   0  0  0  0  0  0
   18.3234   13.0146  113.5581 C   0  0  0  0  0  0
   18.9660   14.1507  113.0840 C   0  0  0  0  0  0
   16.4272   15.9450  109.9751 C   0  0  0  0  0  0
   16.9764   17.1338  110.5433 C   0  0  0  0  0  0
   16.1687   18.2455  110.8052 C   0  0  0  0  0  0
   14.8069   18.2255  110.5498 C   0  0  0  0  0  0
   14.2358   17.0798  110.0261 C   0  0  0  0  0  0
   15.0313   15.9690  109.7589 C   0  0  0  0  0  0
   18.4752   14.9737  108.6269 C   0  0  0  0  0  0
   19.5584   14.0841  108.5144 C   0  0  0  0  0  0
   20.6224   14.3614  107.6524 C   0  0  0  0  0  0
   20.6087   15.5174  106.8682 C   0  0  0  0  0  0
   19.5184   16.3733  106.9501 C   0  0  0  0  0  0
   18.4704   16.1190  107.8220 C   0  0  0  0  0  0
   16.3284   13.4394  108.6192 S   0  0  0  0  0  0
   15.6943   14.2796  107.1255 C   0  0  0  0  0  0
   16.3530   13.7151  105.8404 C   0  0  1  0  0  0
   15.3156   13.0794  104.8759 C   0  0  0  0  0  0
   17.1184   14.7612  105.1340 N   0  0  0  0  0  0
   14.8397   11.8941  105.3607 O   0  0  0  0  0  0
   14.9705   13.5804  103.8051 O   0  0  0  0  0  0
   21.7616   15.8892  105.9364 C   0  0  0  0  0  0
   22.5491   16.7589  106.5499 F   0  0  0  0  0  0
   22.4845   14.8303  105.5634 F   0  0  0  0  0  0
   21.3142   16.5078  104.8495 F   0  0  0  0  0  0
   20.1238   15.5625  110.4849 H   0  0  0  0  0  0
   20.2603   16.1073  112.0972 H   0  0  0  0  0  0
   16.3748   12.3295  110.9327 H   0  0  0  0  0  0
   16.9009   11.4841  113.1011 H   0  0  0  0  0  0
   18.5445   12.6339  114.5457 H   0  0  0  0  0  0
   19.6991   14.6256  113.7183 H   0  0  0  0  0  0
   16.5974   19.1463  111.2244 H   0  0  0  0  0  0
   14.1981   19.0912  110.7643 H   0  0  0  0  0  0
   13.1727   17.0446  109.8400 H   0  0  0  0  0  0
   14.5062   15.1116  109.3721 H   0  0  0  0  0  0
   19.5792   13.1799  109.1060 H   0  0  0  0  0  0
   21.4582   13.6769  107.5966 H   0  0  0  0  0  0
   19.5173   17.2798  106.3618 H   0  0  0  0  0  0
   17.6601   16.8309  107.8661 H   0  0  0  0  0  0
   15.8418   15.3554  107.2077 H   0  0  0  0  0  0
   14.6094   14.1498  107.1224 H   0  0  0  0  0  0
   17.0496   12.9212  106.1211 H   0  0  0  0  0  0
   17.6819   15.2744  105.7969 H   0  0  0  0  0  0
   17.7850   14.2595  104.5467 H   0  0  0  0  0  0
   15.2005   11.6213  106.2148 H   0  0  0  0  0  0
  1  4  1  0  0  0
  1  2  1  0  0  0
  1 33  1  0  0  0
  1 34  1  0  0  0
  2 11  1  0  0  0
  3 10  1  0  0  0
  3  5  1  0  0  0
  3 16  1  0  0  0
  3 22  1  0  0  0
  4  5  2  0  0  0
  4  9  1  0  0  0
  5  6  1  0  0  0
  6  7  2  0  0  0
  6 35  1  0  0  0
  7  8  1  0  0  0
  7 36  1  0  0  0
  8  9  2  0  0  0
  8 37  1  0  0  0
  9 38  1  0  0  0
 10 11  2  0  0  0
 10 15  1  0  0  0
 11 12  1  0  0  0
 12 13  2  0  0  0
 12 39  1  0  0  0
 13 14  1  0  0  0
 13 40  1  0  0  0
 14 15  2  0  0  0
 14 41  1  0  0  0
 15 42  1  0  0  0
 16 17  2  0  0  0
 16 21  1  0  0  0
 17 18  1  0  0  0
 17 43  1  0  0  0
 18 19  2  0  0  0
 18 44  1  0  0  0
 19 20  1  0  0  0
 19 29  1  0  0  0
 20 21  2  0  0  0
 20 45  1  0  0  0
 21 46  1  0  0  0
 22 23  1  0  0  0
 23 24  1  0  0  0
 23 47  1  0  0  0
 23 48  1  0  0  0
 24 25  1  0  0  0
 24 26  1  0  0  0
 24 49  1  0  0  0
 25 27  1  0  0  0
 25 28  2  0  0  0
 26 50  1  0  0  0
 26 51  1  0  0  0
 27 52  1  0  0  0
 29 30  1  0  0  0
 29 31  1  0  0  0
 29 32  1  0  0  0
M  END
> <s_m_entry_id>
25

> <s_m_entry_name>
dock_pv.24

> <s_m_Source_Path>
/home/csk/Desktop/cluster/DUD-E-result/kif11

> <s_m_Source_File>
dock_pv.maegz

> <i_m_Source_File_Index>
24

> <chembl_id>
CHEMBL3633541

> <chembl_pref_name>
None

> <i_lp_mmshare_version>
53161

> <i_f3d_flags>
0

> <r_lp_tautomer_probability>
1

> <s_lp_Force_Field>
OPLS_2005

> <r_lp_Energy>
39.090574

> <b_lp_Chiralities_Consistent>
1

> <s_lp_Variant>
CHEMBL4581_lig714-1

> <s_i_glide_gridfile>
glide-grid_3cjo

> <i_i_glide_lignum>
1058

> <i_i_glide_rotatable_bonds>
7

> <r_i_docking_score>
-9.22035410969178

> <r_i_glide_ligand_efficiency>
-0.288136065927868

> <r_i_glide_ligand_efficiency_sa>
-0.914774987270964

> <r_i_glide_ligand_efficiency_ln>
-2.06468862252047

> <r_i_glide_gscore>
-9.22035410969178

> <r_i_glide_lipo>
-4.69802963233431

> <r_i_glide_hbond>
-0.152

> <r_i_glide_metal>
0

> <r_i_glide_rewards>
-1.50830293382366

> <r_i_glide_evdw>
-44.2726860046387

> <r_i_glide_ecoul>
-7.29285764694214

> <r_i_glide_erotb>
0.447568656195145

> <r_i_glide_esite>
-0.00202725245570433

> <r_i_glide_emodel>
-77.5883629095346

> <r_i_glide_energy>
-51.5655436515808

> <r_i_glide_einternal>
2.79939866065979

> <i_i_glide_confnum>
44

> <i_i_glide_posenum>
395

> <r_i_glide_eff_state_penalty>
0

> <s_user_duplicate_titles>
CHEMBL4581_lig714

> <s_m_subgroup_title>
dock_pv

> <s_m_subgroupid>
dock_pv

> <b_m_subgroup_collapsed>
1

$$$$
CHEMBL4581_lig60
                    3D
 Schrodinger Suite 2021-1.
 51 53  0  0  1  0            999 V2000
   22.7196   15.4087  105.1865 C   0  0  0  0  0  0
   21.7176   16.3504  105.3589 C   0  0  0  0  0  0
   20.6879   16.0963  106.2563 C   0  0  0  0  0  0
   20.6465   14.9045  107.0027 C   0  0  0  0  0  0
   21.6963   13.9749  106.8377 C   0  0  0  0  0  0
   22.7180   14.2428  105.9325 C   0  0  0  0  0  0
   19.5067   14.7034  107.9272 C   0  0  0  0  0  0
   18.3619   15.6819  108.0286 C   0  0  0  0  0  0
   17.4715   15.1327  109.0357 N   0  0  0  0  0  0
   17.9942   13.8486  109.5006 C   0  0  1  0  0  0
   19.2998   13.6717  108.7626 C   0  0  0  0  0  0
   18.1702   13.7545  111.0107 C   0  0  0  0  0  0
   19.1364   14.5201  111.6778 C   0  0  0  0  0  0
   19.3340   14.3622  113.0488 C   0  0  0  0  0  0
   18.5460   13.4567  113.7590 C   0  0  0  0  0  0
   17.5381   12.7543  113.1088 C   0  0  0  0  0  0
   17.3681   12.8729  111.7348 C   0  0  0  0  0  0
   16.2785   15.6640  109.4017 C   0  0  0  0  0  0
   15.8609   17.0659  108.8603 C   0  0  2  0  0  0
   15.5181   15.0555  110.1588 O   0  0  0  0  0  0
   21.7911   12.8462  107.5760 F   0  0  0  0  0  0
   21.7328   17.4941  104.6405 F   0  0  0  0  0  0
   16.7023   11.9620  113.8338 O   0  0  0  0  0  0
   16.2009   18.2788  109.8093 C   0  0  0  0  0  0
   14.4624   17.0407  108.5776 O   0  0  0  0  0  0
   15.8012   19.6093  109.1199 C   0  0  0  0  0  0
   17.7174   18.3603  110.1307 C   0  0  0  0  0  0
   15.4360   18.1867  111.1532 C   0  0  0  0  0  0
   23.5179   15.5620  104.4835 H   0  0  0  0  0  0
   19.9239   16.8523  106.3540 H   0  0  0  0  0  0
   23.5279   13.5558  105.8017 H   0  0  0  0  0  0
   17.8414   15.7994  107.0764 H   0  0  0  0  0  0
   18.7174   16.6676  108.3178 H   0  0  0  0  0  0
   17.3048   13.0606  109.1875 H   0  0  0  0  0  0
   19.9110   12.7966  108.9228 H   0  0  0  0  0  0
   19.7528   15.2164  111.1275 H   0  0  0  0  0  0
   20.1066   14.9235  113.5541 H   0  0  0  0  0  0
   18.6977   13.2916  114.8149 H   0  0  0  0  0  0
   16.5973   12.3044  111.2348 H   0  0  0  0  0  0
   16.3326   17.2379  107.8943 H   0  0  0  0  0  0
   16.0313   11.5242  113.2998 H   0  0  0  0  0  0
   14.2310   16.1685  108.2469 H   0  0  0  0  0  0
   16.0296   20.4707  109.7505 H   0  0  0  0  0  0
   14.7306   19.6495  108.9128 H   0  0  0  0  0  0
   16.3172   19.7438  108.1666 H   0  0  0  0  0  0
   18.0955   17.4475  110.5907 H   0  0  0  0  0  0
   18.3129   18.5571  109.2392 H   0  0  0  0  0  0
   17.9388   19.1618  110.8337 H   0  0  0  0  0  0
   15.7499   17.3269  111.7455 H   0  0  0  0  0  0
   15.6099   19.0753  111.7589 H   0  0  0  0  0  0
   14.3573   18.1060  111.0080 H   0  0  0  0  0  0
  1  6  1  0  0  0
  1  2  2  0  0  0
  1 29  1  0  0  0
  2 22  1  0  0  0
  2  3  1  0  0  0
  3  4  2  0  0  0
  3 30  1  0  0  0
  4  7  1  0  0  0
  4  5  1  0  0  0
  5 21  1  0  0  0
  5  6  2  0  0  0
  6 31  1  0  0  0
  7  8  1  0  0  0
  7 11  2  0  0  0
  8  9  1  0  0  0
  8 32  1  0  0  0
  8 33  1  0  0  0
  9 10  1  0  0  0
  9 18  1  0  0  0
 10 11  1  0  0  0
 10 12  1  0  0  0
 10 34  1  0  0  0
 11 35  1  0  0  0
 12 13  2  0  0  0
 12 17  1  0  0  0
 13 14  1  0  0  0
 13 36  1  0  0  0
 14 15  2  0  0  0
 14 37  1  0  0  0
 15 16  1  0  0  0
 15 38  1  0  0  0
 16 17  2  0  0  0
 16 23  1  0  0  0
 17 39  1  0  0  0
 18 19  1  0  0  0
 18 20  2  0  0  0
 19 24  1  0  0  0
 19 25  1  0  0  0
 19 40  1  0  0  0
 23 41  1  0  0  0
 24 26  1  0  0  0
 24 27  1  0  0  0
 24 28  1  0  0  0
 25 42  1  0  0  0
 26 43  1  0  0  0
 26 44  1  0  0  0
 26 45  1  0  0  0
 27 46  1  0  0  0
 27 47  1  0  0  0
 27 48  1  0  0  0
 28 49  1  0  0  0
 28 50  1  0  0  0
 28 51  1  0  0  0
M  END
> <s_m_entry_id>
26

> <s_m_entry_name>
dock_pv.25

> <s_m_Source_Path>
/home/csk/Desktop/cluster/DUD-E-result/kif11

> <s_m_Source_File>
dock_pv.maegz

> <i_m_Source_File_Index>
25

> <chembl_id>
CHEMBL262736

> <chembl_pref_name>
None

> <i_lp_mmshare_version>
53161

> <i_f3d_flags>
0

> <r_lp_tautomer_probability>
0.999999999997365

> <s_lp_Force_Field>
OPLS_2005

> <r_lp_Energy>
34.20034

> <b_lp_Chiralities_Consistent>
1

> <s_lp_Variant>
CHEMBL4581_lig60-1

> <s_i_glide_gridfile>
glide-grid_3cjo

> <i_i_glide_lignum>
90

> <i_i_glide_rotatable_bonds>
7

> <r_i_docking_score>
-9.21253011083081

> <r_i_glide_ligand_efficiency>
-0.329018932529672

> <r_i_glide_ligand_efficiency_sa>
-0.999095260948174

> <r_i_glide_ligand_efficiency_ln>
-2.1265224412174

> <r_i_glide_gscore>
-9.21253011083081

> <r_i_glide_lipo>
-5.05034741365951

> <r_i_glide_hbond>
-0.158514278571535

> <r_i_glide_metal>
0

> <r_i_glide_rewards>
-1.94530505055079

> <r_i_glide_evdw>
-41.5709915161133

> <r_i_glide_ecoul>
-3.32521724700928

> <r_i_glide_erotb>
0.518968794808082

> <r_i_glide_esite>
0

> <r_i_glide_emodel>
-67.7195677629967

> <r_i_glide_energy>
-44.8962087631226

> <r_i_glide_einternal>
4.59235715866089

> <i_i_glide_confnum>
7

> <i_i_glide_posenum>
235

> <r_i_glide_eff_state_penalty>
0

> <s_user_duplicate_titles>
CHEMBL4581_lig60,344071

> <s_m_subgroup_title>
dock_pv

> <s_m_subgroupid>
dock_pv

> <b_m_subgroup_collapsed>
1

$$$$
CHEMBL4581_lig40
                    3D
 Schrodinger Suite 2021-1.
 46 48  0  0  1  0            999 V2000
   17.6421   15.3219  109.4610 N   0  0  0  0  0  0
   18.5641   15.8119  108.5957 N   0  0  0  0  0  0
   19.3647   14.9042  108.1904 C   0  0  0  0  0  0
   16.4618   15.9447  109.7399 C   0  0  0  0  0  0
   17.8621   13.8937  109.7124 C   0  0  1  0  0  0
   19.0735   13.5863  108.8666 C   0  0  0  0  0  0
   20.4280   15.1176  107.1658 C   0  0  0  0  0  0
   18.0104   13.5629  111.1947 C   0  0  0  0  0  0
   16.2065   17.4662  109.4514 C   0  0  0  0  0  0
   15.5178   15.2713  110.1591 O   0  0  0  0  0  0
   21.5025   14.2291  106.8968 C   0  0  0  0  0  0
   17.1451   12.6372  111.7858 C   0  0  0  0  0  0
   17.2373   12.3700  113.1498 C   0  0  0  0  0  0
   21.8117   12.7621  107.7589 Cl  0  0  0  0  0  0
   16.3180   11.5620  113.7587 O   0  0  0  0  0  0
   18.9893   14.1936  111.9723 C   0  0  0  0  0  0
   20.3785   16.3197  106.4299 C   0  0  0  0  0  0
   19.1040   13.8976  113.3282 C   0  0  0  0  0  0
   15.0696   17.9880  110.3798 C   0  0  0  0  0  0
   15.7246   17.6198  107.9892 C   0  0  0  0  0  0
   17.4383   18.3766  109.6992 C   0  0  0  0  0  0
   22.4457   14.5445  105.9173 C   0  0  0  0  0  0
   18.2288   12.9826  113.9111 C   0  0  0  0  0  0
   21.3406   16.6337  105.4740 C   0  0  0  0  0  0
   22.3722   15.7405  105.2173 C   0  0  0  0  0  0
   17.0035   13.3390  109.3205 H   0  0  0  0  0  0
   19.9100   13.2528  109.4799 H   0  0  0  0  0  0
   18.7893   12.8158  108.1591 H   0  0  0  0  0  0
   16.3723   12.1613  111.1991 H   0  0  0  0  0  0
   15.6630   11.1859  113.1526 H   0  0  0  0  0  0
   19.6608   14.9126  111.5243 H   0  0  0  0  0  0
   19.5932   17.0443  106.5981 H   0  0  0  0  0  0
   19.8640   14.3788  113.9257 H   0  0  0  0  0  0
   15.3463   17.9155  111.4332 H   0  0  0  0  0  0
   14.8355   19.0354  110.1829 H   0  0  0  0  0  0
   14.1376   17.4351  110.2502 H   0  0  0  0  0  0
   16.4829   17.2912  107.2773 H   0  0  0  0  0  0
   14.8240   17.0348  107.7926 H   0  0  0  0  0  0
   15.4909   18.6592  107.7537 H   0  0  0  0  0  0
   18.1773   18.3297  108.8990 H   0  0  0  0  0  0
   17.1222   19.4197  109.7586 H   0  0  0  0  0  0
   17.9436   18.1409  110.6376 H   0  0  0  0  0  0
   23.2585   13.8632  105.7119 H   0  0  0  0  0  0
   18.3055   12.7616  114.9607 H   0  0  0  0  0  0
   21.2791   17.5636  104.9284 H   0  0  0  0  0  0
   23.1179   15.9620  104.4719 H   0  0  0  0  0  0
  1  2  1  0  0  0
  1  4  1  0  0  0
  1  5  1  0  0  0
  2  3  2  0  0  0
  3  7  1  0  0  0
  3  6  1  0  0  0
  4  9  1  0  0  0
  4 10  2  0  0  0
  5  6  1  0  0  0
  5  8  1  0  0  0
  5 26  1  0  0  0
  6 27  1  0  0  0
  6 28  1  0  0  0
  7 11  2  0  0  0
  7 17  1  0  0  0
  8 12  1  0  0  0
  8 16  2  0  0  0
  9 19  1  0  0  0
  9 20  1  0  0  0
  9 21  1  0  0  0
 11 14  1  0  0  0
 11 22  1  0  0  0
 12 13  2  0  0  0
 12 29  1  0  0  0
 13 15  1  0  0  0
 13 23  1  0  0  0
 15 30  1  0  0  0
 16 18  1  0  0  0
 16 31  1  0  0  0
 17 24  2  0  0  0
 17 32  1  0  0  0
 18 23  2  0  0  0
 18 33  1  0  0  0
 19 34  1  0  0  0
 19 35  1  0  0  0
 19 36  1  0  0  0
 20 37  1  0  0  0
 20 38  1  0  0  0
 20 39  1  0  0  0
 21 40  1  0  0  0
 21 41  1  0  0  0
 21 42  1  0  0  0
 22 25  2  0  0  0
 22 43  1  0  0  0
 23 44  1  0  0  0
 24 25  1  0  0  0
 24 45  1  0  0  0
 25 46  1  0  0  0
M  END
> <s_m_entry_id>
27

> <s_m_entry_name>
dock_pv.26

> <s_m_Source_Path>
/home/csk/Desktop/cluster/DUD-E-result/kif11

> <s_m_Source_File>
dock_pv.maegz

> <i_m_Source_File_Index>
26

> <chembl_id>
CHEMBL370956

> <chembl_pref_name>
None

> <i_lp_mmshare_version>
53161

> <i_f3d_flags>
0

> <r_lp_tautomer_probability>
0.999999999997365

> <s_lp_Force_Field>
OPLS_2005

> <r_lp_Energy>
35.922674

> <b_lp_Chiralities_Consistent>
1

> <s_lp_Variant>
CHEMBL4581_lig40-2

> <s_i_glide_gridfile>
glide-grid_3cjo

> <i_i_glide_lignum>
65

> <i_i_glide_rotatable_bonds>
5

> <r_i_docking_score>
-9.20035573598347

> <r_i_glide_ligand_efficiency>
-0.368014229439339

> <r_i_glide_ligand_efficiency_sa>
-1.07608013364078

> <r_i_glide_ligand_efficiency_ln>
-2.18076002184086

> <r_i_glide_gscore>
-9.20035573598347

> <r_i_glide_lipo>
-4.74201317890508

> <r_i_glide_hbond>
-0.32

> <r_i_glide_metal>
0

> <r_i_glide_rewards>
-1.68115316620526

> <r_i_glide_evdw>
-40.9115676879883

> <r_i_glide_ecoul>
-5.74977731704712

> <r_i_glide_erotb>
0.450855591083351

> <r_i_glide_esite>
0

> <r_i_glide_emodel>
-67.8496820337764

> <r_i_glide_energy>
-46.6613450050354

> <r_i_glide_einternal>
6.5360255241394

> <i_i_glide_confnum>
52

> <i_i_glide_posenum>
100

> <r_i_glide_eff_state_penalty>
0

> <s_user_duplicate_titles>
CHEMBL4581_lig40,324805

> <s_m_subgroup_title>
dock_pv

> <s_m_subgroupid>
dock_pv

> <b_m_subgroup_collapsed>
1

$$$$
CHEMBL4581_lig63
                    3D
 Schrodinger Suite 2021-1.
 49 51  0  0  1  0            999 V2000
   22.6955   15.4621  105.2590 C   0  0  0  0  0  0
   21.7393   16.4692  105.3334 C   0  0  0  0  0  0
   20.6603   16.3398  106.2043 C   0  0  0  0  0  0
   20.5291   15.2149  107.0327 C   0  0  0  0  0  0
   21.5181   14.2173  106.9590 C   0  0  0  0  0  0
   22.5828   14.3382  106.0667 C   0  0  0  0  0  0
   19.3768   15.1351  107.9643 C   0  0  0  0  0  0
   18.5309   16.3300  108.3546 C   0  0  0  0  0  0
   17.4796   15.7824  109.2003 N   0  0  0  0  0  0
   17.7423   14.3649  109.4577 C   0  0  1  0  0  0
   18.9321   14.0337  108.5954 C   0  0  0  0  0  0
   17.9772   13.9901  110.9188 C   0  0  0  0  0  0
   18.9018   14.6822  111.7110 C   0  0  0  0  0  0
   19.1181   14.3002  113.0340 C   0  0  0  0  0  0
   18.4019   13.2358  113.5791 C   0  0  0  0  0  0
   17.4688   12.5567  112.8001 C   0  0  0  0  0  0
   17.2661   12.9210  111.4707 C   0  0  0  0  0  0
   16.3166   16.3951  109.5421 C   0  0  0  0  0  0
   16.0372   17.8554  109.0573 C   0  0  2  0  0  0
   15.4340   15.7967  110.1600 O   0  0  0  0  0  0
   21.5178   13.1571  107.7948 F   0  0  0  0  0  0
   21.8465   17.5598  104.5420 F   0  0  0  0  0  0
   16.7168   11.5623  113.3590 O   0  0  0  0  0  0
   15.6430   18.8037  110.2434 C   0  0  0  0  0  0
   14.4206   18.3870  111.0982 C   0  0  0  0  0  0
   15.4404   20.2522  109.7519 C   0  0  0  0  0  0
   15.0028   17.7694  108.0041 N   0  0  0  0  0  0
   23.5175   15.5451  104.5675 H   0  0  0  0  0  0
   19.9346   17.1387  106.2297 H   0  0  0  0  0  0
   23.3315   13.5624  106.0144 H   0  0  0  0  0  0
   18.1027   16.8207  107.4806 H   0  0  0  0  0  0
   19.1125   17.0825  108.8903 H   0  0  0  0  0  0
   16.8823   13.7934  109.0992 H   0  0  0  0  0  0
   19.3111   13.0243  108.5571 H   0  0  0  0  0  0
   19.4610   15.5076  111.2965 H   0  0  0  0  0  0
   19.8425   14.8248  113.6394 H   0  0  0  0  0  0
   18.5582   12.9456  114.6091 H   0  0  0  0  0  0
   16.5437   12.3848  110.8708 H   0  0  0  0  0  0
   16.9392   18.2783  108.6194 H   0  0  0  0  0  0
   16.0174   11.2191  112.7875 H   0  0  0  0  0  0
   16.4933   18.8394  110.9284 H   0  0  0  0  0  0
   13.5647   18.1271  110.4735 H   0  0  0  0  0  0
   14.1074   19.1969  111.7586 H   0  0  0  0  0  0
   14.6460   17.5373  111.7432 H   0  0  0  0  0  0
   14.5970   20.3210  109.0634 H   0  0  0  0  0  0
   15.2468   20.9352  110.5804 H   0  0  0  0  0  0
   16.3182   20.6222  109.2253 H   0  0  0  0  0  0
   15.2592   17.1264  107.2690 H   0  0  0  0  0  0
   14.1290   17.4433  108.3937 H   0  0  0  0  0  0
  1  6  1  0  0  0
  1  2  2  0  0  0
  1 28  1  0  0  0
  2 22  1  0  0  0
  2  3  1  0  0  0
  3  4  2  0  0  0
  3 29  1  0  0  0
  4  7  1  0  0  0
  4  5  1  0  0  0
  5  6  2  0  0  0
  5 21  1  0  0  0
  6 30  1  0  0  0
  7  8  1  0  0  0
  7 11  2  0  0  0
  8  9  1  0  0  0
  8 31  1  0  0  0
  8 32  1  0  0  0
  9 10  1  0  0  0
  9 18  1  0  0  0
 10 11  1  0  0  0
 10 12  1  0  0  0
 10 33  1  0  0  0
 11 34  1  0  0  0
 12 13  2  0  0  0
 12 17  1  0  0  0
 13 14  1  0  0  0
 13 35  1  0  0  0
 14 15  2  0  0  0
 14 36  1  0  0  0
 15 16  1  0  0  0
 15 37  1  0  0  0
 16 17  2  0  0  0
 16 23  1  0  0  0
 17 38  1  0  0  0
 18 19  1  0  0  0
 18 20  2  0  0  0
 19 24  1  0  0  0
 19 27  1  0  0  0
 19 39  1  0  0  0
 23 40  1  0  0  0
 24 25  1  0  0  0
 24 26  1  0  0  0
 24 41  1  0  0  0
 25 42  1  0  0  0
 25 43  1  0  0  0
 25 44  1  0  0  0
 26 45  1  0  0  0
 26 46  1  0  0  0
 26 47  1  0  0  0
 27 48  1  0  0  0
 27 49  1  0  0  0
M  END
> <s_m_entry_id>
28

> <s_m_entry_name>
dock_pv.27

> <s_m_Source_Path>
/home/csk/Desktop/cluster/DUD-E-result/kif11

> <s_m_Source_File>
dock_pv.maegz

> <i_m_Source_File_Index>
27

> <chembl_id>
CHEMBL381526

> <chembl_pref_name>
None

> <i_lp_mmshare_version>
53161

> <i_f3d_flags>
0

> <r_lp_tautomer_probability>
0.999999999997365

> <s_lp_Force_Field>
OPLS_2005

> <r_lp_Energy>
32.645517

> <b_lp_Chiralities_Consistent>
1

> <s_lp_Variant>
CHEMBL4581_lig63-1

> <s_i_glide_gridfile>
glide-grid_3cjo

> <i_i_glide_lignum>
93

> <i_i_glide_rotatable_bonds>
6

> <r_i_docking_score>
-9.19799353349511

> <r_i_glide_ligand_efficiency>
-0.340666427166486

> <r_i_glide_ligand_efficiency_sa>
-1.02199928037668

> <r_i_glide_ligand_efficiency_ln>
-2.14114125382289

> <r_i_glide_gscore>
-9.19799353349511

> <r_i_glide_lipo>
-4.64136946570424

> <r_i_glide_hbond>
-0.32

> <r_i_glide_metal>
0

> <r_i_glide_rewards>
-2.08952641332067

> <r_i_glide_evdw>
-39.7592239379883

> <r_i_glide_ecoul>
-4.77453231811523

> <r_i_glide_erotb>
0.557043390146501

> <r_i_glide_esite>
0

> <r_i_glide_emodel>
-68.0635330573679

> <r_i_glide_energy>
-44.5337562561035

> <r_i_glide_einternal>
2.91092371940613

> <i_i_glide_confnum>
7

> <i_i_glide_posenum>
117

> <r_i_glide_eff_state_penalty>
0

> <s_user_duplicate_titles>
CHEMBL4581_lig63,344117

> <s_m_subgroup_title>
dock_pv

> <s_m_subgroupid>
dock_pv

> <b_m_subgroup_collapsed>
1

$$$$
CHEMBL4581_lig859
                    3D
 Schrodinger Suite 2021-1.
 50 52  0  0  1  0            999 V2000
   17.6754   14.5575  109.5808 C   0  0  1  0  0  0
   18.9735   14.5400  108.7046 C   0  0  0  0  0  0
   17.9113   13.9025  110.9823 C   0  0  0  0  0  0
   20.0113   13.6221  108.9434 C   0  0  0  0  0  0
   21.1180   13.5620  108.0984 C   0  0  0  0  0  0
   21.1835   14.3813  106.9717 C   0  0  0  0  0  0
   20.1876   15.3263  106.7421 C   0  0  0  0  0  0
   19.1040   15.4122  107.6097 C   0  0  0  0  0  0
   18.9095   14.4258  111.8257 C   0  0  0  0  0  0
   19.0798   13.9620  113.1286 C   0  0  0  0  0  0
   18.2363   12.9737  113.6277 C   0  0  0  0  0  0
   17.2442   12.4331  112.8148 C   0  0  0  0  0  0
   17.1180   12.8554  111.4889 C   0  0  0  0  0  0
   17.1682   15.9991  109.9185 C   0  0  0  0  0  0
   18.0629   17.0752  110.0295 C   0  0  0  0  0  0
   17.6172   18.3526  110.3486 C   0  0  0  0  0  0
   16.2618   18.5761  110.5590 C   0  0  0  0  0  0
   15.3536   17.5279  110.4728 C   0  0  0  0  0  0
   15.8058   16.2496  110.1610 C   0  0  0  0  0  0
   16.5905   13.7802  108.7229 C   0  0  0  0  0  0
   16.1299   14.4604  107.3986 C   0  0  0  0  0  0
   14.7545   14.0170  106.8727 C   0  0  0  0  0  0
   14.8538   12.7620  106.1590 N   0  0  0  0  0  0
   16.3368   11.5620  113.3590 O   0  0  0  0  0  0
   22.3510   14.2459  106.0103 C   0  0  0  0  0  0
   19.9574   12.9169  109.7590 H   0  0  0  0  0  0
   21.8956   12.8361  108.2839 H   0  0  0  0  0  0
   20.2414   15.9849  105.8875 H   0  0  0  0  0  0
   18.3390   16.1439  107.3974 H   0  0  0  0  0  0
   19.5512   15.2208  111.4762 H   0  0  0  0  0  0
   19.8462   14.3884  113.7590 H   0  0  0  0  0  0
   18.3341   12.6461  114.6531 H   0  0  0  0  0  0
   16.3358   12.4041  110.9013 H   0  0  0  0  0  0
   19.1180   16.9283  109.8784 H   0  0  0  0  0  0
   18.3251   19.1620  110.4407 H   0  0  0  0  0  0
   15.9141   19.5665  110.8118 H   0  0  0  0  0  0
   14.3036   17.7056  110.6536 H   0  0  0  0  0  0
   15.0749   15.4597  110.1205 H   0  0  0  0  0  0
   16.9559   12.7778  108.4893 H   0  0  0  0  0  0
   15.6924   13.6094  109.3124 H   0  0  0  0  0  0
   16.0673   15.5381  107.5409 H   0  0  0  0  0  0
   16.8788   14.3190  106.6175 H   0  0  0  0  0  0
   14.0274   13.9390  107.6822 H   0  0  0  0  0  0
   14.3696   14.7633  106.1762 H   0  0  0  0  0  0
   15.2033   12.0277  106.7704 H   0  0  0  0  0  0
   13.9406   12.4574  105.8540 H   0  0  0  0  0  0
   15.6545   11.2226  112.7561 H   0  0  0  0  0  0
   22.1710   14.7723  105.0721 H   0  0  0  0  0  0
   23.2701   14.6205  106.4609 H   0  0  0  0  0  0
   22.5096   13.1954  105.7624 H   0  0  0  0  0  0
  1  2  1  0  0  0
  1  3  1  0  0  0
  1 14  1  0  0  0
  1 20  1  0  0  0
  2  4  2  0  0  0
  2  8  1  0  0  0
  3  9  2  0  0  0
  3 13  1  0  0  0
  4  5  1  0  0  0
  4 26  1  0  0  0
  5  6  2  0  0  0
  5 27  1  0  0  0
  6  7  1  0  0  0
  6 25  1  0  0  0
  7  8  2  0  0  0
  7 28  1  0  0  0
  8 29  1  0  0  0
  9 10  1  0  0  0
  9 30  1  0  0  0
 10 11  2  0  0  0
 10 31  1  0  0  0
 11 12  1  0  0  0
 11 32  1  0  0  0
 12 13  2  0  0  0
 12 24  1  0  0  0
 13 33  1  0  0  0
 14 15  2  0  0  0
 14 19  1  0  0  0
 15 16  1  0  0  0
 15 34  1  0  0  0
 16 17  2  0  0  0
 16 35  1  0  0  0
 17 18  1  0  0  0
 17 36  1  0  0  0
 18 19  2  0  0  0
 18 37  1  0  0  0
 19 38  1  0  0  0
 20 21  1  0  0  0
 20 39  1  0  0  0
 20 40  1  0  0  0
 21 22  1  0  0  0
 21 41  1  0  0  0
 21 42  1  0  0  0
 22 23  1  0  0  0
 22 43  1  0  0  0
 22 44  1  0  0  0
 23 45  1  0  0  0
 23 46  1  0  0  0
 24 47  1  0  0  0
 25 48  1  0  0  0
 25 49  1  0  0  0
 25 50  1  0  0  0
M  END
> <s_m_entry_id>
29

> <s_m_entry_name>
dock_pv.28

> <s_m_Source_Path>
/home/csk/Desktop/cluster/DUD-E-result/kif11

> <s_m_Source_File>
dock_pv.maegz

> <i_m_Source_File_Index>
28

> <chembl_id>
CHEMBL2325425

> <chembl_pref_name>
None

> <i_lp_mmshare_version>
53161

> <i_f3d_flags>
0

> <r_lp_tautomer_probability>
0.999999999997365

> <s_lp_Force_Field>
OPLS_2005

> <r_lp_Energy>
28.683925

> <b_lp_Chiralities_Consistent>
1

> <s_lp_Variant>
CHEMBL4581_lig859-2

> <s_i_glide_gridfile>
glide-grid_3cjo

> <i_i_glide_lignum>
1247

> <i_i_glide_rotatable_bonds>
7

> <r_i_docking_score>
-9.18944177229827

> <r_i_glide_ligand_efficiency>
-0.367577670891931

> <r_i_glide_ligand_efficiency_sa>
-1.07480362870576

> <r_i_glide_ligand_efficiency_ln>
-2.17817308538237

> <r_i_glide_gscore>
-9.18944177229827

> <r_i_glide_lipo>
-5.03919359316961

> <r_i_glide_hbond>
-0.608

> <r_i_glide_metal>
0

> <r_i_glide_rewards>
-1.21586643939394

> <r_i_glide_evdw>
-38.0313262939453

> <r_i_glide_ecoul>
-8.54287338256836

> <r_i_glide_erotb>
0.856615582347791

> <r_i_glide_esite>
0

> <r_i_glide_emodel>
-69.4103744870861

> <r_i_glide_energy>
-46.5741996765137

> <r_i_glide_einternal>
3.93293881416321

> <i_i_glide_confnum>
46

> <i_i_glide_posenum>
75

> <r_i_glide_eff_state_penalty>
0

> <s_user_duplicate_titles>
CHEMBL4581_lig859

> <s_m_subgroup_title>
dock_pv

> <s_m_subgroupid>
dock_pv

> <b_m_subgroup_collapsed>
1

$$$$
CHEMBL4581_lig698
                    3D
 Schrodinger Suite 2021-1.
 52 55  0  0  1  0            999 V2000
   18.4659   17.1336  110.8427 C   0  0  0  0  0  0
   19.1269   16.0968  111.3782 C   0  0  0  0  0  0
   17.1479   14.7533  109.5548 C   0  0  0  0  0  0
   17.0434   17.1705  110.4774 C   0  0  0  0  0  0
   16.3557   16.0592  109.9268 C   0  0  0  0  0  0
   14.9665   16.2141  109.7343 C   0  0  0  0  0  0
   14.2995   17.4007  110.0324 C   0  0  0  0  0  0
   15.0036   18.4778  110.5534 C   0  0  0  0  0  0
   16.3660   18.3514  110.7791 C   0  0  0  0  0  0
   17.6072   14.1181  110.9197 C   0  0  0  0  0  0
   18.5760   14.7786  111.7223 C   0  0  0  0  0  0
   19.0006   14.2276  112.9366 C   0  0  0  0  0  0
   18.4673   13.0329  113.4009 C   0  0  0  0  0  0
   17.5180   12.3676  112.6386 C   0  0  0  0  0  0
   17.1181   12.8907  111.4118 C   0  0  0  0  0  0
   18.3533   14.9971  108.5944 C   0  0  0  0  0  0
   18.4133   16.1269  107.7631 C   0  0  0  0  0  0
   19.5220   16.3617  106.9566 C   0  0  0  0  0  0
   20.6067   15.4870  106.9703 C   0  0  0  0  0  0
   20.5501   14.3480  107.7748 C   0  0  0  0  0  0
   19.4343   14.1013  108.5733 C   0  0  0  0  0  0
   16.0745   13.5619  108.6175 S   0  0  0  0  0  0
   15.5770   14.3919  107.0709 C   0  0  0  0  0  0
   16.2970   13.7657  105.8484 C   0  0  1  0  0  0
   15.3111   13.0960  104.8531 C   0  0  0  0  0  0
   17.1191   14.7620  105.1368 N   0  0  0  0  0  0
   14.8025   11.9329  105.3587 O   0  0  0  0  0  0
   15.0360   13.5517  103.7405 O   0  0  0  0  0  0
   21.8484   15.8103  106.1379 C   0  0  0  0  0  0
   21.5133   16.0312  104.8868 F   0  0  0  0  0  0
   22.3994   16.9375  106.5584 F   0  0  0  0  0  0
   22.7665   14.8385  106.1587 F   0  0  0  0  0  0
   19.0225   18.0382  110.6395 H   0  0  0  0  0  0
   20.1803   16.2262  111.5807 H   0  0  0  0  0  0
   14.3609   15.4120  109.3479 H   0  0  0  0  0  0
   13.2346   17.4820  109.8674 H   0  0  0  0  0  0
   14.4946   19.3983  110.8026 H   0  0  0  0  0  0
   16.9034   19.1627  111.2383 H   0  0  0  0  0  0
   19.7288   14.7447  113.5441 H   0  0  0  0  0  0
   18.7805   12.6313  114.3529 H   0  0  0  0  0  0
   17.0775   11.4544  113.0057 H   0  0  0  0  0  0
   16.3769   12.3207  110.8776 H   0  0  0  0  0  0
   17.6066   16.8431  107.7498 H   0  0  0  0  0  0
   19.5522   17.2473  106.3391 H   0  0  0  0  0  0
   21.3717   13.6459  107.7969 H   0  0  0  0  0  0
   19.4167   13.2131  109.1908 H   0  0  0  0  0  0
   15.7721   15.4626  107.1450 H   0  0  0  0  0  0
   14.4916   14.3109  106.9947 H   0  0  0  0  0  0
   16.9659   12.9757  106.1976 H   0  0  0  0  0  0
   17.7044   15.2569  105.7978 H   0  0  0  0  0  0
   17.7690   14.2244  104.5591 H   0  0  0  0  0  0
   15.1354   11.6906  106.2322 H   0  0  0  0  0  0
  1  4  1  0  0  0
  1  2  2  0  0  0
  1 33  1  0  0  0
  2 11  1  0  0  0
  2 34  1  0  0  0
  3 10  1  0  0  0
  3  5  1  0  0  0
  3 16  1  0  0  0
  3 22  1  0  0  0
  4  5  2  0  0  0
  4  9  1  0  0  0
  5  6  1  0  0  0
  6  7  2  0  0  0
  6 35  1  0  0  0
  7  8  1  0  0  0
  7 36  1  0  0  0
  8  9  2  0  0  0
  8 37  1  0  0  0
  9 38  1  0  0  0
 10 11  2  0  0  0
 10 15  1  0  0  0
 11 12  1  0  0  0
 12 13  2  0  0  0
 12 39  1  0  0  0
 13 14  1  0  0  0
 13 40  1  0  0  0
 14 15  2  0  0  0
 14 41  1  0  0  0
 15 42  1  0  0  0
 16 17  2  0  0  0
 16 21  1  0  0  0
 17 18  1  0  0  0
 17 43  1  0  0  0
 18 19  2  0  0  0
 18 44  1  0  0  0
 19 20  1  0  0  0
 19 29  1  0  0  0
 20 21  2  0  0  0
 20 45  1  0  0  0
 21 46  1  0  0  0
 22 23  1  0  0  0
 23 24  1  0  0  0
 23 47  1  0  0  0
 23 48  1  0  0  0
 24 25  1  0  0  0
 24 26  1  0  0  0
 24 49  1  0  0  0
 25 27  1  0  0  0
 25 28  2  0  0  0
 26 50  1  0  0  0
 26 51  1  0  0  0
 27 52  1  0  0  0
 29 30  1  0  0  0
 29 31  1  0  0  0
 29 32  1  0  0  0
M  END
> <s_m_entry_id>
30

> <s_m_entry_name>
dock_pv.29

> <s_m_Source_Path>
/home/csk/Desktop/cluster/DUD-E-result/kif11

> <s_m_Source_File>
dock_pv.maegz

> <i_m_Source_File_Index>
29

> <chembl_id>
CHEMBL3633534

> <chembl_pref_name>
None

> <i_lp_mmshare_version>
53161

> <i_f3d_flags>
0

> <r_lp_tautomer_probability>
1

> <s_lp_Force_Field>
OPLS_2005

> <r_lp_Energy>
38.038848

> <b_lp_Chiralities_Consistent>
1

> <s_lp_Variant>
CHEMBL4581_lig698-1

> <s_i_glide_gridfile>
glide-grid_3cjo

> <i_i_glide_lignum>
1041

> <i_i_glide_rotatable_bonds>
7

> <r_i_docking_score>
-9.18244237917647

> <r_i_glide_ligand_efficiency>
-0.286951324349265

> <r_i_glide_ligand_efficiency_sa>
-0.911013667218937

> <r_i_glide_ligand_efficiency_ln>
-2.05619915262335

> <r_i_glide_gscore>
-9.18244237917647

> <r_i_glide_lipo>
-4.68189805438897

> <r_i_glide_hbond>
-0.152

> <r_i_glide_metal>
0

> <r_i_glide_rewards>
-1.56502890609503

> <r_i_glide_evdw>
-43.8298416137695

> <r_i_glide_ecoul>
-7.16384124755859

> <r_i_glide_erotb>
0.484145361544016

> <r_i_glide_esite>
-0.00159251241422332

> <r_i_glide_emodel>
-78.5519797722732

> <r_i_glide_energy>
-50.9936828613281

> <r_i_glide_einternal>
2.48917317390442

> <i_i_glide_confnum>
29

> <i_i_glide_posenum>
343

> <r_i_glide_eff_state_penalty>
0

> <s_user_duplicate_titles>
CHEMBL4581_lig698

> <s_m_subgroup_title>
dock_pv

> <s_m_subgroupid>
dock_pv

> <b_m_subgroup_collapsed>
1

$$$$
CHEMBL4581_lig243
                    3D
 Schrodinger Suite 2021-1.
 38 41  0  0  1  0            999 V2000
   22.5757   15.4682  105.3375 C   0  0  0  0  0  0
   21.6510   16.5079  105.3049 C   0  0  0  0  0  0
   20.4900   16.4432  106.0771 C   0  0  0  0  0  0
   22.3594   14.3665  106.1591 C   0  0  0  0  0  0
   21.2312   14.3289  106.9798 C   0  0  0  0  0  0
   20.2609   15.3453  106.9165 C   0  0  0  0  0  0
   20.2586   13.4480  108.9596 C   0  0  0  0  0  0
   21.1468   13.2589  107.8497 O   0  0  0  0  0  0
   18.8829   14.0114  108.5143 C   0  0  2  0  0  0
   19.0855   15.1817  107.6700 N   0  0  0  0  0  0
   18.5957   16.3388  108.3080 N   0  0  0  0  0  0
   17.9227   15.9939  109.3337 C   0  0  0  0  0  0
   17.9175   14.4916  109.6045 C   0  0  2  0  0  0
   17.1928   16.9516  110.1573 C   0  0  0  0  0  0
   16.3250   16.6093  110.9605 O   0  0  0  0  0  0
   17.5434   18.4331  110.0264 C   0  0  0  0  0  0
   21.8587   17.5619  104.4891 F   0  0  0  0  0  0
   18.1781   14.0050  111.0429 C   0  0  0  0  0  0
   19.0432   14.6885  111.9115 C   0  0  0  0  0  0
   19.2038   14.2510  113.2230 C   0  0  0  0  0  0
   18.5101   13.1317  113.6720 C   0  0  0  0  0  0
   17.6712   12.4288  112.8119 C   0  0  0  0  0  0
   17.5165   12.8574  111.4961 C   0  0  0  0  0  0
   18.3754   13.2359  107.9357 H   0  0  0  0  0  0
   23.4556   15.5089  104.7157 H   0  0  0  0  0  0
   19.7707   17.2467  106.0183 H   0  0  0  0  0  0
   23.0787   13.5629  106.1932 H   0  0  0  0  0  0
   20.1244   12.4870  109.4563 H   0  0  0  0  0  0
   20.7144   14.1277  109.6747 H   0  0  0  0  0  0
   16.9162   14.1432  109.3374 H   0  0  0  0  0  0
   17.3679   18.7746  109.0058 H   0  0  0  0  0  0
   16.9270   19.0290  110.6974 H   0  0  0  0  0  0
   18.5915   18.6109  110.2780 H   0  0  0  0  0  0
   19.5777   15.5669  111.5792 H   0  0  0  0  0  0
   19.8679   14.7769  113.8932 H   0  0  0  0  0  0
   18.6316   12.7958  114.6931 H   0  0  0  0  0  0
   17.1346   11.5624  113.1689 H   0  0  0  0  0  0
   16.8564   12.3117  110.8379 H   0  0  0  0  0  0
  1  2  2  0  0  0
  1  4  1  0  0  0
  1 25  1  0  0  0
  2  3  1  0  0  0
  2 17  1  0  0  0
  3  6  2  0  0  0
  3 26  1  0  0  0
  4  5  2  0  0  0
  4 27  1  0  0  0
  5  8  1  0  0  0
  5  6  1  0  0  0
  6 10  1  0  0  0
  7  9  1  0  0  0
  7  8  1  0  0  0
  7 28  1  0  0  0
  7 29  1  0  0  0
  9 13  1  0  0  0
  9 10  1  0  0  0
  9 24  1  0  0  0
 10 11  1  0  0  0
 11 12  2  0  0  0
 12 13  1  0  0  0
 12 14  1  0  0  0
 13 18  1  0  0  0
 13 30  1  0  0  0
 14 15  2  0  0  0
 14 16  1  0  0  0
 16 31  1  0  0  0
 16 32  1  0  0  0
 16 33  1  0  0  0
 18 19  2  0  0  0
 18 23  1  0  0  0
 19 20  1  0  0  0
 19 34  1  0  0  0
 20 21  2  0  0  0
 20 35  1  0  0  0
 21 22  1  0  0  0
 21 36  1  0  0  0
 22 23  2  0  0  0
 22 37  1  0  0  0
 23 38  1  0  0  0
M  END
> <s_m_entry_id>
31

> <s_m_entry_name>
dock_pv.30

> <s_m_Source_Path>
/home/csk/Desktop/cluster/DUD-E-result/kif11

> <s_m_Source_File>
dock_pv.maegz

> <i_m_Source_File_Index>
30

> <chembl_id>
CHEMBL251103

> <chembl_pref_name>
None

> <i_lp_mmshare_version>
53161

> <i_f3d_flags>
0

> <r_lp_tautomer_probability>
1

> <s_lp_Force_Field>
OPLS_2005

> <r_lp_Energy>
30.335904

> <b_lp_Chiralities_Consistent>
1

> <s_lp_Variant>
CHEMBL4581_lig243-1

> <s_i_glide_gridfile>
glide-grid_3cjo

> <i_i_glide_lignum>
367

> <i_i_glide_rotatable_bonds>
2

> <r_i_docking_score>
-9.18127710540086

> <r_i_glide_ligand_efficiency>
-0.399185961104385

> <r_i_glide_ligand_efficiency_sa>
-1.13523177241857

> <r_i_glide_ligand_efficiency_ln>
-2.22011605530394

> <r_i_glide_gscore>
-9.18127710540086

> <r_i_glide_lipo>
-4.53883080825739

> <r_i_glide_hbond>
0

> <r_i_glide_metal>
0

> <r_i_glide_rewards>
-2.48921620191967

> <r_i_glide_evdw>
-42.579345703125

> <r_i_glide_ecoul>
-1.44448637962341

> <r_i_glide_erotb>
0.192410146875955

> <r_i_glide_esite>
0

> <r_i_glide_emodel>
-67.9352846532247

> <r_i_glide_energy>
-44.0238320827484

> <r_i_glide_einternal>
0.106526099145412

> <i_i_glide_confnum>
1

> <i_i_glide_posenum>
382

> <r_i_glide_eff_state_penalty>
0

> <s_user_duplicate_titles>
CHEMBL4581_lig243,414337

> <s_m_subgroup_title>
dock_pv

> <s_m_subgroupid>
dock_pv

> <b_m_subgroup_collapsed>
1

$$$$
CHEMBL4581_lig230
                    3D
 Schrodinger Suite 2021-1.
 66 70  0  0  1  0            999 V2000
   21.6700   16.2306  105.4034 C   0  0  0  0  0  0
   20.5166   16.2458  106.1883 C   0  0  0  0  0  0
   20.2598   15.1983  107.0818 C   0  0  0  0  0  0
   21.1986   14.1628  107.2115 C   0  0  0  0  0  0
   22.3179   14.1164  106.3780 C   0  0  0  0  0  0
   22.5571   15.1570  105.4800 C   0  0  0  0  0  0
   19.0766   15.1018  107.8258 N   0  0  0  0  0  0
   18.6098   16.2711  108.4352 N   0  0  0  0  0  0
   17.8375   15.9523  109.3957 C   0  0  0  0  0  0
   17.6946   14.4255  109.6386 C   0  0  1  0  0  0
   18.7688   13.9328  108.6313 C   0  0  2  0  0  0
   18.0060   13.9775  111.1102 C   0  0  0  0  0  0
   17.1245   16.9668  110.1784 C   0  0  0  0  0  0
   17.5626   18.4244  110.0432 C   0  0  0  0  0  0
   16.2142   16.6870  110.9586 O   0  0  0  0  0  0
   17.4464   12.8006  111.6404 C   0  0  0  0  0  0
   17.6817   12.4246  112.9599 C   0  0  0  0  0  0
   18.5282   13.1806  113.7589 C   0  0  0  0  0  0
   19.1408   14.3191  113.2461 C   0  0  0  0  0  0
   18.8769   14.7167  111.9372 C   0  0  0  0  0  0
   21.1111   13.1603  108.1587 O   0  0  0  0  0  0
   21.9159   17.2432  104.5449 F   0  0  0  0  0  0
   20.1056   13.3348  109.1660 C   0  0  0  0  0  0
   16.2589   13.9043  109.2119 C   0  0  0  0  0  0
   15.5309   14.4941  107.9709 C   0  0  0  0  0  0
   16.1027   14.0799  106.5925 C   0  0  0  0  0  0
   15.4253   14.6985  105.4455 N   0  0  0  0  0  0
   15.6348   16.1507  105.3776 C   0  0  0  0  0  0
   15.9319   14.0748  104.2140 C   0  0  0  0  0  0
   14.8733   16.7779  104.1853 C   0  0  0  0  0  0
   15.2210   14.6114  102.9505 C   0  0  0  0  0  0
   15.2790   16.0895  102.9418 N   0  0  0  0  0  0
   15.8108   16.7521  101.8832 C   0  0  0  0  0  0
   15.6635   18.2745  101.8026 C   0  0  0  0  0  0
   16.3177   16.1778  100.9161 O   0  0  0  0  0  0
   18.3273   13.1636  107.9979 H   0  0  0  0  0  0
   19.8211   17.0673  106.0938 H   0  0  0  0  0  0
   23.0134   13.2953  106.4532 H   0  0  0  0  0  0
   23.4304   15.1346  104.8473 H   0  0  0  0  0  0
   17.5001   18.7536  109.0075 H   0  0  0  0  0  0
   16.9235   19.0715  110.6421 H   0  0  0  0  0  0
   18.5890   18.5479  110.3821 H   0  0  0  0  0  0
   16.7954   12.1674  111.0580 H   0  0  0  0  0  0
   17.1941   11.5557  113.3643 H   0  0  0  0  0  0
   18.7157   12.8738  114.7816 H   0  0  0  0  0  0
   19.8166   14.8932  113.8632 H   0  0  0  0  0  0
   19.3661   15.6090  111.5738 H   0  0  0  0  0  0
   19.9174   12.3626  109.6200 H   0  0  0  0  0  0
   20.5221   13.9669  109.9408 H   0  0  0  0  0  0
   16.2842   12.8202  109.0818 H   0  0  0  0  0  0
   15.5817   14.0744  110.0512 H   0  0  0  0  0  0
   14.5108   14.1062  108.0077 H   0  0  0  0  0  0
   15.4230   15.5721  108.0736 H   0  0  0  0  0  0
   17.1713   14.2556  106.5250 H   0  0  0  0  0  0
   15.9980   12.9931  106.5171 H   0  0  0  0  0  0
   15.3040   16.6416  106.2904 H   0  0  0  0  0  0
   16.7058   16.3441  105.2761 H   0  0  0  0  0  0
   17.0009   14.2916  104.1369 H   0  0  0  0  0  0
   15.8207   12.9890  104.2630 H   0  0  0  0  0  0
   13.8010   16.6504  104.3387 H   0  0  0  0  0  0
   15.0819   17.8477  104.1786 H   0  0  0  0  0  0
   15.6818   14.1614  102.0707 H   0  0  0  0  0  0
   14.1754   14.3013  102.9711 H   0  0  0  0  0  0
   14.6357   18.5775  102.0067 H   0  0  0  0  0  0
   16.3219   18.7620  102.5200 H   0  0  0  0  0  0
   15.9175   18.6369  100.8055 H   0  0  0  0  0  0
  1  2  2  0  0  0
  1  6  1  0  0  0
  1 22  1  0  0  0
  2  3  1  0  0  0
  2 37  1  0  0  0
  3  7  1  0  0  0
  3  4  2  0  0  0
  4 21  1  0  0  0
  4  5  1  0  0  0
  5  6  2  0  0  0
  5 38  1  0  0  0
  6 39  1  0  0  0
  7  8  1  0  0  0
  7 11  1  0  0  0
  8  9  2  0  0  0
  9 13  1  0  0  0
  9 10  1  0  0  0
 10 12  1  0  0  0
 10 24  1  0  0  0
 10 11  1  0  0  0
 11 23  1  0  0  0
 11 36  1  0  0  0
 12 16  2  0  0  0
 12 20  1  0  0  0
 13 15  2  0  0  0
 13 14  1  0  0  0
 14 40  1  0  0  0
 14 41  1  0  0  0
 14 42  1  0  0  0
 16 17  1  0  0  0
 16 43  1  0  0  0
 17 18  2  0  0  0
 17 44  1  0  0  0
 18 19  1  0  0  0
 18 45  1  0  0  0
 19 20  2  0  0  0
 19 46  1  0  0  0
 20 47  1  0  0  0
 21 23  1  0  0  0
 23 48  1  0  0  0
 23 49  1  0  0  0
 24 25  1  0  0  0
 24 50  1  0  0  0
 24 51  1  0  0  0
 25 26  1  0  0  0
 25 52  1  0  0  0
 25 53  1  0  0  0
 26 27  1  0  0  0
 26 54  1  0  0  0
 26 55  1  0  0  0
 27 28  1  0  0  0
 27 29  1  0  0  0
 28 30  1  0  0  0
 28 56  1  0  0  0
 28 57  1  0  0  0
 29 31  1  0  0  0
 29 58  1  0  0  0
 29 59  1  0  0  0
 30 32  1  0  0  0
 30 60  1  0  0  0
 30 61  1  0  0  0
 31 32  1  0  0  0
 31 62  1  0  0  0
 31 63  1  0  0  0
 32 33  1  0  0  0
 33 35  2  0  0  0
 33 34  1  0  0  0
 34 64  1  0  0  0
 34 65  1  0  0  0
 34 66  1  0  0  0
M  END
> <s_m_entry_id>
32

> <s_m_entry_name>
dock_pv.31

> <s_m_Source_Path>
/home/csk/Desktop/cluster/DUD-E-result/kif11

> <s_m_Source_File>
dock_pv.maegz

> <i_m_Source_File_Index>
31

> <chembl_id>
CHEMBL250125

> <chembl_pref_name>
None

> <i_lp_mmshare_version>
53161

> <i_f3d_flags>
0

> <r_lp_tautomer_probability>
1

> <s_lp_Force_Field>
OPLS_2005

> <r_lp_Energy>
70.418603

> <b_lp_Chiralities_Consistent>
1

> <s_lp_Variant>
CHEMBL4581_lig230-1

> <s_i_glide_gridfile>
glide-grid_3cjo

> <i_i_glide_lignum>
353

> <i_i_glide_rotatable_bonds>
7

> <r_i_docking_score>
-9.17473612628443

> <r_i_glide_ligand_efficiency>
-0.262135317893841

> <r_i_glide_ligand_efficiency_sa>
-0.857462006056927

> <r_i_glide_ligand_efficiency_ln>
-2.01405820201688

> <r_i_glide_gscore>
-9.17473612628443

> <r_i_glide_lipo>
-5.02516826608622

> <r_i_glide_hbond>
0

> <r_i_glide_metal>
0

> <r_i_glide_rewards>
-1.51665977060918

> <r_i_glide_evdw>
-53.488468170166

> <r_i_glide_ecoul>
-2.67282772064209

> <r_i_glide_erotb>
0.442439477015577

> <r_i_glide_esite>
0

> <r_i_glide_emodel>
-84.6952171355227

> <r_i_glide_energy>
-56.1612958908081

> <r_i_glide_einternal>
2.77399039268494

> <i_i_glide_confnum>
58

> <i_i_glide_posenum>
209

> <r_i_glide_eff_state_penalty>
0

> <s_user_duplicate_titles>
CHEMBL4581_lig230,414285

> <s_m_subgroup_title>
dock_pv

> <s_m_subgroupid>
dock_pv

> <b_m_subgroup_collapsed>
1

$$$$
CHEMBL4581_lig463
                    3D
 Schrodinger Suite 2021-1.
 53 56  0  0  1  0            999 V2000
   16.4887   13.4667  108.5325 S   0  0  0  0  0  0
   17.0031   13.1815  106.7991 C   0  0  0  0  0  0
   16.1350   13.9387  105.7662 C   0  0  1  0  0  0
   16.7467   15.2952  105.3597 C   0  0  0  0  0  0
   17.9125   15.1622  104.6546 O   0  0  0  0  0  0
   16.2163   16.3637  105.6558 O   0  0  0  0  0  0
   15.9180   13.1583  104.5286 N   0  0  0  0  0  0
   17.6880   14.5428  109.4803 C   0  0  0  0  0  0
   19.0067   14.5816  108.6473 C   0  0  0  0  0  0
   17.0383   15.9447  109.7239 C   0  0  0  0  0  0
   17.9417   13.9576  110.9119 C   0  0  0  0  0  0
   17.8437   17.0789  109.9315 C   0  0  0  0  0  0
   17.2798   18.3226  110.1856 C   0  0  0  0  0  0
   15.8974   18.4647  110.2168 C   0  0  0  0  0  0
   15.0752   17.3620  110.0148 C   0  0  0  0  0  0
   15.6406   16.1130  109.7814 C   0  0  0  0  0  0
   17.2725   12.8253  111.4182 C   0  0  0  0  0  0
   17.5109   12.3694  112.7123 C   0  0  0  0  0  0
   18.4186   13.0357  113.5265 C   0  0  0  0  0  0
   19.1106   14.1405  113.0452 C   0  0  0  0  0  0
   18.8815   14.5876  111.7479 C   0  0  0  0  0  0
   19.2241   15.5599  107.6602 C   0  0  0  0  0  0
   21.1176   13.5404  108.0209 C   0  0  0  0  0  0
   19.9913   13.6022  108.8348 C   0  0  0  0  0  0
   21.2981   14.4612  106.9652 C   0  0  0  0  0  0
   20.3679   15.5314  106.8242 C   0  0  0  0  0  0
   20.6231   16.5390  105.8586 C   0  0  0  0  0  0
   21.7667   16.4787  105.0651 C   0  0  0  0  0  0
   22.6416   15.4021  105.1717 C   0  0  0  0  0  0
   22.4151   14.3901  106.0964 C   0  0  0  0  0  0
   18.0657   13.3316  106.6380 H   0  0  0  0  0  0
   16.8553   12.1135  106.6460 H   0  0  0  0  0  0
   15.1599   14.1468  106.2124 H   0  0  0  0  0  0
   18.2153   14.2410  104.5598 H   0  0  0  0  0  0
   15.5226   13.7201  103.7887 H   0  0  0  0  0  0
   16.7909   12.7588  104.1931 H   0  0  0  0  0  0
   18.9202   17.0090  109.9186 H   0  0  0  0  0  0
   17.9191   19.1688  110.3632 H   0  0  0  0  0  0
   15.4634   19.4343  110.4127 H   0  0  0  0  0  0
   14.0015   17.4722  110.0498 H   0  0  0  0  0  0
   14.9628   15.2813  109.6605 H   0  0  0  0  0  0
   16.5428   12.2796  110.8403 H   0  0  0  0  0  0
   16.9609   11.5261  113.0951 H   0  0  0  0  0  0
   18.5911   12.6914  114.5356 H   0  0  0  0  0  0
   19.8268   14.6480  113.6748 H   0  0  0  0  0  0
   19.4414   15.4424  111.4001 H   0  0  0  0  0  0
   18.4967   16.3404  107.4887 H   0  0  0  0  0  0
   21.8445   12.7539  108.1588 H   0  0  0  0  0  0
   19.8634   12.8334  109.5834 H   0  0  0  0  0  0
   19.9318   17.3634  105.7548 H   0  0  0  0  0  0
   21.9567   17.2543  104.3373 H   0  0  0  0  0  0
   23.5122   15.3401  104.5374 H   0  0  0  0  0  0
   23.1186   13.5741  106.1859 H   0  0  0  0  0  0
  1  8  1  0  0  0
  1  2  1  0  0  0
  2  3  1  0  0  0
  2 31  1  0  0  0
  2 32  1  0  0  0
  3  7  1  0  0  0
  3  4  1  0  0  0
  3 33  1  0  0  0
  4  5  1  0  0  0
  4  6  2  0  0  0
  5 34  1  0  0  0
  7 35  1  0  0  0
  7 36  1  0  0  0
  8  9  1  0  0  0
  8 10  1  0  0  0
  8 11  1  0  0  0
  9 22  1  0  0  0
  9 24  2  0  0  0
 10 16  1  0  0  0
 10 12  2  0  0  0
 11 17  2  0  0  0
 11 21  1  0  0  0
 12 13  1  0  0  0
 12 37  1  0  0  0
 13 14  2  0  0  0
 13 38  1  0  0  0
 14 15  1  0  0  0
 14 39  1  0  0  0
 15 16  2  0  0  0
 15 40  1  0  0  0
 16 41  1  0  0  0
 17 18  1  0  0  0
 17 42  1  0  0  0
 18 19  2  0  0  0
 18 43  1  0  0  0
 19 20  1  0  0  0
 19 44  1  0  0  0
 20 21  2  0  0  0
 20 45  1  0  0  0
 21 46  1  0  0  0
 22 26  2  0  0  0
 22 47  1  0  0  0
 23 25  2  0  0  0
 23 24  1  0  0  0
 23 48  1  0  0  0
 24 49  1  0  0  0
 25 26  1  0  0  0
 25 30  1  0  0  0
 26 27  1  0  0  0
 27 28  2  0  0  0
 27 50  1  0  0  0
 28 29  1  0  0  0
 28 51  1  0  0  0
 29 30  2  0  0  0
 29 52  1  0  0  0
 30 53  1  0  0  0
M  END
> <s_m_entry_id>
33

> <s_m_entry_name>
dock_pv.32

> <s_m_Source_Path>
/home/csk/Desktop/cluster/DUD-E-result/kif11

> <s_m_Source_File>
dock_pv.maegz

> <i_m_Source_File_Index>
32

> <chembl_id>
CHEMBL261613

> <chembl_pref_name>
None

> <i_lp_mmshare_version>
53161

> <i_f3d_flags>
0

> <r_lp_tautomer_probability>
1

> <s_lp_Force_Field>
OPLS_2005

> <r_lp_Energy>
32.179656

> <b_lp_Chiralities_Consistent>
1

> <s_lp_Variant>
CHEMBL4581_lig463-1

> <s_i_glide_gridfile>
glide-grid_3cjo

> <i_i_glide_lignum>
686

> <i_i_glide_rotatable_bonds>
8

> <r_i_docking_score>
-9.17074562410651

> <r_i_glide_ligand_efficiency>
-0.30569152080355

> <r_i_glide_ligand_efficiency_sa>
-0.94985462915838

> <r_i_glide_ligand_efficiency_ln>
-2.0836933290738

> <r_i_glide_gscore>
-9.17074562410651

> <r_i_glide_lipo>
-5.81103280329514

> <r_i_glide_hbond>
-0.0885970666074235

> <r_i_glide_metal>
0

> <r_i_glide_rewards>
-0.697885696969696

> <r_i_glide_evdw>
-48.1389617919922

> <r_i_glide_ecoul>
-6.41649389266968

> <r_i_glide_erotb>
0.807582472604521

> <r_i_glide_esite>
-0.0113903563387035

> <r_i_glide_emodel>
-75.3963685648306

> <r_i_glide_energy>
-54.5554556846619

> <r_i_glide_einternal>
15.9133729934692

> <i_i_glide_confnum>
65

> <i_i_glide_posenum>
30

> <r_i_glide_eff_state_penalty>
0

> <s_user_duplicate_titles>
CHEMBL4581_lig463

> <s_m_subgroup_title>
dock_pv

> <s_m_subgroupid>
dock_pv

> <b_m_subgroup_collapsed>
1

$$$$
CHEMBL4581_lig41
                    3D
 Schrodinger Suite 2021-1.
 45 47  0  0  1  0            999 V2000
   17.3899   15.1018  109.1604 N   0  0  0  0  0  0
   18.3430   15.6505  108.3696 N   0  0  0  0  0  0
   19.2832   14.8356  108.1196 C   0  0  0  0  0  0
   17.7773   13.7629  109.6123 C   0  0  1  0  0  0
   19.0763   13.5520  108.8675 C   0  0  0  0  0  0
   16.1208   15.5897  109.1838 C   0  0  0  0  0  0
   20.3995   15.1091  107.1730 C   0  0  0  0  0  0
   17.8870   13.5809  111.1265 C   0  0  0  0  0  0
   21.4930   14.2414  106.9155 C   0  0  0  0  0  0
   17.1180   12.5969  111.7546 C   0  0  0  0  0  0
   15.1930   14.9697  109.7072 O   0  0  0  0  0  0
   17.1872   12.4150  113.1343 C   0  0  0  0  0  0
   21.8020   12.7620  107.7590 Cl  0  0  0  0  0  0
   15.4479   18.7234  110.9590 N   0  0  0  0  0  0
   16.3180   11.5620  113.7590 O   0  0  0  0  0  0
   18.7767   14.3454  111.8905 C   0  0  0  0  0  0
   20.3527   16.3299  106.4685 C   0  0  0  0  0  0
   15.7971   16.9438  108.5033 C   0  0  0  0  0  0
   18.8914   14.1227  113.2629 C   0  0  0  0  0  0
   22.4519   14.5912  105.9633 C   0  0  0  0  0  0
   18.0920   13.1620  113.8846 C   0  0  0  0  0  0
   16.7572   18.3716  110.4529 C   0  0  0  0  0  0
   16.6610   18.1595  108.9369 C   0  0  0  0  0  0
   21.3290   16.6779  105.5431 C   0  0  0  0  0  0
   22.3723   15.8011  105.2871 C   0  0  0  0  0  0
   17.0315   13.0536  109.2395 H   0  0  0  0  0  0
   19.9073   13.3192  109.5334 H   0  0  0  0  0  0
   18.9054   12.7620  108.1590 H   0  0  0  0  0  0
   16.4216   12.0056  111.1772 H   0  0  0  0  0  0
   14.8040   17.9620  110.7998 H   0  0  0  0  0  0
   15.5082   18.8372  111.9660 H   0  0  0  0  0  0
   15.6700   11.1620  113.1609 H   0  0  0  0  0  0
   19.3900   15.0994  111.4176 H   0  0  0  0  0  0
   19.5529   17.0401  106.6284 H   0  0  0  0  0  0
   15.8607   16.8074  107.4234 H   0  0  0  0  0  0
   14.7480   17.1768  108.6916 H   0  0  0  0  0  0
   19.5895   14.7059  113.8447 H   0  0  0  0  0  0
   23.2789   13.9267  105.7597 H   0  0  0  0  0  0
   18.1558   13.0112  114.9528 H   0  0  0  0  0  0
   17.1257   17.4785  110.9593 H   0  0  0  0  0  0
   17.4685   19.1620  110.6812 H   0  0  0  0  0  0
   17.6694   18.0867  108.5315 H   0  0  0  0  0  0
   16.2587   19.0623  108.4738 H   0  0  0  0  0  0
   21.2660   17.6183  105.0164 H   0  0  0  0  0  0
   23.1180   16.0553  104.5571 H   0  0  0  0  0  0
  1  2  1  0  0  0
  1  4  1  0  0  0
  1  6  1  0  0  0
  2  3  2  0  0  0
  3  7  1  0  0  0
  3  5  1  0  0  0
  4  5  1  0  0  0
  4  8  1  0  0  0
  4 26  1  0  0  0
  5 27  1  0  0  0
  5 28  1  0  0  0
  6 11  2  0  0  0
  6 18  1  0  0  0
  7  9  2  0  0  0
  7 17  1  0  0  0
  8 10  1  0  0  0
  8 16  2  0  0  0
  9 13  1  0  0  0
  9 20  1  0  0  0
 10 12  2  0  0  0
 10 29  1  0  0  0
 12 15  1  0  0  0
 12 21  1  0  0  0
 14 22  1  0  0  0
 14 30  1  0  0  0
 14 31  1  0  0  0
 15 32  1  0  0  0
 16 19  1  0  0  0
 16 33  1  0  0  0
 17 24  2  0  0  0
 17 34  1  0  0  0
 18 23  1  0  0  0
 18 35  1  0  0  0
 18 36  1  0  0  0
 19 21  2  0  0  0
 19 37  1  0  0  0
 20 25  2  0  0  0
 20 38  1  0  0  0
 21 39  1  0  0  0
 22 23  1  0  0  0
 22 40  1  0  0  0
 22 41  1  0  0  0
 23 42  1  0  0  0
 23 43  1  0  0  0
 24 25  1  0  0  0
 24 44  1  0  0  0
 25 45  1  0  0  0
M  END
> <s_m_entry_id>
34

> <s_m_entry_name>
dock_pv.33

> <s_m_Source_Path>
/home/csk/Desktop/cluster/DUD-E-result/kif11

> <s_m_Source_File>
dock_pv.maegz

> <i_m_Source_File_Index>
33

> <chembl_id>
CHEMBL370246

> <chembl_pref_name>
None

> <i_lp_mmshare_version>
53161

> <i_f3d_flags>
0

> <r_lp_tautomer_probability>
0.999999999997365

> <s_lp_Force_Field>
OPLS_2005

> <r_lp_Energy>
26.237574

> <b_lp_Chiralities_Consistent>
1

> <s_lp_Variant>
CHEMBL4581_lig41-2

> <s_i_glide_gridfile>
glide-grid_3cjo

> <i_i_glide_lignum>
67

> <i_i_glide_rotatable_bonds>
7

> <r_i_docking_score>
-9.15507653156057

> <r_i_glide_ligand_efficiency>
-0.366203061262423

> <r_i_glide_ligand_efficiency_sa>
-1.07078424577027

> <r_i_glide_ligand_efficiency_ln>
-2.17002749348437

> <r_i_glide_gscore>
-9.15507653156057

> <r_i_glide_lipo>
-4.64963095889151

> <r_i_glide_hbond>
-0.608

> <r_i_glide_metal>
0

> <r_i_glide_rewards>
-1.57540934143684

> <r_i_glide_evdw>
-39.7139778137207

> <r_i_glide_ecoul>
-7.22714185714722

> <r_i_glide_erotb>
0.747733938025903

> <r_i_glide_esite>
0

> <r_i_glide_emodel>
-70.0355857764944

> <r_i_glide_energy>
-46.9411196708679

> <r_i_glide_einternal>
6.38185405731201

> <i_i_glide_confnum>
56

> <i_i_glide_posenum>
61

> <r_i_glide_eff_state_penalty>
0

> <s_user_duplicate_titles>
CHEMBL4581_lig41

> <s_m_subgroup_title>
dock_pv

> <s_m_subgroupid>
dock_pv

> <b_m_subgroup_collapsed>
1

$$$$
CHEMBL4581_lig39
                    3D
 Schrodinger Suite 2021-1.
 43 45  0  0  1  0            999 V2000
   17.6549   15.4120  109.4903 N   0  0  0  0  0  0
   18.5875   15.8734  108.6208 N   0  0  0  0  0  0
   19.3463   14.9402  108.2002 C   0  0  0  0  0  0
   17.8102   13.9748  109.7318 C   0  0  1  0  0  0
   16.6008   16.1666  109.9069 C   0  0  0  0  0  0
   19.0099   13.6274  108.8703 C   0  0  0  0  0  0
   20.4064   15.1346  107.1685 C   0  0  0  0  0  0
   17.9726   13.6161  111.2086 C   0  0  0  0  0  0
   15.6773   15.6729  110.5590 O   0  0  0  0  0  0
   21.4695   14.2343  106.9001 C   0  0  0  0  0  0
   17.1184   12.6746  111.7926 C   0  0  0  0  0  0
   16.5525   17.6805  109.5632 C   0  0  0  0  0  0
   17.2274   12.3828  113.1517 C   0  0  0  0  0  0
   21.7528   12.7620  107.7590 Cl  0  0  0  0  0  0
   16.3180   11.5620  113.7590 O   0  0  0  0  0  0
   18.9590   14.2340  111.9882 C   0  0  0  0  0  0
   20.3711   16.3366  106.4313 C   0  0  0  0  0  0
   19.0914   13.9119  113.3366 C   0  0  0  0  0  0
   22.4221   14.5418  105.9270 C   0  0  0  0  0  0
   18.2258   12.9840  113.9131 C   0  0  0  0  0  0
   17.5600   18.4764  110.4155 C   0  0  0  0  0  0
   15.1362   18.2879  109.6896 C   0  0  0  0  0  0
   21.3396   16.6415  105.4796 C   0  0  0  0  0  0
   22.3652   15.7405  105.2292 C   0  0  0  0  0  0
   16.9114   13.4817  109.3510 H   0  0  0  0  0  0
   19.8399   13.2691  109.4783 H   0  0  0  0  0  0
   18.7180   12.8628  108.1590 H   0  0  0  0  0  0
   16.3423   12.2057  111.2050 H   0  0  0  0  0  0
   16.8317   17.7891  108.5139 H   0  0  0  0  0  0
   15.6598   11.1893  113.1543 H   0  0  0  0  0  0
   19.6232   14.9634  111.5471 H   0  0  0  0  0  0
   19.5936   17.0700  106.5965 H   0  0  0  0  0  0
   19.8574   14.3846  113.9336 H   0  0  0  0  0  0
   23.2282   13.8518  105.7247 H   0  0  0  0  0  0
   18.3150   12.7448  114.9590 H   0  0  0  0  0  0
   18.5885   18.1468  110.2604 H   0  0  0  0  0  0
   17.5180   19.5327  110.1590 H   0  0  0  0  0  0
   17.3434   18.3919  111.4810 H   0  0  0  0  0  0
   14.4149   17.7524  109.0705 H   0  0  0  0  0  0
   14.7733   18.2539  110.7183 H   0  0  0  0  0  0
   15.1236   19.3309  109.3709 H   0  0  0  0  0  0
   21.2889   17.5715  104.9333 H   0  0  0  0  0  0
   23.1171   15.9620  104.4901 H   0  0  0  0  0  0
  1  2  1  0  0  0
  1  4  1  0  0  0
  1  5  1  0  0  0
  2  3  2  0  0  0
  3  7  1  0  0  0
  3  6  1  0  0  0
  4  6  1  0  0  0
  4  8  1  0  0  0
  4 25  1  0  0  0
  5  9  2  0  0  0
  5 12  1  0  0  0
  6 26  1  0  0  0
  6 27  1  0  0  0
  7 10  2  0  0  0
  7 17  1  0  0  0
  8 11  1  0  0  0
  8 16  2  0  0  0
 10 14  1  0  0  0
 10 19  1  0  0  0
 11 13  2  0  0  0
 11 28  1  0  0  0
 12 21  1  0  0  0
 12 22  1  0  0  0
 12 29  1  0  0  0
 13 15  1  0  0  0
 13 20  1  0  0  0
 15 30  1  0  0  0
 16 18  1  0  0  0
 16 31  1  0  0  0
 17 23  2  0  0  0
 17 32  1  0  0  0
 18 20  2  0  0  0
 18 33  1  0  0  0
 19 24  2  0  0  0
 19 34  1  0  0  0
 20 35  1  0  0  0
 21 36  1  0  0  0
 21 37  1  0  0  0
 21 38  1  0  0  0
 22 39  1  0  0  0
 22 40  1  0  0  0
 22 41  1  0  0  0
 23 24  1  0  0  0
 23 42  1  0  0  0
 24 43  1  0  0  0
M  END
> <s_m_entry_id>
35

> <s_m_entry_name>
dock_pv.34

> <s_m_Source_Path>
/home/csk/Desktop/cluster/DUD-E-result/kif11

> <s_m_Source_File>
dock_pv.maegz

> <i_m_Source_File_Index>
34

> <chembl_id>
CHEMBL194147

> <chembl_pref_name>
None

> <i_lp_mmshare_version>
53161

> <i_f3d_flags>
0

> <r_lp_tautomer_probability>
0.999999999997365

> <s_lp_Force_Field>
OPLS_2005

> <r_lp_Energy>
28.381875

> <b_lp_Chiralities_Consistent>
1

> <s_lp_Variant>
CHEMBL4581_lig39-2

> <s_i_glide_gridfile>
glide-grid_3cjo

> <i_i_glide_lignum>
63

> <i_i_glide_rotatable_bonds>
5

> <r_i_docking_score>
-9.1459440028392

> <r_i_glide_ligand_efficiency>
-0.3810810001183

> <r_i_glide_ligand_efficiency_sa>
-1.0992278161814

> <r_i_glide_ligand_efficiency_ln>
-2.189044079903

> <r_i_glide_gscore>
-9.1459440028392

> <r_i_glide_lipo>
-4.67666673683015

> <r_i_glide_hbond>
-0.32

> <r_i_glide_metal>
0

> <r_i_glide_rewards>
-1.78175260361026

> <r_i_glide_evdw>
-39.5312576293945

> <r_i_glide_ecoul>
-5.83419847488403

> <r_i_glide_erotb>
0.484167990303542

> <r_i_glide_esite>
0

> <r_i_glide_emodel>
-66.3108635847196

> <r_i_glide_energy>
-45.3654561042786

> <r_i_glide_einternal>
6.36814737319946

> <i_i_glide_confnum>
20

> <i_i_glide_posenum>
103

> <r_i_glide_eff_state_penalty>
0

> <s_user_duplicate_titles>
CHEMBL4581_lig39

> <s_m_subgroup_title>
dock_pv

> <s_m_subgroupid>
dock_pv

> <b_m_subgroup_collapsed>
1

$$$$
CHEMBL4581_lig53
                    3D
 Schrodinger Suite 2021-1.
 42 44  0  0  1  0            999 V2000
   21.7481   16.1521  105.3745 C   0  0  0  0  0  0
   20.6815   16.0735  106.2692 C   0  0  0  0  0  0
   20.5425   14.9820  107.1434 C   0  0  0  0  0  0
   21.5170   13.9611  107.0858 C   0  0  0  0  0  0
   22.5527   14.0268  106.1586 C   0  0  0  0  0  0
   22.6829   15.1236  105.3152 C   0  0  0  0  0  0
   19.4097   14.9729  108.1086 C   0  0  0  0  0  0
   18.6152   16.2060  108.5001 C   0  0  0  0  0  0
   17.6571   15.7413  109.5024 N   0  0  0  0  0  0
   17.8066   14.2937  109.6908 C   0  0  1  0  0  0
   18.9359   13.9007  108.7683 C   0  0  0  0  0  0
   18.0578   13.8416  111.1315 C   0  0  0  0  0  0
   17.3491   12.7476  111.6334 C   0  0  0  0  0  0
   17.5174   12.3629  112.9588 C   0  0  0  0  0  0
   18.4004   13.0592  113.7774 C   0  0  0  0  0  0
   19.1237   14.1394  113.2797 C   0  0  0  0  0  0
   18.9536   14.5304  111.9568 C   0  0  0  0  0  0
   16.7623   16.4939  110.2014 C   0  0  0  0  0  0
   17.0664   17.7891  110.4834 N   0  0  0  0  0  0
   18.4048   18.2849  110.8157 C   0  0  0  0  0  0
   16.0202   18.7862  110.7076 C   0  0  0  0  0  0
   15.6867   16.0022  110.5555 O   0  0  0  0  0  0
   21.5183   12.9266  107.9557 F   0  0  0  0  0  0
   21.8686   17.2186  104.5546 F   0  0  0  0  0  0
   19.9714   16.8870  106.2834 H   0  0  0  0  0  0
   23.2620   13.2209  106.1171 H   0  0  0  0  0  0
   23.4980   15.1642  104.6083 H   0  0  0  0  0  0
   19.2517   17.0077  108.8588 H   0  0  0  0  0  0
   18.0743   16.6221  107.6483 H   0  0  0  0  0  0
   16.8831   13.8221  109.3478 H   0  0  0  0  0  0
   19.2650   12.8753  108.6957 H   0  0  0  0  0  0
   16.6499   12.2086  111.0098 H   0  0  0  0  0  0
   16.9424   11.5419  113.3558 H   0  0  0  0  0  0
   18.5241   12.7589  114.8080 H   0  0  0  0  0  0
   19.8175   14.6706  113.9146 H   0  0  0  0  0  0
   19.5134   15.3723  111.5754 H   0  0  0  0  0  0
   19.1559   17.4975  110.8551 H   0  0  0  0  0  0
   18.7165   19.0312  110.0886 H   0  0  0  0  0  0
   18.3980   18.7633  111.7932 H   0  0  0  0  0  0
   15.0259   18.4241  110.4397 H   0  0  0  0  0  0
   15.9974   19.0790  111.7590 H   0  0  0  0  0  0
   16.2141   19.6780  110.1111 H   0  0  0  0  0  0
  1  2  1  0  0  0
  1  6  2  0  0  0
  1 24  1  0  0  0
  2  3  2  0  0  0
  2 25  1  0  0  0
  3  4  1  0  0  0
  3  7  1  0  0  0
  4  5  2  0  0  0
  4 23  1  0  0  0
  5  6  1  0  0  0
  5 26  1  0  0  0
  6 27  1  0  0  0
  7  8  1  0  0  0
  7 11  2  0  0  0
  8  9  1  0  0  0
  8 28  1  0  0  0
  8 29  1  0  0  0
  9 10  1  0  0  0
  9 18  1  0  0  0
 10 11  1  0  0  0
 10 12  1  0  0  0
 10 30  1  0  0  0
 11 31  1  0  0  0
 12 13  2  0  0  0
 12 17  1  0  0  0
 13 14  1  0  0  0
 13 32  1  0  0  0
 14 15  2  0  0  0
 14 33  1  0  0  0
 15 16  1  0  0  0
 15 34  1  0  0  0
 16 17  2  0  0  0
 16 35  1  0  0  0
 17 36  1  0  0  0
 18 19  1  0  0  0
 18 22  2  0  0  0
 19 20  1  0  0  0
 19 21  1  0  0  0
 20 37  1  0  0  0
 20 38  1  0  0  0
 20 39  1  0  0  0
 21 40  1  0  0  0
 21 41  1  0  0  0
 21 42  1  0  0  0
M  END
> <s_m_entry_id>
36

> <s_m_entry_name>
dock_pv.35

> <s_m_Source_Path>
/home/csk/Desktop/cluster/DUD-E-result/kif11

> <s_m_Source_File>
dock_pv.maegz

> <i_m_Source_File_Index>
35

> <chembl_id>
CHEMBL380955

> <chembl_pref_name>
None

> <i_lp_mmshare_version>
53161

> <i_f3d_flags>
0

> <r_lp_tautomer_probability>
1

> <s_lp_Force_Field>
OPLS_2005

> <r_lp_Energy>
52.469671

> <b_lp_Chiralities_Consistent>
1

> <s_lp_Variant>
CHEMBL4581_lig53-1

> <s_i_glide_gridfile>
glide-grid_3cjo

> <i_i_glide_lignum>
80

> <i_i_glide_rotatable_bonds>
4

> <r_i_docking_score>
-9.12408309233633

> <r_i_glide_ligand_efficiency>
-0.380170128847347

> <r_i_glide_ligand_efficiency_sa>
-1.09660040878591

> <r_i_glide_ligand_efficiency_ln>
-2.18381176088784

> <r_i_glide_gscore>
-9.12408309233633

> <r_i_glide_lipo>
-4.73011158578891

> <r_i_glide_hbond>
0

> <r_i_glide_metal>
0

> <r_i_glide_rewards>
-2.49881278395617

> <r_i_glide_evdw>
-41.9760131835938

> <r_i_glide_ecoul>
-2.12613463401794

> <r_i_glide_erotb>
0.522562131691127

> <r_i_glide_esite>
0

> <r_i_glide_emodel>
-66.9401242156503

> <r_i_glide_energy>
-44.1021478176117

> <r_i_glide_einternal>
1.81843316555023

> <i_i_glide_confnum>
6

> <i_i_glide_posenum>
11

> <r_i_glide_eff_state_penalty>
0

> <s_user_duplicate_titles>
CHEMBL4581_lig53,343100

> <s_m_subgroup_title>
dock_pv

> <s_m_subgroupid>
dock_pv

> <b_m_subgroup_collapsed>
1

$$$$
CHEMBL4581_lig236
                    3D
 Schrodinger Suite 2021-1.
 49 52  0  0  1  0            999 V2000
   22.5072   15.1799  105.5319 C   0  0  0  0  0  0
   21.6028   16.2339  105.4199 C   0  0  0  0  0  0
   20.4298   16.2379  106.1782 C   0  0  0  0  0  0
   22.2612   14.1422  106.4296 C   0  0  0  0  0  0
   21.1189   14.1752  107.2295 C   0  0  0  0  0  0
   20.1652   15.1922  107.0754 C   0  0  0  0  0  0
   20.0263   13.3343  109.1702 C   0  0  0  0  0  0
   21.0246   13.1618  108.1591 O   0  0  0  0  0  0
   18.6872   13.9229  108.6334 C   0  0  2  0  0  0
   18.9718   15.0883  107.8078 N   0  0  0  0  0  0
   18.5491   16.2558  108.4558 N   0  0  0  0  0  0
   17.7968   15.9379  109.4330 C   0  0  0  0  0  0
   17.6285   14.4128  109.6626 C   0  0  1  0  0  0
   16.1943   13.9217  109.2186 C   0  0  0  0  0  0
   17.1160   16.9592  110.2318 C   0  0  0  0  0  0
   16.1575   16.7027  110.9595 O   0  0  0  0  0  0
   17.9315   13.9376  111.1276 C   0  0  0  0  0  0
   17.3471   12.7672  111.6473 C   0  0  0  0  0  0
   17.5898   12.3625  112.9562 C   0  0  0  0  0  0
   18.4634   13.0874  113.7562 C   0  0  0  0  0  0
   19.0963   14.2174  113.2542 C   0  0  0  0  0  0
   18.8283   14.6422  111.9564 C   0  0  0  0  0  0
   15.6058   14.4710  107.8901 C   0  0  0  0  0  0
   14.2655   13.8326  107.4770 C   0  0  0  0  0  0
   17.6475   18.3927  110.1760 C   0  0  0  0  0  0
   21.8541   17.2411  104.5544 F   0  0  0  0  0  0
   13.2195   14.1185  108.4432 N   0  0  0  0  0  0
   18.2459   13.1501  108.0025 H   0  0  0  0  0  0
   23.4012   15.1687  104.9233 H   0  0  0  0  0  0
   19.7254   17.0470  106.0612 H   0  0  0  0  0  0
   22.9691   13.3339  106.5325 H   0  0  0  0  0  0
   19.8480   12.3620  109.6307 H   0  0  0  0  0  0
   20.4418   13.9820  109.9340 H   0  0  0  0  0  0
   15.4843   14.1471  110.0142 H   0  0  0  0  0  0
   16.2009   12.8342  109.1198 H   0  0  0  0  0  0
   16.6752   12.1570  111.0648 H   0  0  0  0  0  0
   17.0982   11.4897  113.3550 H   0  0  0  0  0  0
   18.6603   12.7592  114.7666 H   0  0  0  0  0  0
   19.7918   14.7618  113.8736 H   0  0  0  0  0  0
   19.3369   15.5261  111.6007 H   0  0  0  0  0  0
   16.3197   14.3031  107.0820 H   0  0  0  0  0  0
   15.4762   15.5519  107.9486 H   0  0  0  0  0  0
   14.3744   12.7536  107.3592 H   0  0  0  0  0  0
   13.9584   14.2237  106.5064 H   0  0  0  0  0  0
   17.6440   18.7606  109.1504 H   0  0  0  0  0  0
   17.0257   19.0543  110.7777 H   0  0  0  0  0  0
   18.6674   18.4394  110.5571 H   0  0  0  0  0  0
   13.1169   15.1180  108.5488 H   0  0  0  0  0  0
   12.3352   13.7811  108.0912 H   0  0  0  0  0  0
  1  2  2  0  0  0
  1  4  1  0  0  0
  1 29  1  0  0  0
  2  3  1  0  0  0
  2 26  1  0  0  0
  3  6  2  0  0  0
  3 30  1  0  0  0
  4  5  2  0  0  0
  4 31  1  0  0  0
  5  8  1  0  0  0
  5  6  1  0  0  0
  6 10  1  0  0  0
  7  9  1  0  0  0
  7  8  1  0  0  0
  7 32  1  0  0  0
  7 33  1  0  0  0
  9 13  1  0  0  0
  9 10  1  0  0  0
  9 28  1  0  0  0
 10 11  1  0  0  0
 11 12  2  0  0  0
 12 13  1  0  0  0
 12 15  1  0  0  0
 13 14  1  0  0  0
 13 17  1  0  0  0
 14 23  1  0  0  0
 14 34  1  0  0  0
 14 35  1  0  0  0
 15 16  2  0  0  0
 15 25  1  0  0  0
 17 18  2  0  0  0
 17 22  1  0  0  0
 18 19  1  0  0  0
 18 36  1  0  0  0
 19 20  2  0  0  0
 19 37  1  0  0  0
 20 21  1  0  0  0
 20 38  1  0  0  0
 21 22  2  0  0  0
 21 39  1  0  0  0
 22 40  1  0  0  0
 23 24  1  0  0  0
 23 41  1  0  0  0
 23 42  1  0  0  0
 24 27  1  0  0  0
 24 43  1  0  0  0
 24 44  1  0  0  0
 25 45  1  0  0  0
 25 46  1  0  0  0
 25 47  1  0  0  0
 27 48  1  0  0  0
 27 49  1  0  0  0
M  END
> <s_m_entry_id>
37

> <s_m_entry_name>
dock_pv.36

> <s_m_Source_Path>
/home/csk/Desktop/cluster/DUD-E-result/kif11

> <s_m_Source_File>
dock_pv.maegz

> <i_m_Source_File_Index>
36

> <chembl_id>
CHEMBL250127

> <chembl_pref_name>
None

> <i_lp_mmshare_version>
53161

> <i_f3d_flags>
0

> <r_lp_tautomer_probability>
1

> <s_lp_Force_Field>
OPLS_2005

> <r_lp_Energy>
40.844631

> <b_lp_Chiralities_Consistent>
1

> <s_lp_Variant>
CHEMBL4581_lig236-1

> <s_i_glide_gridfile>
glide-grid_3cjo

> <i_i_glide_lignum>
359

> <i_i_glide_rotatable_bonds>
5

> <r_i_docking_score>
-9.10958466203978

> <r_i_glide_ligand_efficiency>
-0.337392024519992

> <r_i_glide_ligand_efficiency_sa>
-1.01217607244799

> <r_i_glide_ligand_efficiency_ln>
-2.12056112608225

> <r_i_glide_gscore>
-9.10958466203978

> <r_i_glide_lipo>
-4.83779478406586

> <r_i_glide_hbond>
0

> <r_i_glide_metal>
0

> <r_i_glide_rewards>
-2.11588079608613

> <r_i_glide_evdw>
-45.0320205688477

> <r_i_glide_ecoul>
-2.21525883674622

> <r_i_glide_erotb>
0.427980772066527

> <r_i_glide_esite>
0

> <r_i_glide_emodel>
-72.69604263539

> <r_i_glide_energy>
-47.2472794055939

> <r_i_glide_einternal>
0.5836101770401

> <i_i_glide_confnum>
6

> <i_i_glide_posenum>
165

> <r_i_glide_eff_state_penalty>
0

> <s_user_duplicate_titles>
CHEMBL4581_lig236,414288

> <s_m_subgroup_title>
dock_pv

> <s_m_subgroupid>
dock_pv

> <b_m_subgroup_collapsed>
1

$$$$
CHEMBL4581_lig713
                    3D
 Schrodinger Suite 2021-1.
 52 55  0  0  1  0            999 V2000
   18.5731   17.1166  110.8023 C   0  0  0  0  0  0
   19.3304   15.9177  110.9764 O   0  0  0  0  0  0
   17.4521   14.7063  109.2388 C   0  0  2  0  0  0
   17.1074   17.0346  110.3331 C   0  0  0  0  0  0
   16.5683   15.9509  109.5768 C   0  0  0  0  0  0
   15.2139   16.0451  109.1916 C   0  0  0  0  0  0
   14.4222   17.1396  109.5213 C   0  0  0  0  0  0
   14.9615   18.1843  110.2554 C   0  0  0  0  0  0
   16.2906   18.1267  110.6509 C   0  0  0  0  0  0
   17.7909   14.1017  110.6353 C   0  0  0  0  0  0
   18.7032   14.7993  111.4528 C   0  0  0  0  0  0
   19.0225   14.3386  112.7317 C   0  0  0  0  0  0
   18.4265   13.1866  113.2365 C   0  0  0  0  0  0
   17.5215   12.4813  112.4514 C   0  0  0  0  0  0
   17.2136   12.9305  111.1679 C   0  0  0  0  0  0
   18.6947   15.0472  108.3725 C   0  0  0  0  0  0
   18.7233   16.2076  107.5869 C   0  0  0  0  0  0
   19.7838   16.4543  106.7254 C   0  0  0  0  0  0
   20.8493   15.5631  106.6398 C   0  0  0  0  0  0
   20.8313   14.3977  107.4163 C   0  0  0  0  0  0
   19.7743   14.1565  108.2937 C   0  0  0  0  0  0
   16.5454   13.4483  108.2081 S   0  0  0  0  0  0
   16.5793   14.0697  106.4856 C   0  0  0  0  0  0
   15.9262   13.1083  105.4731 C   0  0  1  0  0  0
   14.3832   13.0948  105.5609 C   0  0  0  0  0  0
   16.3174   13.4517  104.0904 N   0  0  0  0  0  0
   13.9180   11.9617  106.1649 O   0  0  0  0  0  0
   13.6770   14.0023  105.1222 O   0  0  0  0  0  0
   22.0184   15.9074  105.7177 C   0  0  0  0  0  0
   22.7281   16.8965  106.2418 F   0  0  0  0  0  0
   21.5781   16.3699  104.5592 F   0  0  0  0  0  0
   22.8248   14.8679  105.4933 F   0  0  0  0  0  0
   18.6163   17.6529  111.7507 H   0  0  0  0  0  0
   19.1140   17.7418  110.0920 H   0  0  0  0  0  0
   14.7317   15.2637  108.6272 H   0  0  0  0  0  0
   13.3881   17.1753  109.2093 H   0  0  0  0  0  0
   14.3534   19.0383  110.5169 H   0  0  0  0  0  0
   16.6935   18.9542  111.2181 H   0  0  0  0  0  0
   19.7392   14.8803  113.3315 H   0  0  0  0  0  0
   18.6725   12.8367  114.2291 H   0  0  0  0  0  0
   17.0602   11.5839  112.8366 H   0  0  0  0  0  0
   16.4958   12.3525  110.6054 H   0  0  0  0  0  0
   17.9082   16.9147  107.6095 H   0  0  0  0  0  0
   19.7876   17.3602  106.1355 H   0  0  0  0  0  0
   21.6446   13.6879  107.3595 H   0  0  0  0  0  0
   19.7701   13.2490  108.8806 H   0  0  0  0  0  0
   16.1300   15.0631  106.4395 H   0  0  0  0  0  0
   17.6213   14.1824  106.1892 H   0  0  0  0  0  0
   16.2864   12.0990  105.6826 H   0  0  0  0  0  0
   17.3225   13.2681  103.9971 H   0  0  0  0  0  0
   15.8648   12.8341  103.4325 H   0  0  0  0  0  0
   14.6036   11.4114  106.5681 H   0  0  0  0  0  0
  1  4  1  0  0  0
  1  2  1  0  0  0
  1 33  1  0  0  0
  1 34  1  0  0  0
  2 11  1  0  0  0
  3 10  1  0  0  0
  3  5  1  0  0  0
  3 16  1  0  0  0
  3 22  1  0  0  0
  4  5  2  0  0  0
  4  9  1  0  0  0
  5  6  1  0  0  0
  6  7  2  0  0  0
  6 35  1  0  0  0
  7  8  1  0  0  0
  7 36  1  0  0  0
  8  9  2  0  0  0
  8 37  1  0  0  0
  9 38  1  0  0  0
 10 11  2  0  0  0
 10 15  1  0  0  0
 11 12  1  0  0  0
 12 13  2  0  0  0
 12 39  1  0  0  0
 13 14  1  0  0  0
 13 40  1  0  0  0
 14 15  2  0  0  0
 14 41  1  0  0  0
 15 42  1  0  0  0
 16 17  2  0  0  0
 16 21  1  0  0  0
 17 18  1  0  0  0
 17 43  1  0  0  0
 18 19  2  0  0  0
 18 44  1  0  0  0
 19 20  1  0  0  0
 19 29  1  0  0  0
 20 21  2  0  0  0
 20 45  1  0  0  0
 21 46  1  0  0  0
 22 23  1  0  0  0
 23 24  1  0  0  0
 23 47  1  0  0  0
 23 48  1  0  0  0
 24 25  1  0  0  0
 24 26  1  0  0  0
 24 49  1  0  0  0
 25 27  1  0  0  0
 25 28  2  0  0  0
 26 50  1  0  0  0
 26 51  1  0  0  0
 27 52  1  0  0  0
 29 30  1  0  0  0
 29 31  1  0  0  0
 29 32  1  0  0  0
M  END
> <s_m_entry_id>
38

> <s_m_entry_name>
dock_pv.37

> <s_m_Source_Path>
/home/csk/Desktop/cluster/DUD-E-result/kif11

> <s_m_Source_File>
dock_pv.maegz

> <i_m_Source_File_Index>
37

> <chembl_id>
CHEMBL3633540

> <chembl_pref_name>
None

> <i_lp_mmshare_version>
53161

> <i_f3d_flags>
0

> <r_lp_tautomer_probability>
1

> <s_lp_Force_Field>
OPLS_2005

> <r_lp_Energy>
38.138747

> <b_lp_Chiralities_Consistent>
1

> <s_lp_Variant>
CHEMBL4581_lig713-2

> <s_i_glide_gridfile>
glide-grid_3cjo

> <i_i_glide_lignum>
1057

> <i_i_glide_rotatable_bonds>
7

> <r_i_docking_score>
-9.10588203191113

> <r_i_glide_ligand_efficiency>
-0.284558813497223

> <r_i_glide_ligand_efficiency_sa>
-0.903417918740959

> <r_i_glide_ligand_efficiency_ln>
-2.03905520391439

> <r_i_glide_gscore>
-9.10588203191113

> <r_i_glide_lipo>
-4.43889749208852

> <r_i_glide_hbond>
-0.152

> <r_i_glide_metal>
0

> <r_i_glide_rewards>
-1.54895589261599

> <r_i_glide_evdw>
-42.1409721374512

> <r_i_glide_ecoul>
-8.8774881362915

> <r_i_glide_erotb>
0.476520916252139

> <r_i_glide_esite>
-0.00387773614247033

> <r_i_glide_emodel>
-77.5534729275718

> <r_i_glide_energy>
-51.0184602737427

> <r_i_glide_einternal>
2.13055658340454

> <i_i_glide_confnum>
251

> <i_i_glide_posenum>
295

> <r_i_glide_eff_state_penalty>
0

> <s_user_duplicate_titles>
CHEMBL4581_lig713

> <s_m_subgroup_title>
dock_pv

> <s_m_subgroupid>
dock_pv

> <b_m_subgroup_collapsed>
1

$$$$
CHEMBL4581_lig882
                    3D
 Schrodinger Suite 2021-1.
 53 55  0  0  1  0            999 V2000
   17.7609   14.5754  109.7135 C   0  0  0  0  0  0
   17.1734   15.9933  109.9959 C   0  0  0  0  0  0
   19.0647   14.5720  108.8623 C   0  0  0  0  0  0
   18.0245   17.0991  110.1577 C   0  0  0  0  0  0
   17.5159   18.3607  110.4350 C   0  0  0  0  0  0
   16.1429   18.5375  110.5583 C   0  0  0  0  0  0
   15.2776   17.4582  110.4151 C   0  0  0  0  0  0
   15.7897   16.1929  110.1414 C   0  0  0  0  0  0
   20.0283   13.5684  109.0203 C   0  0  0  0  0  0
   21.1179   13.4894  108.1561 C   0  0  0  0  0  0
   21.2349   14.3629  107.0719 C   0  0  0  0  0  0
   20.3330   15.4334  106.9494 C   0  0  0  0  0  0
   19.2785   15.5325  107.8597 C   0  0  0  0  0  0
   17.9801   13.9376  111.1211 C   0  0  0  0  0  0
   18.9335   14.5115  111.9808 C   0  0  0  0  0  0
   19.1181   14.0340  113.2757 C   0  0  0  0  0  0
   18.3601   12.9610  113.7305 C   0  0  0  0  0  0
   17.4298   12.3615  112.8923 C   0  0  0  0  0  0
   17.2481   12.8335  111.5967 C   0  0  0  0  0  0
   16.5810   13.5570  108.6878 S   0  0  0  0  0  0
   16.3617   14.4219  107.0880 C   0  0  0  0  0  0
   15.5727   13.6550  106.0136 C   0  0  0  0  0  0
   16.3168   12.5088  105.5241 N   0  0  0  0  0  0
   20.3817   16.4481  105.8065 C   0  0  0  0  0  0
   21.6525   17.3092  105.7000 C   0  0  0  0  0  0
   22.3605   14.1214  106.0731 C   0  0  0  0  0  0
   19.0956   16.9901  110.0836 H   0  0  0  0  0  0
   18.1946   19.1888  110.5607 H   0  0  0  0  0  0
   15.7468   19.5183  110.7753 H   0  0  0  0  0  0
   14.2105   17.6000  110.5181 H   0  0  0  0  0  0
   15.1013   15.3688  110.0533 H   0  0  0  0  0  0
   19.9104   12.8041  109.7709 H   0  0  0  0  0  0
   21.8330   12.6909  108.2750 H   0  0  0  0  0  0
   18.5537   16.3189  107.7138 H   0  0  0  0  0  0
   19.5301   15.3496  111.6537 H   0  0  0  0  0  0
   19.8479   14.4974  113.9238 H   0  0  0  0  0  0
   18.4991   12.5927  114.7371 H   0  0  0  0  0  0
   16.8345   11.5347  113.2500 H   0  0  0  0  0  0
   16.5010   12.3420  110.9946 H   0  0  0  0  0  0
   15.8637   15.3733  107.2852 H   0  0  0  0  0  0
   17.3227   14.6679  106.6503 H   0  0  0  0  0  0
   14.6120   13.3221  106.4093 H   0  0  0  0  0  0
   15.3635   14.3141  105.1681 H   0  0  0  0  0  0
   17.2509   12.7625  105.2026 H   0  0  0  0  0  0
   16.4316   11.8368  106.2786 H   0  0  0  0  0  0
   19.5199   17.1189  105.8605 H   0  0  0  0  0  0
   20.2370   15.8878  104.8949 H   0  0  0  0  0  0
   21.5929   17.9557  104.8225 H   0  0  0  0  0  0
   22.5612   16.7213  105.5949 H   0  0  0  0  0  0
   21.7727   17.9619  106.5588 H   0  0  0  0  0  0
   22.6572   13.0699  106.0586 H   0  0  0  0  0  0
   22.0505   14.3642  105.0563 H   0  0  0  0  0  0
   23.2416   14.7143  106.3258 H   0  0  0  0  0  0
  1  2  1  0  0  0
  1  3  1  0  0  0
  1 14  1  0  0  0
  1 20  1  0  0  0
  2  4  2  0  0  0
  2  8  1  0  0  0
  3  9  2  0  0  0
  3 13  1  0  0  0
  4  5  1  0  0  0
  4 27  1  0  0  0
  5  6  2  0  0  0
  5 28  1  0  0  0
  6  7  1  0  0  0
  6 29  1  0  0  0
  7  8  2  0  0  0
  7 30  1  0  0  0
  8 31  1  0  0  0
  9 10  1  0  0  0
  9 32  1  0  0  0
 10 11  2  0  0  0
 10 33  1  0  0  0
 11 12  1  0  0  0
 11 26  1  0  0  0
 12 13  2  0  0  0
 12 24  1  0  0  0
 13 34  1  0  0  0
 14 15  2  0  0  0
 14 19  1  0  0  0
 15 16  1  0  0  0
 15 35  1  0  0  0
 16 17  2  0  0  0
 16 36  1  0  0  0
 17 18  1  0  0  0
 17 37  1  0  0  0
 18 19  2  0  0  0
 18 38  1  0  0  0
 19 39  1  0  0  0
 20 21  1  0  0  0
 21 22  1  0  0  0
 21 40  1  0  0  0
 21 41  1  0  0  0
 22 23  1  0  0  0
 22 42  1  0  0  0
 22 43  1  0  0  0
 23 44  1  0  0  0
 23 45  1  0  0  0
 24 25  1  0  0  0
 24 46  1  0  0  0
 24 47  1  0  0  0
 25 48  1  0  0  0
 25 49  1  0  0  0
 25 50  1  0  0  0
 26 51  1  0  0  0
 26 52  1  0  0  0
 26 53  1  0  0  0
M  END
> <s_m_entry_id>
39

> <s_m_entry_name>
dock_pv.38

> <s_m_Source_Path>
/home/csk/Desktop/cluster/DUD-E-result/kif11

> <s_m_Source_File>
dock_pv.maegz

> <i_m_Source_File_Index>
38

> <chembl_id>
CHEMBL2325413

> <chembl_pref_name>
None

> <i_lp_mmshare_version>
53161

> <i_f3d_flags>
0

> <r_lp_tautomer_probability>
1

> <s_lp_Force_Field>
OPLS_2005

> <r_lp_Energy>
25.84855

> <b_lp_Chiralities_Consistent>
1

> <s_lp_Variant>
CHEMBL4581_lig882-1

> <s_i_glide_gridfile>
glide-grid_3cjo

> <i_i_glide_lignum>
1274

> <i_i_glide_rotatable_bonds>
7

> <r_i_docking_score>
-9.10519382882643

> <r_i_glide_ligand_efficiency>
-0.35019976264717

> <r_i_glide_ligand_efficiency_sa>
-1.03746541887272

> <r_i_glide_ligand_efficiency_ln>
-2.13832489412209

> <r_i_glide_gscore>
-9.10519382882643

> <r_i_glide_lipo>
-5.61027434532547

> <r_i_glide_hbond>
-0.420466738861585

> <r_i_glide_metal>
0

> <r_i_glide_rewards>
-1.05235233333333

> <r_i_glide_evdw>
-45.1810150146484

> <r_i_glide_ecoul>
-3.31440830230713

> <r_i_glide_erotb>
0.734111584772451

> <r_i_glide_esite>
0

> <r_i_glide_emodel>
-72.3473497500883

> <r_i_glide_energy>
-48.4954233169556

> <r_i_glide_einternal>
3.76600337028503

> <i_i_glide_confnum>
166

> <i_i_glide_posenum>
182

> <r_i_glide_eff_state_penalty>
0

> <s_user_duplicate_titles>
CHEMBL4581_lig882

> <s_m_subgroup_title>
dock_pv

> <s_m_subgroupid>
dock_pv

> <b_m_subgroup_collapsed>
1

$$$$
CHEMBL4581_lig29
                    3D
 Schrodinger Suite 2021-1.
 41 43  0  0  1  0            999 V2000
   17.8349   15.7038  109.5834 N   0  0  0  0  0  0
   18.7172   16.0892  108.6187 N   0  0  0  0  0  0
   16.7799   16.4911  109.9368 C   0  0  0  0  0  0
   19.3973   15.1016  108.1851 C   0  0  0  0  0  0
   17.8705   14.2475  109.7691 C   0  0  1  0  0  0
   19.0084   13.8154  108.8663 C   0  0  0  0  0  0
   20.4474   15.1843  107.1422 C   0  0  0  0  0  0
   17.0464   17.7759  110.3126 N   0  0  0  0  0  0
   21.4327   14.1890  106.9592 C   0  0  0  0  0  0
   15.6318   16.0345  109.9733 O   0  0  0  0  0  0
   20.5054   16.3304  106.3290 C   0  0  0  0  0  0
   18.0412   13.8177  111.2231 C   0  0  0  0  0  0
   22.4146   14.3371  105.9826 C   0  0  0  0  0  0
   21.4945   16.4702  105.3592 C   0  0  0  0  0  0
   21.5180   13.1010  107.7583 F   0  0  0  0  0  0
   22.4437   15.4712  105.1826 C   0  0  0  0  0  0
   21.5192   17.5618  104.5669 F   0  0  0  0  0  0
   15.9978   18.7975  110.3519 C   0  0  0  0  0  0
   18.3437   18.2776  110.7808 C   0  0  0  0  0  0
   18.9705   14.4629  112.0445 C   0  0  0  0  0  0
   17.2814   12.7569  111.7215 C   0  0  0  0  0  0
   19.1261   14.0558  113.3617 C   0  0  0  0  0  0
   17.4319   12.3620  113.0461 C   0  0  0  0  0  0
   18.3545   13.0096  113.8600 C   0  0  0  0  0  0
   16.9227   13.8441  109.4003 H   0  0  0  0  0  0
   19.8426   13.4073  109.4381 H   0  0  0  0  0  0
   18.6535   13.0720  108.1589 H   0  0  0  0  0  0
   19.7871   17.1306  106.4422 H   0  0  0  0  0  0
   23.1557   13.5645  105.8462 H   0  0  0  0  0  0
   23.1870   15.5621  104.4088 H   0  0  0  0  0  0
   15.0379   18.4373  109.9782 H   0  0  0  0  0  0
   15.8490   19.1466  111.3737 H   0  0  0  0  0  0
   16.2863   19.6553  109.7431 H   0  0  0  0  0  0
   19.1051   17.5017  110.8685 H   0  0  0  0  0  0
   18.7164   19.0385  110.0975 H   0  0  0  0  0  0
   18.2380   18.7443  111.7601 H   0  0  0  0  0  0
   19.5770   15.2710  111.6617 H   0  0  0  0  0  0
   16.5669   12.2449  111.0918 H   0  0  0  0  0  0
   19.8469   14.5489  113.9973 H   0  0  0  0  0  0
   16.8259   11.5597  113.4400 H   0  0  0  0  0  0
   18.4722   12.6976  114.8882 H   0  0  0  0  0  0
  1  2  1  0  0  0
  1  3  1  0  0  0
  1  5  1  0  0  0
  2  4  2  0  0  0
  3  8  1  0  0  0
  3 10  2  0  0  0
  4  7  1  0  0  0
  4  6  1  0  0  0
  5  6  1  0  0  0
  5 12  1  0  0  0
  5 25  1  0  0  0
  6 26  1  0  0  0
  6 27  1  0  0  0
  7  9  2  0  0  0
  7 11  1  0  0  0
  8 18  1  0  0  0
  8 19  1  0  0  0
  9 13  1  0  0  0
  9 15  1  0  0  0
 11 14  2  0  0  0
 11 28  1  0  0  0
 12 20  1  0  0  0
 12 21  2  0  0  0
 13 16  2  0  0  0
 13 29  1  0  0  0
 14 16  1  0  0  0
 14 17  1  0  0  0
 16 30  1  0  0  0
 18 31  1  0  0  0
 18 32  1  0  0  0
 18 33  1  0  0  0
 19 34  1  0  0  0
 19 35  1  0  0  0
 19 36  1  0  0  0
 20 22  2  0  0  0
 20 37  1  0  0  0
 21 23  1  0  0  0
 21 38  1  0  0  0
 22 24  1  0  0  0
 22 39  1  0  0  0
 23 24  2  0  0  0
 23 40  1  0  0  0
 24 41  1  0  0  0
M  END
> <s_m_entry_id>
40

> <s_m_entry_name>
dock_pv.39

> <s_m_Source_Path>
/home/csk/Desktop/cluster/DUD-E-result/kif11

> <s_m_Source_File>
dock_pv.maegz

> <i_m_Source_File_Index>
39

> <chembl_id>
CHEMBL196985

> <chembl_pref_name>
None

> <i_lp_mmshare_version>
53161

> <i_f3d_flags>
0

> <r_lp_tautomer_probability>
1

> <s_lp_Force_Field>
OPLS_2005

> <r_lp_Energy>
44.153066

> <b_lp_Chiralities_Consistent>
1

> <s_lp_Variant>
CHEMBL4581_lig29-2

> <s_i_glide_gridfile>
glide-grid_3cjo

> <i_i_glide_lignum>
45

> <i_i_glide_rotatable_bonds>
4

> <r_i_docking_score>
-9.07969423569662

> <r_i_glide_ligand_efficiency>
-0.378320593154026

> <r_i_glide_ligand_efficiency_sa>
-1.09126542467364

> <r_i_glide_ligand_efficiency_ln>
-2.17318747062205

> <r_i_glide_gscore>
-9.07969423569662

> <r_i_glide_lipo>
-4.43966702319093

> <r_i_glide_hbond>
0

> <r_i_glide_metal>
0

> <r_i_glide_rewards>
-2.73689926099751

> <r_i_glide_evdw>
-42.050422668457

> <r_i_glide_ecoul>
-2.13601493835449

> <r_i_glide_erotb>
0.519795422667837

> <r_i_glide_esite>
0

> <r_i_glide_emodel>
-66.8890877308767

> <r_i_glide_energy>
-44.1864376068115

> <r_i_glide_einternal>
1.97167587280273

> <i_i_glide_confnum>
19

> <i_i_glide_posenum>
96

> <r_i_glide_eff_state_penalty>
0

> <s_user_duplicate_titles>
CHEMBL4581_lig29,325345

> <s_m_subgroup_title>
dock_pv

> <s_m_subgroupid>
dock_pv

> <b_m_subgroup_collapsed>
1

$$$$
CHEMBL4581_lig223
                    3D
 Schrodinger Suite 2021-1.
 62 65  0  0  1  0            999 V2000
   22.6490   15.4107  105.3179 C   0  0  0  0  0  0
   21.6137   16.3375  105.3712 C   0  0  0  0  0  0
   20.5327   16.1229  106.2237 C   0  0  0  0  0  0
   20.4704   14.9895  107.0562 C   0  0  0  0  0  0
   21.5179   14.0493  106.9614 C   0  0  0  0  0  0
   22.5946   14.2686  106.1049 C   0  0  0  0  0  0
   21.6567   17.4417  104.5944 F   0  0  0  0  0  0
   21.5730   12.9568  107.7591 F   0  0  0  0  0  0
   19.4013   14.8304  107.9639 N   0  0  0  0  0  0
   18.7373   15.9772  108.4552 N   0  0  0  0  0  0
   17.9471   15.6482  109.3990 C   0  0  0  0  0  0
   17.9037   14.1346  109.6793 C   0  0  1  0  0  0
   19.1925   13.7777  108.9446 C   0  0  0  0  0  0
   17.1249   16.6357  110.1011 C   0  0  0  0  0  0
   16.1949   16.3230  110.8442 O   0  0  0  0  0  0
   17.4688   18.1185  109.9256 C   0  0  0  0  0  0
   18.0541   13.7597  111.1858 C   0  0  0  0  0  0
   16.6775   13.4072  109.0069 C   0  0  0  0  0  0
   16.4042   13.5991  107.4920 C   0  0  0  0  0  0
   15.6095   14.8577  107.0853 C   0  0  0  0  0  0
   15.6802   15.1179  105.6428 N   0  0  2  0  0  0
   17.3334   12.6981  111.7592 C   0  0  0  0  0  0
   17.5048   12.3612  113.0962 C   0  0  0  0  0  0
   18.4137   13.0611  113.8760 C   0  0  0  0  0  0
   19.1484   14.1080  113.3338 C   0  0  0  0  0  0
   18.9701   14.4528  111.9985 C   0  0  0  0  0  0
   15.1464   16.4535  105.3484 C   0  0  0  0  0  0
   14.9792   14.0824  104.8775 C   0  0  0  0  0  0
   15.4094   16.9043  103.9233 C   0  0  0  0  0  0
   14.6101   17.3799  102.9080 C   0  0  0  0  0  0
   15.4695   17.6282  101.8430 C   0  0  0  0  0  0
   16.7130   17.3356  102.1595 N   0  0  0  0  0  0
   16.6941   16.8944  103.4830 O   0  0  0  0  0  0
   15.1355   18.1552  100.4688 C   0  0  0  0  0  0
   23.4904   15.5614  104.6599 H   0  0  0  0  0  0
   19.7470   16.8640  106.2483 H   0  0  0  0  0  0
   23.4037   13.5593  106.0599 H   0  0  0  0  0  0
   19.2276   12.7623  108.5576 H   0  0  0  0  0  0
   20.0386   13.8397  109.6319 H   0  0  0  0  0  0
   18.4890   18.3166  110.2551 H   0  0  0  0  0  0
   17.3813   18.4115  108.8793 H   0  0  0  0  0  0
   16.7945   18.7398  110.5147 H   0  0  0  0  0  0
   16.8400   12.3341  109.1132 H   0  0  0  0  0  0
   15.7633   13.6277  109.5611 H   0  0  0  0  0  0
   17.2918   13.4548  106.8744 H   0  0  0  0  0  0
   15.7603   12.7610  107.2294 H   0  0  0  0  0  0
   14.5663   14.7366  107.3825 H   0  0  0  0  0  0
   15.9588   15.7194  107.6473 H   0  0  0  0  0  0
   16.6190   12.1133  111.2028 H   0  0  0  0  0  0
   16.9238   11.5596  113.5259 H   0  0  0  0  0  0
   18.5476   12.7877  114.9137 H   0  0  0  0  0  0
   19.8592   14.6471  113.9429 H   0  0  0  0  0  0
   19.5594   15.2628  111.5944 H   0  0  0  0  0  0
   14.0774   16.4796  105.5673 H   0  0  0  0  0  0
   15.6065   17.1777  106.0215 H   0  0  0  0  0  0
   15.0340   14.2794  103.8067 H   0  0  0  0  0  0
   15.4318   13.1026  105.0293 H   0  0  0  0  0  0
   13.9269   14.0192  105.1551 H   0  0  0  0  0  0
   13.5408   17.5270  102.9339 H   0  0  0  0  0  0
   15.5162   19.1649  100.3246 H   0  0  0  0  0  0
   15.5559   17.5340   99.6786 H   0  0  0  0  0  0
   14.0592   18.1993  100.3034 H   0  0  0  0  0  0
  1  6  1  0  0  0
  1  2  2  0  0  0
  1 35  1  0  0  0
  2  3  1  0  0  0
  2  7  1  0  0  0
  3  4  2  0  0  0
  3 36  1  0  0  0
  4  9  1  0  0  0
  4  5  1  0  0  0
  5  8  1  0  0  0
  5  6  2  0  0  0
  6 37  1  0  0  0
  9 10  1  0  0  0
  9 13  1  0  0  0
 10 11  2  0  0  0
 11 12  1  0  0  0
 11 14  1  0  0  0
 12 17  1  0  0  0
 12 18  1  0  0  0
 12 13  1  0  0  0
 13 38  1  0  0  0
 13 39  1  0  0  0
 14 15  2  0  0  0
 14 16  1  0  0  0
 16 40  1  0  0  0
 16 41  1  0  0  0
 16 42  1  0  0  0
 17 22  2  0  0  0
 17 26  1  0  0  0
 18 19  1  0  0  0
 18 43  1  0  0  0
 18 44  1  0  0  0
 19 20  1  0  0  0
 19 45  1  0  0  0
 19 46  1  0  0  0
 20 21  1  0  0  0
 20 47  1  0  0  0
 20 48  1  0  0  0
 21 27  1  0  0  0
 21 28  1  0  0  0
 22 23  1  0  0  0
 22 49  1  0  0  0
 23 24  2  0  0  0
 23 50  1  0  0  0
 24 25  1  0  0  0
 24 51  1  0  0  0
 25 26  2  0  0  0
 25 52  1  0  0  0
 26 53  1  0  0  0
 27 29  1  0  0  0
 27 54  1  0  0  0
 27 55  1  0  0  0
 28 56  1  0  0  0
 28 57  1  0  0  0
 28 58  1  0  0  0
 29 30  2  0  0  0
 29 33  1  0  0  0
 30 31  1  0  0  0
 30 59  1  0  0  0
 31 32  2  0  0  0
 31 34  1  0  0  0
 32 33  1  0  0  0
 34 60  1  0  0  0
 34 61  1  0  0  0
 34 62  1  0  0  0
M  END
> <s_m_entry_id>
41

> <s_m_entry_name>
dock_pv.40

> <s_m_Source_Path>
/home/csk/Desktop/cluster/DUD-E-result/kif11

> <s_m_Source_File>
dock_pv.maegz

> <i_m_Source_File_Index>
40

> <chembl_id>
CHEMBL246000

> <chembl_pref_name>
None

> <i_lp_mmshare_version>
53161

> <i_f3d_flags>
0

> <r_lp_tautomer_probability>
1

> <s_lp_Force_Field>
OPLS_2005

> <r_lp_Energy>
37.015954

> <b_lp_Chiralities_Consistent>
1

> <s_lp_Variant>
CHEMBL4581_lig223-1

> <s_i_glide_gridfile>
glide-grid_3cjo

> <i_i_glide_lignum>
340

> <i_i_glide_rotatable_bonds>
9

> <r_i_docking_score>
-9.06581378837108

> <r_i_glide_ligand_efficiency>
-0.266641582010914

> <r_i_glide_ligand_efficiency_sa>
-0.863815214778481

> <r_i_glide_ligand_efficiency_ln>
-2.00289255331465

> <r_i_glide_gscore>
-9.06581378837108

> <r_i_glide_lipo>
-4.99529216455488

> <r_i_glide_hbond>
0

> <r_i_glide_metal>
0

> <r_i_glide_rewards>
-1.8646548377251

> <r_i_glide_evdw>
-52.5460014343262

> <r_i_glide_ecoul>
-2.13439774513245

> <r_i_glide_erotb>
0.741592947395076

> <r_i_glide_esite>
0

> <r_i_glide_emodel>
-74.1842367971675

> <r_i_glide_energy>
-54.6803991794586

> <r_i_glide_einternal>
10.8208875656128

> <i_i_glide_confnum>
85

> <i_i_glide_posenum>
298

> <r_i_glide_eff_state_penalty>
0

> <s_user_duplicate_titles>
CHEMBL4581_lig223,415175

> <s_m_subgroup_title>
dock_pv

> <s_m_subgroupid>
dock_pv

> <b_m_subgroup_collapsed>
1

$$$$
CHEMBL4581_lig252
                    3D
 Schrodinger Suite 2021-1.
 36 38  0  0  1  0            999 V2000
   22.6299   15.1631  105.3494 C   0  0  0  0  0  0
   21.7272   16.2123  105.4809 C   0  0  0  0  0  0
   20.6947   16.1305  106.4141 C   0  0  0  0  0  0
   20.5533   15.0005  107.2416 C   0  0  0  0  0  0
   21.4997   13.9619  107.1151 C   0  0  0  0  0  0
   22.5056   14.0398  106.1589 C   0  0  0  0  0  0
   19.4495   14.9672  108.2296 C   0  0  0  0  0  0
   18.7826   15.9834  108.6108 N   0  0  0  0  0  0
   17.8145   15.6330  109.4965 N   0  0  0  0  0  0
   17.8267   14.1901  109.7658 C   0  0  1  0  0  0
   18.9601   13.7007  108.8871 C   0  0  0  0  0  0
   16.8579   16.5043  109.9130 C   0  0  0  0  0  0
   15.8713   16.1466  110.5593 O   0  0  0  0  0  0
   17.0106   17.9957  109.5894 C   0  0  0  0  0  0
   18.0150   13.8141  111.2356 C   0  0  0  0  0  0
   18.9302   14.5046  112.0378 C   0  0  0  0  0  0
   19.1178   14.1206  113.3589 C   0  0  0  0  0  0
   18.3897   13.0540  113.8796 C   0  0  0  0  0  0
   17.4795   12.3621  113.0865 C   0  0  0  0  0  0
   17.2995   12.7357  111.7592 C   0  0  0  0  0  0
   21.8397   17.3007  104.6883 F   0  0  0  0  0  0
   21.5180   12.8872  107.9363 F   0  0  0  0  0  0
   23.4134   15.2111  104.6085 H   0  0  0  0  0  0
   20.0085   16.9627  106.4858 H   0  0  0  0  0  0
   23.1892   13.2163  106.0541 H   0  0  0  0  0  0
   16.8644   13.7946  109.4286 H   0  0  0  0  0  0
   19.7484   13.2323  109.4784 H   0  0  0  0  0  0
   18.5814   12.9895  108.1590 H   0  0  0  0  0  0
   17.0572   18.1533  108.5104 H   0  0  0  0  0  0
   16.1652   18.5633  109.9831 H   0  0  0  0  0  0
   17.9235   18.3912  110.0397 H   0  0  0  0  0  0
   19.5056   15.3255  111.6362 H   0  0  0  0  0  0
   19.8283   14.6477  113.9784 H   0  0  0  0  0  0
   18.5306   12.7590  114.9097 H   0  0  0  0  0  0
   16.9037   11.5488  113.4996 H   0  0  0  0  0  0
   16.5971   12.1886  111.1459 H   0  0  0  0  0  0
  1  6  1  0  0  0
  1  2  2  0  0  0
  1 23  1  0  0  0
  2  3  1  0  0  0
  2 21  1  0  0  0
  3  4  2  0  0  0
  3 24  1  0  0  0
  4  7  1  0  0  0
  4  5  1  0  0  0
  5  6  2  0  0  0
  5 22  1  0  0  0
  6 25  1  0  0  0
  7 11  1  0  0  0
  7  8  2  0  0  0
  8  9  1  0  0  0
  9 12  1  0  0  0
  9 10  1  0  0  0
 10 11  1  0  0  0
 10 15  1  0  0  0
 10 26  1  0  0  0
 11 27  1  0  0  0
 11 28  1  0  0  0
 12 13  2  0  0  0
 12 14  1  0  0  0
 14 29  1  0  0  0
 14 30  1  0  0  0
 14 31  1  0  0  0
 15 16  2  0  0  0
 15 20  1  0  0  0
 16 17  1  0  0  0
 16 32  1  0  0  0
 17 18  2  0  0  0
 17 33  1  0  0  0
 18 19  1  0  0  0
 18 34  1  0  0  0
 19 20  2  0  0  0
 19 35  1  0  0  0
 20 36  1  0  0  0
M  END
> <s_m_entry_id>
42

> <s_m_entry_name>
dock_pv.41

> <s_m_Source_Path>
/home/csk/Desktop/cluster/DUD-E-result/kif11

> <s_m_Source_File>
dock_pv.maegz

> <i_m_Source_File_Index>
41

> <chembl_id>
CHEMBL228815

> <chembl_pref_name>
None

> <i_lp_mmshare_version>
53161

> <i_f3d_flags>
0

> <r_lp_tautomer_probability>
1

> <s_lp_Force_Field>
OPLS_2005

> <r_lp_Energy>
23.368358

> <b_lp_Chiralities_Consistent>
1

> <s_lp_Variant>
CHEMBL4581_lig252-1

> <s_i_glide_gridfile>
glide-grid_3cjo

> <i_i_glide_lignum>
377

> <i_i_glide_rotatable_bonds>
3

> <r_i_docking_score>
-9.06337382663762

> <r_i_glide_ligand_efficiency>
-0.411971537574437

> <r_i_glide_ligand_efficiency_sa>
-1.15436045020475

> <r_i_glide_ligand_efficiency_ln>
-2.2154191578231

> <r_i_glide_gscore>
-9.06337382663762

> <r_i_glide_lipo>
-4.1910552579569

> <r_i_glide_hbond>
0

> <r_i_glide_metal>
0

> <r_i_glide_rewards>
-2.97530228066802

> <r_i_glide_evdw>
-40.2359924316406

> <r_i_glide_ecoul>
-1.95220017433167

> <r_i_glide_erotb>
0.407613359719077

> <r_i_glide_esite>
0

> <r_i_glide_emodel>
-64.0155287649074

> <r_i_glide_energy>
-42.1881926059723

> <r_i_glide_einternal>
1.73452568054199

> <i_i_glide_confnum>
5

> <i_i_glide_posenum>
213

> <r_i_glide_eff_state_penalty>
0

> <s_user_duplicate_titles>
CHEMBL4581_lig252,CHEMBL4581_lig37,324506,385660

> <s_m_subgroup_title>
dock_pv

> <s_m_subgroupid>
dock_pv

> <b_m_subgroup_collapsed>
1

$$$$
CHEMBL4581_lig47
                    3D
 Schrodinger Suite 2021-1.
 37 39  0  0  1  0            999 V2000
   22.5583   15.0240  105.3597 C   0  0  0  0  0  0
   21.6577   16.0854  105.3796 C   0  0  0  0  0  0
   20.5788   16.0652  106.2611 C   0  0  0  0  0  0
   20.4129   15.0170  107.1796 C   0  0  0  0  0  0
   21.3671   13.9783  107.1919 C   0  0  0  0  0  0
   22.4036   13.9656  106.2561 C   0  0  0  0  0  0
   19.2855   15.0697  108.1395 C   0  0  0  0  0  0
   18.6485   16.3565  108.6169 C   0  0  0  0  0  0
   17.6540   15.9371  109.5907 N   0  0  0  0  0  0
   17.6564   14.4751  109.7289 C   0  0  1  0  0  0
   18.6926   14.0145  108.7275 C   0  0  0  0  0  0
   17.9599   13.9545  111.1394 C   0  0  0  0  0  0
   17.2951   12.8155  111.6010 C   0  0  0  0  0  0
   17.5054   12.3625  112.9019 C   0  0  0  0  0  0
   18.3956   13.0334  113.7346 C   0  0  0  0  0  0
   19.0811   14.1555  113.2781 C   0  0  0  0  0  0
   18.8621   14.6189  111.9824 C   0  0  0  0  0  0
   16.7976   16.7758  110.2200 C   0  0  0  0  0  0
   16.9585   18.2871  110.0231 C   0  0  0  0  0  0
   15.9005   16.3730  110.9589 O   0  0  0  0  0  0
   21.3454   13.0221  108.1515 F   0  0  0  0  0  0
   21.8236   17.1368  104.5455 F   0  0  0  0  0  0
   23.3817   15.0271  104.6587 H   0  0  0  0  0  0
   19.8848   16.8946  106.2373 H   0  0  0  0  0  0
   23.1158   13.1585  106.2577 H   0  0  0  0  0  0
   19.3594   17.0406  109.0724 H   0  0  0  0  0  0
   18.1750   16.9075  107.8019 H   0  0  0  0  0  0
   16.6701   14.1070  109.4409 H   0  0  0  0  0  0
   18.9114   12.9667  108.5651 H   0  0  0  0  0  0
   16.5916   12.2925  110.9646 H   0  0  0  0  0  0
   16.9603   11.5042  113.2679 H   0  0  0  0  0  0
   18.5512   12.6817  114.7466 H   0  0  0  0  0  0
   19.7730   14.6712  113.9297 H   0  0  0  0  0  0
   19.3878   15.4996  111.6375 H   0  0  0  0  0  0
   17.9661   18.6067  110.2896 H   0  0  0  0  0  0
   16.7616   18.5668  108.9885 H   0  0  0  0  0  0
   16.2600   18.8307  110.6617 H   0  0  0  0  0  0
  1  2  2  0  0  0
  1  6  1  0  0  0
  1 23  1  0  0  0
  2  3  1  0  0  0
  2 22  1  0  0  0
  3  4  2  0  0  0
  3 24  1  0  0  0
  4  5  1  0  0  0
  4  7  1  0  0  0
  5  6  2  0  0  0
  5 21  1  0  0  0
  6 25  1  0  0  0
  7  8  1  0  0  0
  7 11  2  0  0  0
  8  9  1  0  0  0
  8 26  1  0  0  0
  8 27  1  0  0  0
  9 10  1  0  0  0
  9 18  1  0  0  0
 10 11  1  0  0  0
 10 12  1  0  0  0
 10 28  1  0  0  0
 11 29  1  0  0  0
 12 13  2  0  0  0
 12 17  1  0  0  0
 13 14  1  0  0  0
 13 30  1  0  0  0
 14 15  2  0  0  0
 14 31  1  0  0  0
 15 16  1  0  0  0
 15 32  1  0  0  0
 16 17  2  0  0  0
 16 33  1  0  0  0
 17 34  1  0  0  0
 18 19  1  0  0  0
 18 20  2  0  0  0
 19 35  1  0  0  0
 19 36  1  0  0  0
 19 37  1  0  0  0
M  END
> <s_m_entry_id>
44

> <s_m_entry_name>
dock_pv.43

> <s_m_Source_Path>
/home/csk/Desktop/cluster/DUD-E-result/kif11

> <s_m_Source_File>
dock_pv.maegz

> <i_m_Source_File_Index>
43

> <chembl_id>
CHEMBL203181

> <chembl_pref_name>
None

> <i_lp_mmshare_version>
53161

> <i_f3d_flags>
0

> <r_lp_tautomer_probability>
1

> <s_lp_Force_Field>
OPLS_2005

> <r_lp_Energy>
27.460053

> <b_lp_Chiralities_Consistent>
1

> <s_lp_Variant>
CHEMBL4581_lig47-2

> <s_i_glide_gridfile>
glide-grid_3cjo

> <i_i_glide_lignum>
74

> <i_i_glide_rotatable_bonds>
3

> <r_i_docking_score>
-9.05753957151559

> <r_i_glide_ligand_efficiency>
-0.411706344159799

> <r_i_glide_ligand_efficiency_sa>
-1.15361736782747

> <r_i_glide_ligand_efficiency_ln>
-2.21399305306165

> <r_i_glide_gscore>
-9.05753957151559

> <r_i_glide_lipo>
-4.49401244568217

> <r_i_glide_hbond>
0

> <r_i_glide_metal>
0

> <r_i_glide_rewards>
-2.75421895064714

> <r_i_glide_evdw>
-38.9600448608398

> <r_i_glide_ecoul>
-1.80851185321808

> <r_i_glide_erotb>
0.409970845838424

> <r_i_glide_esite>
0

> <r_i_glide_emodel>
-63.1999256782836

> <r_i_glide_energy>
-40.7685567140579

> <r_i_glide_einternal>
0.760060966014862

> <i_i_glide_confnum>
3

> <i_i_glide_posenum>
389

> <r_i_glide_eff_state_penalty>
0

> <s_user_duplicate_titles>
CHEMBL4581_lig47

> <s_m_subgroup_title>
dock_pv

> <s_m_subgroupid>
dock_pv

> <b_m_subgroup_collapsed>
1

$$$$
CHEMBL4581_lig707
                    3D
 Schrodinger Suite 2021-1.
 55 58  0  0  1  0            999 V2000
   18.7178   17.0728  110.7604 C   0  0  0  0  0  0
   19.5055   15.8769  111.3330 C   0  0  0  0  0  0
   17.6846   14.4492  109.4432 C   0  0  0  0  0  0
   17.2945   16.9143  110.2263 C   0  0  0  0  0  0
   16.8067   15.7446  109.5749 C   0  0  0  0  0  0
   15.4650   15.7887  109.1294 C   0  0  0  0  0  0
   14.6588   16.9118  109.2715 C   0  0  0  0  0  0
   15.1634   18.0463  109.8824 C   0  0  0  0  0  0
   16.4681   18.0404  110.3506 C   0  0  0  0  0  0
   17.8757   13.9402  110.9090 C   0  0  0  0  0  0
   18.7514   14.6311  111.7872 C   0  0  0  0  0  0
   18.9410   14.1688  113.0957 C   0  0  0  0  0  0
   18.2781   13.0433  113.5680 C   0  0  0  0  0  0
   17.4112   12.3624  112.7273 C   0  0  0  0  0  0
   17.2137   12.8050  111.4224 C   0  0  0  0  0  0
   19.0249   14.5798  108.6617 C   0  0  0  0  0  0
   19.2421   15.6148  107.7409 C   0  0  0  0  0  0
   20.3409   15.5822  106.8862 C   0  0  0  0  0  0
   21.2636   14.5275  106.9591 C   0  0  0  0  0  0
   21.1178   13.5625  107.9549 C   0  0  0  0  0  0
   20.0064   13.5822  108.7947 C   0  0  0  0  0  0
   16.8242   13.1625  108.4039 S   0  0  0  0  0  0
   16.8630   13.8644  106.7162 C   0  0  0  0  0  0
   15.7360   13.3570  105.7990 C   0  0  1  0  0  0
   15.5735   14.2461  104.5472 C   0  0  0  0  0  0
   15.9209   11.9630  105.3589 N   0  0  0  0  0  0
   16.7179   14.3157  103.7998 O   0  0  0  0  0  0
   14.5281   14.8442  104.3022 O   0  0  0  0  0  0
   22.3790   14.3990  106.1570 O   0  0  0  0  0  0
   22.7021   15.4422  105.2475 C   0  0  0  0  0  0
   18.7022   17.8402  111.5369 H   0  0  0  0  0  0
   19.2921   17.5410  109.9636 H   0  0  0  0  0  0
   20.1092   16.2535  112.1582 H   0  0  0  0  0  0
   20.2630   15.5645  110.6235 H   0  0  0  0  0  0
   14.9903   14.9420  108.6624 H   0  0  0  0  0  0
   13.6410   16.8986  108.9091 H   0  0  0  0  0  0
   14.5473   18.9265  109.9973 H   0  0  0  0  0  0
   16.8412   18.9367  110.8254 H   0  0  0  0  0  0
   19.6126   14.6911  113.7614 H   0  0  0  0  0  0
   18.4302   12.7051  114.5833 H   0  0  0  0  0  0
   16.8706   11.5017  113.0904 H   0  0  0  0  0  0
   16.5173   12.2376  110.8247 H   0  0  0  0  0  0
   18.5237   16.4133  107.6290 H   0  0  0  0  0  0
   20.4493   16.3761  106.1634 H   0  0  0  0  0  0
   21.8446   12.7687  108.0418 H   0  0  0  0  0  0
   19.8722   12.7746  109.5007 H   0  0  0  0  0  0
   16.7884   14.9479  106.8046 H   0  0  0  0  0  0
   17.8383   13.6533  106.2761 H   0  0  0  0  0  0
   14.7939   13.4385  106.3440 H   0  0  0  0  0  0
   16.9057   11.7719  105.2217 H   0  0  0  0  0  0
   15.6558   11.3387  106.1206 H   0  0  0  0  0  0
   17.4093   13.7185  104.1241 H   0  0  0  0  0  0
   23.5629   15.1422  104.6525 H   0  0  0  0  0  0
   22.9615   16.3610  105.7757 H   0  0  0  0  0  0
   21.8880   15.6493  104.5564 H   0  0  0  0  0  0
  1  4  1  0  0  0
  1  2  1  0  0  0
  1 31  1  0  0  0
  1 32  1  0  0  0
  2 11  1  0  0  0
  2 33  1  0  0  0
  2 34  1  0  0  0
  3 10  1  0  0  0
  3  5  1  0  0  0
  3 16  1  0  0  0
  3 22  1  0  0  0
  4  5  2  0  0  0
  4  9  1  0  0  0
  5  6  1  0  0  0
  6  7  2  0  0  0
  6 35  1  0  0  0
  7  8  1  0  0  0
  7 36  1  0  0  0
  8  9  2  0  0  0
  8 37  1  0  0  0
  9 38  1  0  0  0
 10 11  2  0  0  0
 10 15  1  0  0  0
 11 12  1  0  0  0
 12 13  2  0  0  0
 12 39  1  0  0  0
 13 14  1  0  0  0
 13 40  1  0  0  0
 14 15  2  0  0  0
 14 41  1  0  0  0
 15 42  1  0  0  0
 16 17  2  0  0  0
 16 21  1  0  0  0
 17 18  1  0  0  0
 17 43  1  0  0  0
 18 19  2  0  0  0
 18 44  1  0  0  0
 19 20  1  0  0  0
 19 29  1  0  0  0
 20 21  2  0  0  0
 20 45  1  0  0  0
 21 46  1  0  0  0
 22 23  1  0  0  0
 23 24  1  0  0  0
 23 47  1  0  0  0
 23 48  1  0  0  0
 24 25  1  0  0  0
 24 26  1  0  0  0
 24 49  1  0  0  0
 25 27  1  0  0  0
 25 28  2  0  0  0
 26 50  1  0  0  0
 26 51  1  0  0  0
 27 52  1  0  0  0
 29 30  1  0  0  0
 30 53  1  0  0  0
 30 54  1  0  0  0
 30 55  1  0  0  0
M  END
> <s_m_entry_id>
45

> <s_m_entry_name>
dock_pv.44

> <s_m_Source_Path>
/home/csk/Desktop/cluster/DUD-E-result/kif11

> <s_m_Source_File>
dock_pv.maegz

> <i_m_Source_File_Index>
44

> <chembl_id>
CHEMBL3633366

> <chembl_pref_name>
None

> <i_lp_mmshare_version>
53161

> <i_f3d_flags>
0

> <r_lp_tautomer_probability>
1

> <s_lp_Force_Field>
OPLS_2005

> <r_lp_Energy>
41.743576

> <b_lp_Chiralities_Consistent>
1

> <s_lp_Variant>
CHEMBL4581_lig707-1

> <s_i_glide_gridfile>
glide-grid_3cjo

> <i_i_glide_lignum>
1050

> <i_i_glide_rotatable_bonds>
7

> <r_i_docking_score>
-9.05406050073586

> <r_i_glide_ligand_efficiency>
-0.301802016691195

> <r_i_glide_ligand_efficiency_sa>
-0.937769035562132

> <r_i_glide_ligand_efficiency_ln>
-2.05718119765774

> <r_i_glide_gscore>
-9.05406050073586

> <r_i_glide_lipo>
-5.02862404942414

> <r_i_glide_hbond>
-0.304

> <r_i_glide_metal>
0

> <r_i_glide_rewards>
-0.650033534175984

> <r_i_glide_evdw>
-43.5095863342285

> <r_i_glide_ecoul>
-9.63864040374756

> <r_i_glide_erotb>
0.562017094222818

> <r_i_glide_esite>
-0.0121446340850014

> <r_i_glide_emodel>
-81.1813151724224

> <r_i_glide_energy>
-53.1482267379761

> <r_i_glide_einternal>
4.39403772354126

> <i_i_glide_confnum>
149

> <i_i_glide_posenum>
11

> <r_i_glide_eff_state_penalty>
0

> <s_user_duplicate_titles>
CHEMBL4581_lig707

> <s_m_subgroup_title>
dock_pv

> <s_m_subgroupid>
dock_pv

> <b_m_subgroup_collapsed>
1

$$$$
CHEMBL4581_lig26
                    3D
 Schrodinger Suite 2021-1.
 37 39  0  0  1  0            999 V2000
   17.7637   15.5725  109.5396 N   0  0  0  0  0  0
   18.7180   15.9741  108.6597 N   0  0  0  0  0  0
   17.8086   14.1203  109.7645 C   0  0  1  0  0  0
   19.4069   14.9859  108.2509 C   0  0  0  0  0  0
   18.9733   13.6917  108.8935 C   0  0  0  0  0  0
   16.7702   16.4014  109.9559 C   0  0  0  0  0  0
   17.9641   13.7153  111.2305 C   0  0  0  0  0  0
   17.1180   12.7474  111.7843 C   0  0  0  0  0  0
   20.5082   15.0598  107.2690 C   0  0  0  0  0  0
   15.7771   15.9918  110.5590 O   0  0  0  0  0  0
   17.2268   12.4075  113.1345 C   0  0  0  0  0  0
   16.3180   11.5620  113.7152 O   0  0  0  0  0  0
   18.9557   14.3008  112.0256 C   0  0  0  0  0  0
   16.8836   17.9080  109.6880 C   0  0  0  0  0  0
   19.0929   13.9286  113.3590 C   0  0  0  0  0  0
   21.3556   13.9620  107.0665 C   0  0  0  0  0  0
   20.7379   16.2408  106.5453 C   0  0  0  0  0  0
   18.2257   12.9868  113.9147 C   0  0  0  0  0  0
   22.4066   14.0397  106.1590 C   0  0  0  0  0  0
   21.7935   16.3196  105.6396 C   0  0  0  0  0  0
   22.6210   15.2160  105.4471 C   0  0  0  0  0  0
   16.8689   13.7066  109.3885 H   0  0  0  0  0  0
   19.7887   13.2536  109.4715 H   0  0  0  0  0  0
   18.6275   12.9714  108.1590 H   0  0  0  0  0  0
   16.3443   12.2950  111.1809 H   0  0  0  0  0  0
   15.6592   11.2025  113.1028 H   0  0  0  0  0  0
   19.6224   15.0420  111.6084 H   0  0  0  0  0  0
   16.6115   18.1284  108.6560 H   0  0  0  0  0  0
   16.2180   18.4657  110.3473 H   0  0  0  0  0  0
   17.9001   18.2631  109.8623 H   0  0  0  0  0  0
   19.8621   14.3804  113.9679 H   0  0  0  0  0  0
   21.2240   13.0422  107.6155 H   0  0  0  0  0  0
   20.1060   17.1079  106.6826 H   0  0  0  0  0  0
   18.3144   12.7222  114.9588 H   0  0  0  0  0  0
   23.0487   13.1861  106.0022 H   0  0  0  0  0  0
   21.9648   17.2300  105.0843 H   0  0  0  0  0  0
   23.4335   15.2667  104.7381 H   0  0  0  0  0  0
  1  2  1  0  0  0
  1  3  1  0  0  0
  1  6  1  0  0  0
  2  4  2  0  0  0
  3  5  1  0  0  0
  3  7  1  0  0  0
  3 22  1  0  0  0
  4  9  1  0  0  0
  4  5  1  0  0  0
  5 23  1  0  0  0
  5 24  1  0  0  0
  6 10  2  0  0  0
  6 14  1  0  0  0
  7  8  1  0  0  0
  7 13  2  0  0  0
  8 11  2  0  0  0
  8 25  1  0  0  0
  9 16  1  0  0  0
  9 17  2  0  0  0
 11 12  1  0  0  0
 11 18  1  0  0  0
 12 26  1  0  0  0
 13 15  1  0  0  0
 13 27  1  0  0  0
 14 28  1  0  0  0
 14 29  1  0  0  0
 14 30  1  0  0  0
 15 18  2  0  0  0
 15 31  1  0  0  0
 16 19  2  0  0  0
 16 32  1  0  0  0
 17 20  1  0  0  0
 17 33  1  0  0  0
 18 34  1  0  0  0
 19 21  1  0  0  0
 19 35  1  0  0  0
 20 21  2  0  0  0
 20 36  1  0  0  0
 21 37  1  0  0  0
M  END
> <s_m_entry_id>
46

> <s_m_entry_name>
dock_pv.45

> <s_m_Source_Path>
/home/csk/Desktop/cluster/DUD-E-result/kif11

> <s_m_Source_File>
dock_pv.maegz

> <i_m_Source_File_Index>
45

> <chembl_id>
CHEMBL381219

> <chembl_pref_name>
None

> <i_lp_mmshare_version>
53161

> <i_f3d_flags>
0

> <r_lp_tautomer_probability>
0.999999999997365

> <s_lp_Force_Field>
OPLS_2005

> <r_lp_Energy>
22.576977

> <b_lp_Chiralities_Consistent>
1

> <s_lp_Variant>
CHEMBL4581_lig26-2

> <s_i_glide_gridfile>
glide-grid_3cjo

> <i_i_glide_lignum>
39

> <i_i_glide_rotatable_bonds>
4

> <r_i_docking_score>
-9.04595383310212

> <r_i_glide_ligand_efficiency>
-0.430759706338196

> <r_i_glide_ligand_efficiency_sa>
-1.18843336682121

> <r_i_glide_ligand_efficiency_ln>
-2.23659380616365

> <r_i_glide_gscore>
-9.04595383310212

> <r_i_glide_lipo>
-4.20336752509168

> <r_i_glide_hbond>
-0.32

> <r_i_glide_metal>
0

> <r_i_glide_rewards>
-2.26643393229127

> <r_i_glide_evdw>
-38.117244720459

> <r_i_glide_ecoul>
-5.39933633804321

> <r_i_glide_erotb>
0.459610311010261

> <r_i_glide_esite>
0

> <r_i_glide_emodel>
-66.4885778979618

> <r_i_glide_energy>
-43.5165810585022

> <r_i_glide_einternal>
0.302357614040375

> <i_i_glide_confnum>
7

> <i_i_glide_posenum>
45

> <r_i_glide_eff_state_penalty>
0

> <s_user_duplicate_titles>
CHEMBL4581_lig26

> <s_m_subgroup_title>
dock_pv

> <s_m_subgroupid>
dock_pv

> <b_m_subgroup_collapsed>
1

$$$$
CHEMBL4581_lig622
                    3D
 Schrodinger Suite 2021-1.
 51 53  0  0  1  0            999 V2000
   21.5002   16.4837  105.3526 C   0  0  0  0  0  0
   22.4522   15.4869  105.1807 C   0  0  0  0  0  0
   22.4269   14.3605  105.9873 C   0  0  0  0  0  0
   21.4426   14.2137  106.9592 C   0  0  0  0  0  0
   20.4447   15.2040  107.1323 C   0  0  0  0  0  0
   20.5052   16.3472  106.3171 C   0  0  0  0  0  0
   21.5180   17.5592  104.5417 F   0  0  0  0  0  0
   21.5274   13.1140  107.7411 F   0  0  0  0  0  0
   19.3576   15.1064  108.1410 C   0  0  0  0  0  0
   19.0646   13.5589  108.9598 S   0  0  0  0  0  0
   17.5998   14.1896  109.7435 C   0  0  2  0  0  0
   17.6816   15.6441  109.4541 N   0  0  0  0  0  0
   18.5810   16.0497  108.5055 N   0  0  0  0  0  0
   17.7810   13.8252  111.2406 C   0  0  0  0  0  0
   16.3569   13.4937  109.0591 C   0  0  0  0  0  0
   15.9664   13.8846  107.6057 C   0  0  0  0  0  0
   16.7824   13.1831  106.5036 C   0  0  0  0  0  0
   16.3178   13.5738  105.1901 N   0  0  0  0  0  0
   17.1205   12.7226  111.8069 C   0  0  0  0  0  0
   17.3477   12.3623  113.1317 C   0  0  0  0  0  0
   18.2510   13.0866  113.9009 C   0  0  0  0  0  0
   18.9229   14.1779  113.3585 C   0  0  0  0  0  0
   18.6830   14.5479  112.0390 C   0  0  0  0  0  0
   16.7625   16.5234  109.9573 C   0  0  0  0  0  0
   17.2182   17.7410  110.3895 N   0  0  0  0  0  0
   15.5754   16.1980  110.0877 O   0  0  0  0  0  0
   16.2852   18.6236  110.9557 O   0  0  0  0  0  0
   18.5773   18.0908  110.8166 C   0  0  0  0  0  0
   15.6492   19.4088  109.9524 C   0  0  0  0  0  0
   23.1904   15.5624  104.4012 H   0  0  0  0  0  0
   23.1663   13.5860  105.8527 H   0  0  0  0  0  0
   19.7753   17.1400  106.4132 H   0  0  0  0  0  0
   16.4754   12.4086  109.0833 H   0  0  0  0  0  0
   15.4824   13.6874  109.6792 H   0  0  0  0  0  0
   14.9180   13.6191  107.4600 H   0  0  0  0  0  0
   16.0080   14.9659  107.4769 H   0  0  0  0  0  0
   17.8379   13.4390  106.5566 H   0  0  0  0  0  0
   16.7119   12.0996  106.5903 H   0  0  0  0  0  0
   16.4261   14.5720  105.0885 H   0  0  0  0  0  0
   16.9773   13.1637  104.5328 H   0  0  0  0  0  0
   16.4226   12.1218  111.2423 H   0  0  0  0  0  0
   16.8153   11.5275  113.5593 H   0  0  0  0  0  0
   18.4318   12.7967  114.9268 H   0  0  0  0  0  0
   19.6349   14.7305  113.9524 H   0  0  0  0  0  0
   19.2379   15.3735  111.6215 H   0  0  0  0  0  0
   19.3379   17.8135  110.0950 H   0  0  0  0  0  0
   18.6928   19.1624  110.9581 H   0  0  0  0  0  0
   18.8230   17.6112  111.7593 H   0  0  0  0  0  0
   15.0011   20.1433  110.4320 H   0  0  0  0  0  0
   16.3714   19.9577  109.3455 H   0  0  0  0  0  0
   15.0256   18.8003  109.2937 H   0  0  0  0  0  0
  1  2  1  0  0  0
  1  6  2  0  0  0
  1  7  1  0  0  0
  2  3  2  0  0  0
  2 30  1  0  0  0
  3  4  1  0  0  0
  3 31  1  0  0  0
  4  5  2  0  0  0
  4  8  1  0  0  0
  5  6  1  0  0  0
  5  9  1  0  0  0
  6 32  1  0  0  0
  9 10  1  0  0  0
  9 13  2  0  0  0
 10 11  1  0  0  0
 11 12  1  0  0  0
 11 14  1  0  0  0
 11 15  1  0  0  0
 12 13  1  0  0  0
 12 24  1  0  0  0
 14 19  1  0  0  0
 14 23  2  0  0  0
 15 16  1  0  0  0
 15 33  1  0  0  0
 15 34  1  0  0  0
 16 17  1  0  0  0
 16 35  1  0  0  0
 16 36  1  0  0  0
 17 18  1  0  0  0
 17 37  1  0  0  0
 17 38  1  0  0  0
 18 39  1  0  0  0
 18 40  1  0  0  0
 19 20  2  0  0  0
 19 41  1  0  0  0
 20 21  1  0  0  0
 20 42  1  0  0  0
 21 22  2  0  0  0
 21 43  1  0  0  0
 22 23  1  0  0  0
 22 44  1  0  0  0
 23 45  1  0  0  0
 24 25  1  0  0  0
 24 26  2  0  0  0
 25 27  1  0  0  0
 25 28  1  0  0  0
 27 29  1  0  0  0
 28 46  1  0  0  0
 28 47  1  0  0  0
 28 48  1  0  0  0
 29 49  1  0  0  0
 29 50  1  0  0  0
 29 51  1  0  0  0
M  END
> <s_m_entry_id>
47

> <s_m_entry_name>
dock_pv.46

> <s_m_Source_Path>
/home/csk/Desktop/cluster/DUD-E-result/kif11

> <s_m_Source_File>
dock_pv.maegz

> <i_m_Source_File_Index>
46

> <chembl_id>
CHEMBL2347655

> <chembl_pref_name>
FILANESIB

> <i_lp_mmshare_version>
53161

> <i_f3d_flags>
0

> <r_lp_tautomer_probability>
1

> <s_lp_Force_Field>
OPLS_2005

> <r_lp_Energy>
33.94297

> <b_lp_Chiralities_Consistent>
1

> <s_lp_Variant>
CHEMBL4581_lig622-1

> <s_i_glide_gridfile>
glide-grid_3cjo

> <i_i_glide_lignum>
958

> <i_i_glide_rotatable_bonds>
8

> <r_i_docking_score>
-9.02328229507735

> <r_i_glide_ligand_efficiency>
-0.311147665347495

> <r_i_glide_ligand_efficiency_sa>
-0.955944206446995

> <r_i_glide_ligand_efficiency_ln>
-2.06610283487604

> <r_i_glide_gscore>
-9.02328229507735

> <r_i_glide_lipo>
-4.57654802405769

> <r_i_glide_hbond>
-0.121344307956065

> <r_i_glide_metal>
0

> <r_i_glide_rewards>
-2.07481808520419

> <r_i_glide_evdw>
-49.6606330871582

> <r_i_glide_ecoul>
-2.92824792861938

> <r_i_glide_erotb>
0.671696965791406

> <r_i_glide_esite>
0

> <r_i_glide_emodel>
-75.4888244773569

> <r_i_glide_energy>
-52.5888810157776

> <r_i_glide_einternal>
5.94763469696045

> <i_i_glide_confnum>
104

> <i_i_glide_posenum>
63

> <r_i_glide_eff_state_penalty>
0

> <s_user_duplicate_titles>
CHEMBL4581_lig622

> <s_m_subgroup_title>
dock_pv

> <s_m_subgroupid>
dock_pv

> <b_m_subgroup_collapsed>
1

$$$$
CHEMBL4581_lig24
                    3D
 Schrodinger Suite 2021-1.
 37 39  0  0  1  0            999 V2000
   17.9378   15.7805  109.5322 N   0  0  1  0  0  0
   18.7819   16.1475  108.5399 N   0  0  0  0  0  0
   16.6196   16.9097  109.8673 S   0  0  0  0  0  0
   19.4488   15.1473  108.1300 C   0  0  0  0  0  0
   17.8485   14.3174  109.6926 C   0  0  1  0  0  0
   19.0469   13.8898  108.8608 C   0  0  0  0  0  0
   20.5138   15.1963  107.1010 C   0  0  0  0  0  0
   15.9930   17.2920  108.5973 O   0  0  0  0  0  0
   15.8114   16.3598  110.9591 O   0  0  0  0  0  0
   21.4893   14.1856  106.9591 C   0  0  0  0  0  0
   20.6125   16.3359  106.2814 C   0  0  0  0  0  0
   17.9224   13.8312  111.1387 C   0  0  0  0  0  0
   22.5200   14.3282  106.0332 C   0  0  0  0  0  0
   17.5344   18.3948  110.5545 C   0  0  0  0  0  0
   21.6481   16.4669  105.3597 C   0  0  0  0  0  0
   21.5182   13.0952  107.7593 F   0  0  0  0  0  0
   22.6040   15.4651  105.2414 C   0  0  0  0  0  0
   21.7247   17.5613  104.5744 F   0  0  0  0  0  0
   18.7990   14.4307  112.0519 C   0  0  0  0  0  0
   17.1198   12.7613  111.5409 C   0  0  0  0  0  0
   18.8712   13.9606  113.3587 C   0  0  0  0  0  0
   17.1868   12.3007  112.8528 C   0  0  0  0  0  0
   18.0620   12.8989  113.7554 C   0  0  0  0  0  0
   16.9085   13.9782  109.2525 H   0  0  0  0  0  0
   19.8619   13.5022  109.4748 H   0  0  0  0  0  0
   18.7275   13.1260  108.1590 H   0  0  0  0  0  0
   19.8988   17.1445  106.3634 H   0  0  0  0  0  0
   23.2698   13.5603  105.9377 H   0  0  0  0  0  0
   16.8052   19.1621  110.8129 H   0  0  0  0  0  0
   18.0919   18.0909  111.4378 H   0  0  0  0  0  0
   18.2180   18.7619  109.7905 H   0  0  0  0  0  0
   23.4063   15.5616  104.5303 H   0  0  0  0  0  0
   19.4341   15.2504  111.7470 H   0  0  0  0  0  0
   16.4442   12.2844  110.8436 H   0  0  0  0  0  0
   19.5549   14.4148  114.0611 H   0  0  0  0  0  0
   16.5558   11.4819  113.1689 H   0  0  0  0  0  0
   18.1139   12.5353  114.7725 H   0  0  0  0  0  0
  1  2  1  0  0  0
  1  3  1  0  0  0
  1  5  1  0  0  0
  2  4  2  0  0  0
  3  8  2  0  0  0
  3  9  2  0  0  0
  3 14  1  0  0  0
  4  7  1  0  0  0
  4  6  1  0  0  0
  5  6  1  0  0  0
  5 12  1  0  0  0
  5 24  1  0  0  0
  6 25  1  0  0  0
  6 26  1  0  0  0
  7 10  2  0  0  0
  7 11  1  0  0  0
 10 13  1  0  0  0
 10 16  1  0  0  0
 11 15  2  0  0  0
 11 27  1  0  0  0
 12 19  1  0  0  0
 12 20  2  0  0  0
 13 17  2  0  0  0
 13 28  1  0  0  0
 14 29  1  0  0  0
 14 30  1  0  0  0
 14 31  1  0  0  0
 15 17  1  0  0  0
 15 18  1  0  0  0
 17 32  1  0  0  0
 19 21  2  0  0  0
 19 33  1  0  0  0
 20 22  1  0  0  0
 20 34  1  0  0  0
 21 23  1  0  0  0
 21 35  1  0  0  0
 22 23  2  0  0  0
 22 36  1  0  0  0
 23 37  1  0  0  0
M  END
> <s_m_entry_id>
48

> <s_m_entry_name>
dock_pv.47

> <s_m_Source_Path>
/home/csk/Desktop/cluster/DUD-E-result/kif11

> <s_m_Source_File>
dock_pv.maegz

> <i_m_Source_File_Index>
47

> <chembl_id>
CHEMBL365553

> <chembl_pref_name>
None

> <i_lp_mmshare_version>
53161

> <i_f3d_flags>
0

> <r_lp_tautomer_probability>
1

> <s_lp_Force_Field>
OPLS_2005

> <r_lp_Energy>
22.412278

> <b_lp_Chiralities_Consistent>
1

> <s_lp_Variant>
CHEMBL4581_lig24-2

> <s_i_glide_gridfile>
glide-grid_3cjo

> <i_i_glide_lignum>
35

> <i_i_glide_rotatable_bonds>
3

> <r_i_docking_score>
-9.00502028942731

> <r_i_glide_ligand_efficiency>
-0.391522621279448

> <r_i_glide_ligand_efficiency_sa>
-1.11343825335783

> <r_i_glide_ligand_efficiency_ln>
-2.17749555899308

> <r_i_glide_gscore>
-9.00502028942731

> <r_i_glide_lipo>
-4.25511175255926

> <r_i_glide_hbond>
0

> <r_i_glide_metal>
0

> <r_i_glide_rewards>
-2.73593422779335

> <r_i_glide_evdw>
-40.9120216369629

> <r_i_glide_ecoul>
-2.01482892036438

> <r_i_glide_erotb>
0.333851110828104

> <r_i_glide_esite>
0

> <r_i_glide_emodel>
-62.2007691950652

> <r_i_glide_energy>
-42.9268505573273

> <r_i_glide_einternal>
6.86325740814209

> <i_i_glide_confnum>
8

> <i_i_glide_posenum>
126

> <r_i_glide_eff_state_penalty>
0

> <s_user_duplicate_titles>
CHEMBL4581_lig24

> <s_m_subgroup_title>
dock_pv

> <s_m_subgroupid>
dock_pv

> <b_m_subgroup_collapsed>
1

$$$$
CHEMBL4581_lig225
                    3D
 Schrodinger Suite 2021-1.
 67 70  0  0  1  0            999 V2000
   22.3108   14.1344  106.3823 C   0  0  0  0  0  0
   21.6584   15.3546  106.1590 C   0  0  0  0  0  0
   20.5168   15.6692  106.8888 C   0  0  0  0  0  0
   20.0481   14.7954  107.8662 C   0  0  0  0  0  0
   20.7535   13.6256  108.1590 C   0  0  0  0  0  0
   21.8674   13.2874  107.3932 C   0  0  0  0  0  0
   20.3194   12.7848  109.1281 F   0  0  0  0  0  0
   18.9125   15.1067  108.5901 N   0  0  0  0  0  0
   18.7180   16.3834  109.1083 N   0  0  0  0  0  0
   17.6687   16.3547  109.8128 C   0  0  0  0  0  0
   17.0201   14.9550  109.9071 C   0  0  1  0  0  0
   17.6941   14.3513  108.6893 C   0  0  0  0  0  0
   17.2321   17.5261  110.5635 C   0  0  0  0  0  0
   16.0773   17.6953  110.9516 O   0  0  0  0  0  0
   18.3001   18.5383  110.9633 C   0  0  0  0  0  0
   17.4247   14.1394  111.1775 C   0  0  0  0  0  0
   15.4736   15.0536  109.7358 C   0  0  0  0  0  0
   14.6922   13.8996  109.0532 C   0  0  0  0  0  0
   13.9573   14.2697  107.7459 C   0  0  0  0  0  0
   14.9282   14.4753  106.6658 N   0  0  0  0  0  0
   18.3290   14.6283  112.1422 C   0  0  0  0  0  0
   18.6559   13.8786  113.2671 C   0  0  0  0  0  0
   18.0680   12.6363  113.4598 C   0  0  0  0  0  0
   17.1941   12.1205  112.5097 C   0  0  0  0  0  0
   16.9079   12.8480  111.3591 C   0  0  0  0  0  0
   14.9219   15.8400  106.1395 C   0  0  0  0  0  0
   16.0778   16.0641  105.1370 C   0  0  0  0  0  0
   16.0428   15.0096  104.0968 N   0  0  0  0  0  0
   15.8891   13.6032  104.5362 C   0  0  0  0  0  0
   14.7624   13.4962  105.5899 C   0  0  0  0  0  0
   16.5017   15.2513  102.8392 C   0  0  0  0  0  0
   16.6209   16.6962  102.3463 C   0  0  0  0  0  0
   16.7180   14.3619  102.0115 O   0  0  0  0  0  0
   22.1995   16.3439  105.1553 C   0  0  0  0  0  0
   21.2641   17.1623  104.6676 F   0  0  0  0  0  0
   22.7180   15.6463  104.1590 F   0  0  0  0  0  0
   23.1446   17.0732  105.7505 F   0  0  0  0  0  0
   23.1838   13.8602  105.8078 H   0  0  0  0  0  0
   19.9962   16.6008  106.7127 H   0  0  0  0  0  0
   22.3700   12.3620  107.5775 H   0  0  0  0  0  0
   17.1351   14.5532  107.7786 H   0  0  0  0  0  0
   17.8539   13.2721  108.7210 H   0  0  0  0  0  0
   19.1983   18.0422  111.3304 H   0  0  0  0  0  0
   18.5683   19.1616  110.1153 H   0  0  0  0  0  0
   17.9171   19.1617  111.7671 H   0  0  0  0  0  0
   15.1180   15.2152  110.7467 H   0  0  0  0  0  0
   15.2007   15.9651  109.2014 H   0  0  0  0  0  0
   15.3298   13.0395  108.8552 H   0  0  0  0  0  0
   13.9360   13.5616  109.7579 H   0  0  0  0  0  0
   13.2269   13.4951  107.5016 H   0  0  0  0  0  0
   13.3701   15.1752  107.9109 H   0  0  0  0  0  0
   18.8018   15.5923  112.0397 H   0  0  0  0  0  0
   19.3552   14.2667  113.9925 H   0  0  0  0  0  0
   18.2987   12.0678  114.3493 H   0  0  0  0  0  0
   16.7178   11.1655  112.6702 H   0  0  0  0  0  0
   16.2405   12.4000  110.6438 H   0  0  0  0  0  0
   13.9660   16.0048  105.6373 H   0  0  0  0  0  0
   14.9991   16.5610  106.9547 H   0  0  0  0  0  0
   15.9624   17.0746  104.7473 H   0  0  0  0  0  0
   17.0074   15.9867  105.7030 H   0  0  0  0  0  0
   16.8018   13.2794  105.0326 H   0  0  0  0  0  0
   15.6490   12.9236  103.7168 H   0  0  0  0  0  0
   14.7413   12.4853  106.0028 H   0  0  0  0  0  0
   13.7995   13.6866  105.1108 H   0  0  0  0  0  0
   17.5015   17.1681  102.7810 H   0  0  0  0  0  0
   16.7176   16.7220  101.2608 H   0  0  0  0  0  0
   15.7355   17.2786  102.6016 H   0  0  0  0  0  0
  1  6  1  0  0  0
  1  2  2  0  0  0
  1 38  1  0  0  0
  2  3  1  0  0  0
  2 34  1  0  0  0
  3  4  2  0  0  0
  3 39  1  0  0  0
  4  5  1  0  0  0
  4  8  1  0  0  0
  5  6  2  0  0  0
  5  7  1  0  0  0
  6 40  1  0  0  0
  8 12  1  0  0  0
  8  9  1  0  0  0
  9 10  2  0  0  0
 10 11  1  0  0  0
 10 13  1  0  0  0
 11 12  1  0  0  0
 11 16  1  0  0  0
 11 17  1  0  0  0
 12 41  1  0  0  0
 12 42  1  0  0  0
 13 14  2  0  0  0
 13 15  1  0  0  0
 15 43  1  0  0  0
 15 44  1  0  0  0
 15 45  1  0  0  0
 16 21  2  0  0  0
 16 25  1  0  0  0
 17 18  1  0  0  0
 17 46  1  0  0  0
 17 47  1  0  0  0
 18 19  1  0  0  0
 18 48  1  0  0  0
 18 49  1  0  0  0
 19 20  1  0  0  0
 19 50  1  0  0  0
 19 51  1  0  0  0
 20 26  1  0  0  0
 20 30  1  0  0  0
 21 22  1  0  0  0
 21 52  1  0  0  0
 22 23  2  0  0  0
 22 53  1  0  0  0
 23 24  1  0  0  0
 23 54  1  0  0  0
 24 25  2  0  0  0
 24 55  1  0  0  0
 25 56  1  0  0  0
 26 27  1  0  0  0
 26 57  1  0  0  0
 26 58  1  0  0  0
 27 28  1  0  0  0
 27 59  1  0  0  0
 27 60  1  0  0  0
 28 29  1  0  0  0
 28 31  1  0  0  0
 29 30  1  0  0  0
 29 61  1  0  0  0
 29 62  1  0  0  0
 30 63  1  0  0  0
 30 64  1  0  0  0
 31 32  1  0  0  0
 31 33  2  0  0  0
 32 65  1  0  0  0
 32 66  1  0  0  0
 32 67  1  0  0  0
 34 35  1  0  0  0
 34 36  1  0  0  0
 34 37  1  0  0  0
M  END
> <s_m_entry_id>
49

> <s_m_entry_name>
dock_pv.48

> <s_m_Source_Path>
/home/csk/Desktop/cluster/DUD-E-result/kif11

> <s_m_Source_File>
dock_pv.maegz

> <i_m_Source_File_Index>
48

> <chembl_id>
CHEMBL247594

> <chembl_pref_name>
None

> <i_lp_mmshare_version>
53161

> <i_f3d_flags>
0

> <r_lp_tautomer_probability>
1

> <s_lp_Force_Field>
OPLS_2005

> <r_lp_Energy>
66.288451

> <b_lp_Chiralities_Consistent>
1

> <s_lp_Variant>
CHEMBL4581_lig225-1

> <s_i_glide_gridfile>
glide-grid_3cjo

> <i_i_glide_lignum>
344

> <i_i_glide_rotatable_bonds>
9

> <r_i_docking_score>
-8.99450837991789

> <r_i_glide_ligand_efficiency>
-0.243094821078862

> <r_i_glide_ligand_efficiency_sa>
-0.810045873845944

> <r_i_glide_ligand_efficiency_ln>
-1.95069800641057

> <r_i_glide_gscore>
-8.99450837991789

> <r_i_glide_lipo>
-4.60247629906752

> <r_i_glide_hbond>
-0.32

> <r_i_glide_metal>
0

> <r_i_glide_rewards>
-1.84920057884876

> <r_i_glide_evdw>
-45.9361267089844

> <r_i_glide_ecoul>
-2.31805396080017

> <r_i_glide_erotb>
0.458308131871123

> <r_i_glide_esite>
-0.0366252043034844

> <r_i_glide_emodel>
-57.621870674869

> <r_i_glide_energy>
-48.2541806697845

> <r_i_glide_einternal>
19.4075393676758

> <i_i_glide_confnum>
22

> <i_i_glide_posenum>
189

> <r_i_glide_eff_state_penalty>
0

> <s_user_duplicate_titles>
CHEMBL4581_lig225,415204

> <s_m_subgroup_title>
dock_pv

> <s_m_subgroupid>
dock_pv

> <b_m_subgroup_collapsed>
1

$$$$
CHEMBL4581_lig50
                    3D
 Schrodinger Suite 2021-1.
 50 52  0  0  1  0            999 V2000
   22.6807   15.1418  105.3109 C   0  0  0  0  0  0
   21.7331   16.1589  105.3593 C   0  0  0  0  0  0
   20.6578   16.0716  106.2434 C   0  0  0  0  0  0
   20.5233   14.9833  107.1216 C   0  0  0  0  0  0
   21.5085   13.9697  107.0740 C   0  0  0  0  0  0
   22.5562   14.0445  106.1582 C   0  0  0  0  0  0
   19.3884   14.9716  108.0834 C   0  0  0  0  0  0
   18.5891   16.2019  108.4807 C   0  0  0  0  0  0
   17.6390   15.7312  109.4912 N   0  0  0  0  0  0
   17.7914   14.2827  109.6682 C   0  0  1  0  0  0
   18.9132   13.8957  108.7316 C   0  0  0  0  0  0
   18.0510   13.8276  111.1076 C   0  0  0  0  0  0
   17.3415   12.7362  111.6166 C   0  0  0  0  0  0
   17.5110   12.3561  112.9450 C   0  0  0  0  0  0
   18.3965   13.0561  113.7586 C   0  0  0  0  0  0
   19.1180   14.1340  113.2562 C   0  0  0  0  0  0
   18.9499   14.5203  111.9304 C   0  0  0  0  0  0
   16.7521   16.4716  110.2147 C   0  0  0  0  0  0
   17.0588   17.7539  110.5604 N   0  0  0  0  0  0
   15.6795   15.9666  110.5569 O   0  0  0  0  0  0
   21.5181   12.9418  107.9519 F   0  0  0  0  0  0
   21.8486   17.2269  104.5413 F   0  0  0  0  0  0
   16.0040   18.7036  110.9480 C   0  0  0  0  0  0
   18.4118   18.2725  110.7833 C   0  0  0  0  0  0
   15.5125   19.6222  109.8107 C   0  0  0  0  0  0
   14.2826   20.4676  110.2002 C   0  0  0  0  0  0
   14.4728   21.1638  111.4611 N   0  0  0  0  0  0
   23.5045   15.1940  104.6160 H   0  0  0  0  0  0
   19.9361   16.8766  106.2491 H   0  0  0  0  0  0
   23.2812   13.2523  106.1287 H   0  0  0  0  0  0
   18.0377   16.6132  107.6353 H   0  0  0  0  0  0
   19.2220   17.0088  108.8265 H   0  0  0  0  0  0
   16.8647   13.8106  109.3320 H   0  0  0  0  0  0
   19.2415   12.8710  108.6386 H   0  0  0  0  0  0
   16.6431   12.1943  110.9946 H   0  0  0  0  0  0
   16.9420   11.5306  113.3463 H   0  0  0  0  0  0
   18.5228   12.7608  114.7919 H   0  0  0  0  0  0
   19.8072   14.6734  113.8891 H   0  0  0  0  0  0
   19.5093   15.3568  111.5411 H   0  0  0  0  0  0
   16.3538   19.3323  111.7631 H   0  0  0  0  0  0
   15.1414   18.1747  111.3572 H   0  0  0  0  0  0
   19.1739   17.4947  110.7790 H   0  0  0  0  0  0
   18.6627   19.0240  110.0373 H   0  0  0  0  0  0
   18.4807   18.7532  111.7586 H   0  0  0  0  0  0
   15.2575   19.0215  108.9382 H   0  0  0  0  0  0
   16.3170   20.2863  109.4980 H   0  0  0  0  0  0
   13.4082   19.8231  110.2953 H   0  0  0  0  0  0
   14.0592   21.1930  109.4160 H   0  0  0  0  0  0
   15.2654   21.7992  111.4250 H   0  0  0  0  0  0
   13.6712   21.7412  111.6725 H   0  0  0  0  0  0
  1  6  1  0  0  0
  1  2  2  0  0  0
  1 28  1  0  0  0
  2 22  1  0  0  0
  2  3  1  0  0  0
  3  4  2  0  0  0
  3 29  1  0  0  0
  4  7  1  0  0  0
  4  5  1  0  0  0
  5  6  2  0  0  0
  5 21  1  0  0  0
  6 30  1  0  0  0
  7  8  1  0  0  0
  7 11  2  0  0  0
  8  9  1  0  0  0
  8 31  1  0  0  0
  8 32  1  0  0  0
  9 10  1  0  0  0
  9 18  1  0  0  0
 10 11  1  0  0  0
 10 12  1  0  0  0
 10 33  1  0  0  0
 11 34  1  0  0  0
 12 13  2  0  0  0
 12 17  1  0  0  0
 13 14  1  0  0  0
 13 35  1  0  0  0
 14 15  2  0  0  0
 14 36  1  0  0  0
 15 16  1  0  0  0
 15 37  1  0  0  0
 16 17  2  0  0  0
 16 38  1  0  0  0
 17 39  1  0  0  0
 18 19  1  0  0  0
 18 20  2  0  0  0
 19 23  1  0  0  0
 19 24  1  0  0  0
 23 25  1  0  0  0
 23 40  1  0  0  0
 23 41  1  0  0  0
 24 42  1  0  0  0
 24 43  1  0  0  0
 24 44  1  0  0  0
 25 26  1  0  0  0
 25 45  1  0  0  0
 25 46  1  0  0  0
 26 27  1  0  0  0
 26 47  1  0  0  0
 26 48  1  0  0  0
 27 49  1  0  0  0
 27 50  1  0  0  0
M  END
> <s_m_entry_id>
50

> <s_m_entry_name>
dock_pv.49

> <s_m_Source_Path>
/home/csk/Desktop/cluster/DUD-E-result/kif11

> <s_m_Source_File>
dock_pv.maegz

> <i_m_Source_File_Index>
49

> <chembl_id>
CHEMBL382587

> <chembl_pref_name>
None

> <i_lp_mmshare_version>
53161

> <i_f3d_flags>
0

> <r_lp_tautomer_probability>
1

> <s_lp_Force_Field>
OPLS_2005

> <r_lp_Energy>
55.759213

> <b_lp_Chiralities_Consistent>
1

> <s_lp_Variant>
CHEMBL4581_lig50-1

> <s_i_glide_gridfile>
glide-grid_3cjo

> <i_i_glide_lignum>
77

> <i_i_glide_rotatable_bonds>
7

> <r_i_docking_score>
-8.99091557930545

> <r_i_glide_ligand_efficiency>
-0.332996873307609

> <r_i_glide_ligand_efficiency_sa>
-0.998990618825325

> <r_i_glide_ligand_efficiency_ln>
-2.09293692003443

> <r_i_glide_gscore>
-8.99091557930545

> <r_i_glide_lipo>
-4.79699993687421

> <r_i_glide_hbond>
-0.0704729117760064

> <r_i_glide_metal>
0

> <r_i_glide_rewards>
-2.20827460661806

> <r_i_glide_evdw>
-44.3313407897949

> <r_i_glide_ecoul>
-3.58754372596741

> <r_i_glide_erotb>
0.839530474347677

> <r_i_glide_esite>
0

> <r_i_glide_emodel>
-72.1229304051728

> <r_i_glide_energy>
-47.9188845157623

> <r_i_glide_einternal>
4.07074213027954

> <i_i_glide_confnum>
29

> <i_i_glide_posenum>
39

> <r_i_glide_eff_state_penalty>
0

> <s_user_duplicate_titles>
CHEMBL4581_lig50,343225

> <s_m_subgroup_title>
dock_pv

> <s_m_subgroupid>
dock_pv

> <b_m_subgroup_collapsed>
1

$$$$
CHEMBL4581_lig23
                    3D
 Schrodinger Suite 2021-1.
 36 38  0  0  1  0            999 V2000
   17.8324   15.8528  109.2891 N   0  0  0  0  0  0
   18.9569   16.1010  108.5677 N   0  0  0  0  0  0
   19.4563   15.0373  108.0891 C   0  0  0  0  0  0
   17.7033   14.3999  109.5207 C   0  0  1  0  0  0
   18.7116   13.8137  108.5470 C   0  0  0  0  0  0
   20.5776   15.0081  107.1350 C   0  0  0  0  0  0
   16.9739   16.8942  109.5809 C   0  0  0  0  0  0
   21.5178   13.9620  107.0830 C   0  0  0  0  0  0
   15.4281   16.6915  110.1620 S   0  0  0  0  0  0
   20.7456   16.1057  106.2721 C   0  0  0  0  0  0
   17.9360   13.9575  110.9733 C   0  0  0  0  0  0
   22.5583   14.0060  106.1580 C   0  0  0  0  0  0
   21.8056   16.1527  105.3716 C   0  0  0  0  0  0
   21.5173   12.9394  107.9687 F   0  0  0  0  0  0
   22.7127   15.1006  105.3101 C   0  0  0  0  0  0
   21.9369   17.2106  104.5443 F   0  0  0  0  0  0
   17.5017   18.3092  109.3491 C   0  0  0  0  0  0
   18.7941   14.6616  111.8276 C   0  0  0  0  0  0
   17.2985   12.8008  111.4338 C   0  0  0  0  0  0
   17.5015   12.3625  112.7403 C   0  0  0  0  0  0
   19.0021   14.2193  113.1297 C   0  0  0  0  0  0
   18.3478   13.0759  113.5853 C   0  0  0  0  0  0
   16.6898   14.1091  109.2376 H   0  0  0  0  0  0
   19.3607   13.0854  109.0302 H   0  0  0  0  0  0
   18.2107   13.3431  107.6996 H   0  0  0  0  0  0
   20.0585   16.9394  106.2939 H   0  0  0  0  0  0
   23.2500   13.1825  106.1192 H   0  0  0  0  0  0
   23.5186   15.1313  104.5941 H   0  0  0  0  0  0
   18.4515   18.4448  109.8699 H   0  0  0  0  0  0
   17.6524   18.4828  108.2847 H   0  0  0  0  0  0
   16.8163   19.0760  109.7169 H   0  0  0  0  0  0
   19.3103   15.5463  111.4843 H   0  0  0  0  0  0
   16.6436   12.2389  110.7821 H   0  0  0  0  0  0
   16.9853   11.4875  113.1024 H   0  0  0  0  0  0
   19.6691   14.7587  113.7850 H   0  0  0  0  0  0
   18.5039   12.7368  114.5992 H   0  0  0  0  0  0
  1  2  1  0  0  0
  1  4  1  0  0  0
  1  7  1  0  0  0
  2  3  2  0  0  0
  3  6  1  0  0  0
  3  5  1  0  0  0
  4  5  1  0  0  0
  4 11  1  0  0  0
  4 23  1  0  0  0
  5 24  1  0  0  0
  5 25  1  0  0  0
  6  8  2  0  0  0
  6 10  1  0  0  0
  7  9  2  0  0  0
  7 17  1  0  0  0
  8 12  1  0  0  0
  8 14  1  0  0  0
 10 13  2  0  0  0
 10 26  1  0  0  0
 11 18  2  0  0  0
 11 19  1  0  0  0
 12 15  2  0  0  0
 12 27  1  0  0  0
 13 15  1  0  0  0
 13 16  1  0  0  0
 15 28  1  0  0  0
 17 29  1  0  0  0
 17 30  1  0  0  0
 17 31  1  0  0  0
 18 21  1  0  0  0
 18 32  1  0  0  0
 19 20  2  0  0  0
 19 33  1  0  0  0
 20 22  1  0  0  0
 20 34  1  0  0  0
 21 22  2  0  0  0
 21 35  1  0  0  0
 22 36  1  0  0  0
M  END
> <s_m_entry_id>
51

> <s_m_entry_name>
dock_pv.50

> <s_m_Source_Path>
/home/csk/Desktop/cluster/DUD-E-result/kif11

> <s_m_Source_File>
dock_pv.maegz

> <i_m_Source_File_Index>
50

> <chembl_id>
CHEMBL194980

> <chembl_pref_name>
None

> <i_lp_mmshare_version>
53161

> <i_f3d_flags>
0

> <r_lp_tautomer_probability>
1

> <s_lp_Force_Field>
OPLS_2005

> <r_lp_Energy>
26.883386

> <b_lp_Chiralities_Consistent>
1

> <s_lp_Variant>
CHEMBL4581_lig23-2

> <s_i_glide_gridfile>
glide-grid_3cjo

> <i_i_glide_lignum>
33

> <i_i_glide_rotatable_bonds>
3

> <r_i_docking_score>
-8.96863905663124

> <r_i_glide_ligand_efficiency>
-0.407665411665056

> <r_i_glide_ligand_efficiency_sa>
-1.14229451605635

> <r_i_glide_ligand_efficiency_ln>
-2.19226252449884

> <r_i_glide_gscore>
-8.96863905663124

> <r_i_glide_lipo>
-4.11860101135229

> <r_i_glide_hbond>
0

> <r_i_glide_metal>
0

> <r_i_glide_rewards>
-3.03319614795691

> <r_i_glide_evdw>
-39.9195556640625

> <r_i_glide_ecoul>
-1.28564763069153

> <r_i_glide_erotb>
0.371983030484808

> <r_i_glide_esite>
0

> <r_i_glide_emodel>
-61.1595149999169

> <r_i_glide_energy>
-41.205203294754

> <r_i_glide_einternal>
2.66922688484192

> <i_i_glide_confnum>
7

> <i_i_glide_posenum>
125

> <r_i_glide_eff_state_penalty>
0

> <s_user_duplicate_titles>
CHEMBL4581_lig23,325009

> <s_m_subgroup_title>
dock_pv

> <s_m_subgroupid>
dock_pv

> <b_m_subgroup_collapsed>
1

$$$$
CHEMBL4581_lig761
                    3D
 Schrodinger Suite 2021-1.
 40 43  0  0  1  0            999 V2000
   17.8595   14.6938  109.7547 C   0  0  1  0  0  0
   16.4319   14.1641  109.4965 C   0  0  0  0  0  0
   16.3027   12.6870  109.8625 C   0  0  0  0  0  0
   16.7179   12.4300  111.2353 N   0  0  0  0  0  0
   18.9200   13.8296  108.6035 S   0  0  0  0  0  0
   19.4929   15.3672  107.9290 C   0  0  0  0  0  0
   18.9042   16.4032  108.3826 N   0  0  0  0  0  0
   18.0124   16.1083  109.3693 N   0  0  0  0  0  0
   20.5773   15.3542  106.9212 C   0  0  0  0  0  0
   20.7253   16.4572  106.0637 C   0  0  0  0  0  0
   21.7658   16.5077  105.1365 C   0  0  0  0  0  0
   22.6705   15.4559  105.0453 C   0  0  0  0  0  0
   22.5476   14.3622  105.8883 C   0  0  0  0  0  0
   21.5180   14.3031  106.8245 C   0  0  0  0  0  0
   17.3312   17.0943  110.0291 C   0  0  0  0  0  0
   16.5533   16.8747  110.9591 O   0  0  0  0  0  0
   17.5176   18.5564  109.6291 C   0  0  0  0  0  0
   21.5204   13.2391  107.6634 F   0  0  0  0  0  0
   21.8846   17.5620  104.3036 F   0  0  0  0  0  0
   18.3075   14.3073  111.1780 C   0  0  0  0  0  0
   17.7242   13.1993  111.8313 C   0  0  0  0  0  0
   18.1291   12.8128  113.1047 C   0  0  0  0  0  0
   19.1178   13.5286  113.7590 C   0  0  0  0  0  0
   19.7044   14.6317  113.1480 C   0  0  0  0  0  0
   19.2985   15.0171  111.8723 C   0  0  0  0  0  0
   16.1430   14.3102  108.4541 H   0  0  0  0  0  0
   15.6957   14.7143  110.0816 H   0  0  0  0  0  0
   16.9416   12.0577  109.2398 H   0  0  0  0  0  0
   15.2758   12.3620  109.7489 H   0  0  0  0  0  0
   16.4856   11.5151  111.5964 H   0  0  0  0  0  0
   20.0382   17.2908  106.1105 H   0  0  0  0  0  0
   23.4604   15.4720  104.3155 H   0  0  0  0  0  0
   23.2641   13.5597  105.8221 H   0  0  0  0  0  0
   17.6821   18.6791  108.5595 H   0  0  0  0  0  0
   16.6371   19.1401  109.8980 H   0  0  0  0  0  0
   18.3698   18.9718  110.1641 H   0  0  0  0  0  0
   17.6785   11.9619  113.5931 H   0  0  0  0  0  0
   19.4342   13.2059  114.7391 H   0  0  0  0  0  0
   20.4950   15.1618  113.6545 H   0  0  0  0  0  0
   19.7806   15.8671  111.4102 H   0  0  0  0  0  0
  1  2  1  0  0  0
  1 20  1  0  0  0
  1  8  1  0  0  0
  1  5  1  0  0  0
  2  3  1  0  0  0
  2 26  1  0  0  0
  2 27  1  0  0  0
  3  4  1  0  0  0
  3 28  1  0  0  0
  3 29  1  0  0  0
  4 21  1  0  0  0
  4 30  1  0  0  0
  5  6  1  0  0  0
  6  7  2  0  0  0
  6  9  1  0  0  0
  7  8  1  0  0  0
  8 15  1  0  0  0
  9 10  2  0  0  0
  9 14  1  0  0  0
 10 11  1  0  0  0
 10 31  1  0  0  0
 11 12  2  0  0  0
 11 19  1  0  0  0
 12 13  1  0  0  0
 12 32  1  0  0  0
 13 14  2  0  0  0
 13 33  1  0  0  0
 14 18  1  0  0  0
 15 16  2  0  0  0
 15 17  1  0  0  0
 17 34  1  0  0  0
 17 35  1  0  0  0
 17 36  1  0  0  0
 20 21  2  0  0  0
 20 25  1  0  0  0
 21 22  1  0  0  0
 22 23  2  0  0  0
 22 37  1  0  0  0
 23 24  1  0  0  0
 23 38  1  0  0  0
 24 25  2  0  0  0
 24 39  1  0  0  0
 25 40  1  0  0  0
M  END
> <s_m_entry_id>
52

> <s_m_entry_name>
dock_pv.51

> <s_m_Source_Path>
/home/csk/Desktop/cluster/DUD-E-result/kif11

> <s_m_Source_File>
dock_pv.maegz

> <i_m_Source_File_Index>
51

> <chembl_id>
CHEMBL3402340

> <chembl_pref_name>
None

> <i_lp_mmshare_version>
53161

> <i_f3d_flags>
0

> <r_lp_tautomer_probability>
1

> <s_lp_Force_Field>
OPLS_2005

> <r_lp_Energy>
22.284552

> <b_lp_Chiralities_Consistent>
1

> <s_lp_Variant>
CHEMBL4581_lig761-2

> <s_i_glide_gridfile>
glide-grid_3cjo

> <i_i_glide_lignum>
1128

> <i_i_glide_rotatable_bonds>
2

> <r_i_docking_score>
-8.96072006496206

> <r_i_glide_ligand_efficiency>
-0.358428802598482

> <r_i_glide_ligand_efficiency_sa>
-1.04805217555984

> <r_i_glide_ligand_efficiency_ln>
-2.12395918650722

> <r_i_glide_gscore>
-8.96072006496206

> <r_i_glide_lipo>
-4.22652410670401

> <r_i_glide_hbond>
-0.0531099637053109

> <r_i_glide_metal>
0

> <r_i_glide_rewards>
-2.64446366929192

> <r_i_glide_evdw>
-40.3740234375

> <r_i_glide_ecoul>
-1.10875308513641

> <r_i_glide_erotb>
0.148391809384639

> <r_i_glide_esite>
0

> <r_i_glide_emodel>
-61.5971051208074

> <r_i_glide_energy>
-41.4827765226364

> <r_i_glide_einternal>
0.387950420379639

> <i_i_glide_confnum>
7

> <i_i_glide_posenum>
274

> <r_i_glide_eff_state_penalty>
0

> <s_user_duplicate_titles>
CHEMBL4581_lig761

> <s_m_subgroup_title>
dock_pv

> <s_m_subgroupid>
dock_pv

> <b_m_subgroup_collapsed>
1

$$$$
CHEMBL4581_lig232
                    3D
 Schrodinger Suite 2021-1.
 66 70  0  0  1  0            999 V2000
   22.6391   15.0026  105.5123 C   0  0  0  0  0  0
   21.7638   16.0850  105.4181 C   0  0  0  0  0  0
   20.5991   16.1109  106.1836 C   0  0  0  0  0  0
   22.3754   13.9621  106.4073 C   0  0  0  0  0  0
   21.2462   14.0202  107.2233 C   0  0  0  0  0  0
   20.3179   15.0673  107.0739 C   0  0  0  0  0  0
   20.1535   13.2734  109.1898 C   0  0  0  0  0  0
   21.1180   13.0145  108.1596 O   0  0  0  0  0  0
   19.1217   14.9912  107.8032 N   0  0  0  0  0  0
   18.6797   16.1699  108.4211 N   0  0  0  0  0  0
   17.9030   15.8663  109.3842 C   0  0  0  0  0  0
   17.7310   14.3398  109.6236 C   0  0  2  0  0  0
   16.3206   13.8208  109.1273 C   0  0  0  0  0  0
   17.2097   16.8908  110.1705 C   0  0  0  0  0  0
   16.2925   16.6241  110.9463 O   0  0  0  0  0  0
   17.9962   13.8895  111.1016 C   0  0  0  0  0  0
   18.8953   14.5900  111.9280 C   0  0  0  0  0  0
   19.1176   14.1983  113.2432 C   0  0  0  0  0  0
   18.4379   13.1006  113.7590 C   0  0  0  0  0  0
   17.5644   12.3762  112.9580 C   0  0  0  0  0  0
   17.3629   12.7536  111.6356 C   0  0  0  0  0  0
   15.7981   14.3792  107.7780 C   0  0  0  0  0  0
   14.9139   13.4212  106.9376 C   0  0  0  0  0  0
   17.6804   18.3444  110.0510 C   0  0  0  0  0  0
   22.0279   17.1000  104.5642 F   0  0  0  0  0  0
   14.8433   13.8449  105.5338 N   0  0  2  0  0  0
   16.0533   13.5200  104.7714 C   0  0  0  0  0  0
   16.0073   13.7366  103.2512 C   0  0  0  0  0  0
   14.2219   15.1571  105.3386 C   0  0  0  0  0  0
   16.1061   15.1898  102.7579 C   0  0  0  0  0  0
   13.9096   15.5715  103.8879 C   0  0  0  0  0  0
   15.0724   16.0062  103.0998 N   0  0  0  0  0  0
   17.1180   15.5560  102.1584 O   0  0  0  0  0  0
   15.1038   17.4100  102.6698 C   0  0  0  0  0  0
   18.8159   13.8383  108.6321 C   0  0  2  0  0  0
   18.3783   13.0604  108.0071 H   0  0  0  0  0  0
   23.5227   14.9734  104.8933 H   0  0  0  0  0  0
   19.9117   16.9366  106.0743 H   0  0  0  0  0  0
   23.0640   13.1355  106.4928 H   0  0  0  0  0  0
   19.9606   12.3619  109.7412 H   0  0  0  0  0  0
   20.6005   13.9678  109.8902 H   0  0  0  0  0  0
   16.3655   12.7358  109.0294 H   0  0  0  0  0  0
   15.5637   14.0141  109.8902 H   0  0  0  0  0  0
   19.4357   15.4488  111.5576 H   0  0  0  0  0  0
   19.8122   14.7475  113.8600 H   0  0  0  0  0  0
   18.5977   12.7962  114.7844 H   0  0  0  0  0  0
   17.0378   11.5229  113.3586 H   0  0  0  0  0  0
   16.6833   12.1504  111.0548 H   0  0  0  0  0  0
   15.1838   15.2431  108.0375 H   0  0  0  0  0  0
   16.5872   14.8020  107.1608 H   0  0  0  0  0  0
   15.2504   12.3797  107.0047 H   0  0  0  0  0  0
   13.9022   13.4103  107.3470 H   0  0  0  0  0  0
   17.5984   18.6927  109.0212 H   0  0  0  0  0  0
   17.0728   18.9942  110.6801 H   0  0  0  0  0  0
   18.7189   18.4369  110.3696 H   0  0  0  0  0  0
   16.9450   13.9985  105.1809 H   0  0  0  0  0  0
   16.2235   12.4536  104.9340 H   0  0  0  0  0  0
   16.8014   13.1556  102.7901 H   0  0  0  0  0  0
   15.0853   13.3059  102.8621 H   0  0  0  0  0  0
   13.3485   15.3016  105.9768 H   0  0  0  0  0  0
   14.9518   15.8946  105.6719 H   0  0  0  0  0  0
   13.3435   14.7903  103.3776 H   0  0  0  0  0  0
   13.2237   16.4188  103.9366 H   0  0  0  0  0  0
   15.9866   17.6786  102.0876 H   0  0  0  0  0  0
   14.2290   17.6291  102.0564 H   0  0  0  0  0  0
   15.0762   18.0675  103.5386 H   0  0  0  0  0  0
  1  4  1  0  0  0
  1  2  2  0  0  0
  1 37  1  0  0  0
  2  3  1  0  0  0
  2 25  1  0  0  0
  3  6  2  0  0  0
  3 38  1  0  0  0
  4  5  2  0  0  0
  4 39  1  0  0  0
  5  6  1  0  0  0
  5  8  1  0  0  0
  6  9  1  0  0  0
  7 35  1  0  0  0
  7  8  1  0  0  0
  7 40  1  0  0  0
  7 41  1  0  0  0
  9 35  1  0  0  0
  9 10  1  0  0  0
 10 11  2  0  0  0
 11 12  1  0  0  0
 11 14  1  0  0  0
 12 16  1  0  0  0
 12 35  1  0  0  0
 12 13  1  0  0  0
 13 22  1  0  0  0
 13 42  1  0  0  0
 13 43  1  0  0  0
 14 24  1  0  0  0
 14 15  2  0  0  0
 16 17  2  0  0  0
 16 21  1  0  0  0
 17 18  1  0  0  0
 17 44  1  0  0  0
 18 19  2  0  0  0
 18 45  1  0  0  0
 19 20  1  0  0  0
 19 46  1  0  0  0
 20 21  2  0  0  0
 20 47  1  0  0  0
 21 48  1  0  0  0
 22 23  1  0  0  0
 22 49  1  0  0  0
 22 50  1  0  0  0
 23 26  1  0  0  0
 23 51  1  0  0  0
 23 52  1  0  0  0
 24 53  1  0  0  0
 24 54  1  0  0  0
 24 55  1  0  0  0
 26 27  1  0  0  0
 26 29  1  0  0  0
 27 28  1  0  0  0
 27 56  1  0  0  0
 27 57  1  0  0  0
 28 30  1  0  0  0
 28 58  1  0  0  0
 28 59  1  0  0  0
 29 31  1  0  0  0
 29 60  1  0  0  0
 29 61  1  0  0  0
 30 32  1  0  0  0
 30 33  2  0  0  0
 31 32  1  0  0  0
 31 62  1  0  0  0
 31 63  1  0  0  0
 32 34  1  0  0  0
 34 64  1  0  0  0
 34 65  1  0  0  0
 34 66  1  0  0  0
 35 36  1  0  0  0
M  END
> <s_m_entry_id>
53

> <s_m_entry_name>
dock_pv.52

> <s_m_Source_Path>
/home/csk/Desktop/cluster/DUD-E-result/kif11

> <s_m_Source_File>
dock_pv.maegz

> <i_m_Source_File_Index>
52

> <chembl_id>
CHEMBL251142

> <chembl_pref_name>
None

> <i_lp_mmshare_version>
53161

> <i_f3d_flags>
0

> <r_lp_tautomer_probability>
1

> <s_lp_Force_Field>
OPLS_2005

> <r_lp_Energy>
61.2963

> <b_lp_Chiralities_Consistent>
1

> <s_lp_Variant>
CHEMBL4581_lig232-1

> <s_i_glide_gridfile>
glide-grid_3cjo

> <i_i_glide_lignum>
355

> <i_i_glide_rotatable_bonds>
6

> <r_i_docking_score>
-8.95407872032816

> <r_i_glide_ligand_efficiency>
-0.255830820580804

> <r_i_glide_ligand_efficiency_sa>
-0.836839577318019

> <r_i_glide_ligand_efficiency_ln>
-1.9656190041822

> <r_i_glide_gscore>
-8.95407872032816

> <r_i_glide_lipo>
-4.80484511818243

> <r_i_glide_hbond>
-0.0384757607655608

> <r_i_glide_metal>
0

> <r_i_glide_rewards>
-1.37970750677116

> <r_i_glide_evdw>
-51.2291030883789

> <r_i_glide_ecoul>
-4.0074987411499

> <r_i_glide_erotb>
0.442439477015577

> <r_i_glide_esite>
-0.0109098460331556

> <r_i_glide_emodel>
-79.3703823707787

> <r_i_glide_energy>
-55.2366018295288

> <r_i_glide_einternal>
9.83905124664307

> <i_i_glide_confnum>
22

> <i_i_glide_posenum>
298

> <r_i_glide_eff_state_penalty>
0

> <s_user_duplicate_titles>
CHEMBL4581_lig232

> <s_m_subgroup_title>
dock_pv

> <s_m_subgroupid>
dock_pv

> <b_m_subgroup_collapsed>
1

$$$$
CHEMBL4581_lig240
                    3D
 Schrodinger Suite 2021-1.
 60 64  0  0  1  0            999 V2000
   22.6295   15.3661  105.3590 C   0  0  0  0  0  0
   21.7187   16.4221  105.3306 C   0  0  0  0  0  0
   20.5562   16.3619  106.0946 C   0  0  0  0  0  0
   22.3955   14.2636  106.1778 C   0  0  0  0  0  0
   21.2655   14.2343  106.9993 C   0  0  0  0  0  0
   20.3112   15.2618  106.9255 C   0  0  0  0  0  0
   20.2122   13.3393  108.9517 C   0  0  0  0  0  0
   21.1573   13.1695  107.8792 O   0  0  0  0  0  0
   18.8566   13.9316  108.4566 C   0  0  2  0  0  0
   19.1307   15.1226  107.6677 N   0  0  0  0  0  0
   18.6967   16.2699  108.3437 N   0  0  0  0  0  0
   17.9229   15.9213  109.2915 C   0  0  0  0  0  0
   17.7766   14.3884  109.4810 C   0  0  1  0  0  0
   16.3281   13.9180  109.0167 C   0  0  0  0  0  0
   17.2134   16.9158  110.1091 C   0  0  0  0  0  0
   16.3759   16.6092  110.9583 O   0  0  0  0  0  0
   18.0910   13.9295  110.9556 C   0  0  0  0  0  0
   18.9783   14.6650  111.7694 C   0  0  0  0  0  0
   19.2171   14.3091  113.0924 C   0  0  0  0  0  0
   18.5904   13.1932  113.6323 C   0  0  0  0  0  0
   17.7446   12.4240  112.8452 C   0  0  0  0  0  0
   17.5174   12.7719  111.5171 C   0  0  0  0  0  0
   15.9209   13.9253  107.5094 C   0  0  0  0  0  0
   15.7814   15.2903  106.7890 C   0  0  0  0  0  0
   17.5534   18.3950  109.9108 C   0  0  0  0  0  0
   21.9431   17.4891  104.5331 F   0  0  0  0  0  0
   15.6702   15.2423  105.3215 N   0  0  0  0  0  0
   15.6375   16.6231  104.8068 C   0  0  0  0  0  0
   15.6750   16.7061  103.2640 C   0  0  0  0  0  0
   16.7818   15.9678  102.7543 O   0  0  0  0  0  0
   16.6888   14.5960  103.1182 C   0  0  0  0  0  0
   16.7181   14.4471  104.6550 C   0  0  0  0  0  0
   18.4310   13.1639  107.8138 H   0  0  0  0  0  0
   23.5169   15.4003  104.7474 H   0  0  0  0  0  0
   19.8443   17.1724  106.0366 H   0  0  0  0  0  0
   23.1107   13.4559  106.2090 H   0  0  0  0  0  0
   20.0421   12.3661  109.4062 H   0  0  0  0  0  0
   20.6600   13.9830  109.7065 H   0  0  0  0  0  0
   16.1933   12.8693  109.2594 H   0  0  0  0  0  0
   15.5640   14.4378  109.5973 H   0  0  0  0  0  0
   19.4898   15.5374  111.3903 H   0  0  0  0  0  0
   19.8918   14.8932  113.6992 H   0  0  0  0  0  0
   18.7668   12.9166  114.6620 H   0  0  0  0  0  0
   17.2564   11.5604  113.2669 H   0  0  0  0  0  0
   16.8700   12.1116  110.9658 H   0  0  0  0  0  0
   16.5067   13.2022  106.9498 H   0  0  0  0  0  0
   14.9183   13.4952  107.4896 H   0  0  0  0  0  0
   14.8714   15.7630  107.1659 H   0  0  0  0  0  0
   16.5753   15.9700  107.0679 H   0  0  0  0  0  0
   17.3885   18.6892  108.8728 H   0  0  0  0  0  0
   16.9266   19.0198  110.5461 H   0  0  0  0  0  0
   18.5971   18.5878  110.1649 H   0  0  0  0  0  0
   14.7615   17.1425  105.1971 H   0  0  0  0  0  0
   16.5035   17.1621  105.1920 H   0  0  0  0  0  0
   15.7745   17.7463  102.9508 H   0  0  0  0  0  0
   14.7387   16.3443  102.8322 H   0  0  0  0  0  0
   17.5181   14.0559  102.6654 H   0  0  0  0  0  0
   15.7798   14.1504  102.7076 H   0  0  0  0  0  0
   17.6972   14.7627  105.0203 H   0  0  0  0  0  0
   16.6283   13.3914  104.9064 H   0  0  0  0  0  0
  1  4  1  0  0  0
  1  2  2  0  0  0
  1 34  1  0  0  0
  2  3  1  0  0  0
  2 26  1  0  0  0
  3  6  2  0  0  0
  3 35  1  0  0  0
  4  5  2  0  0  0
  4 36  1  0  0  0
  5  8  1  0  0  0
  5  6  1  0  0  0
  6 10  1  0  0  0
  7  9  1  0  0  0
  7  8  1  0  0  0
  7 37  1  0  0  0
  7 38  1  0  0  0
  9 10  1  0  0  0
  9 13  1  0  0  0
  9 33  1  0  0  0
 10 11  1  0  0  0
 11 12  2  0  0  0
 12 15  1  0  0  0
 12 13  1  0  0  0
 13 17  1  0  0  0
 13 14  1  0  0  0
 14 23  1  0  0  0
 14 39  1  0  0  0
 14 40  1  0  0  0
 15 16  2  0  0  0
 15 25  1  0  0  0
 17 18  2  0  0  0
 17 22  1  0  0  0
 18 19  1  0  0  0
 18 41  1  0  0  0
 19 20  2  0  0  0
 19 42  1  0  0  0
 20 21  1  0  0  0
 20 43  1  0  0  0
 21 22  2  0  0  0
 21 44  1  0  0  0
 22 45  1  0  0  0
 23 24  1  0  0  0
 23 46  1  0  0  0
 23 47  1  0  0  0
 24 27  1  0  0  0
 24 48  1  0  0  0
 24 49  1  0  0  0
 25 50  1  0  0  0
 25 51  1  0  0  0
 25 52  1  0  0  0
 27 28  1  0  0  0
 27 32  1  0  0  0
 28 29  1  0  0  0
 28 53  1  0  0  0
 28 54  1  0  0  0
 29 30  1  0  0  0
 29 55  1  0  0  0
 29 56  1  0  0  0
 30 31  1  0  0  0
 31 32  1  0  0  0
 31 57  1  0  0  0
 31 58  1  0  0  0
 32 59  1  0  0  0
 32 60  1  0  0  0
M  END
> <s_m_entry_id>
54

> <s_m_entry_name>
dock_pv.53

> <s_m_Source_Path>
/home/csk/Desktop/cluster/DUD-E-result/kif11

> <s_m_Source_File>
dock_pv.maegz

> <i_m_Source_File_Index>
53

> <chembl_id>
CHEMBL398478

> <chembl_pref_name>
None

> <i_lp_mmshare_version>
53161

> <i_f3d_flags>
0

> <r_lp_tautomer_probability>
1

> <s_lp_Force_Field>
OPLS_2005

> <r_lp_Energy>
58.133646

> <b_lp_Chiralities_Consistent>
1

> <s_lp_Variant>
CHEMBL4581_lig240-1

> <s_i_glide_gridfile>
glide-grid_3cjo

> <i_i_glide_lignum>
364

> <i_i_glide_rotatable_bonds>
6

> <r_i_docking_score>
-8.94916150306145

> <r_i_glide_ligand_efficiency>
-0.27966129697067

> <r_i_glide_ligand_efficiency_sa>
-0.88786927298636

> <r_i_glide_ligand_efficiency_ln>
-2.00396120546468

> <r_i_glide_gscore>
-8.94916150306145

> <r_i_glide_lipo>
-4.81580787942345

> <r_i_glide_hbond>
0

> <r_i_glide_metal>
0

> <r_i_glide_rewards>
-1.67699289804299

> <r_i_glide_evdw>
-49.3206253051758

> <r_i_glide_ecoul>
-2.71374917030334

> <r_i_glide_erotb>
0.41673291520928

> <r_i_glide_esite>
0

> <r_i_glide_emodel>
-77.8172859072816

> <r_i_glide_energy>
-52.0343744754791

> <r_i_glide_einternal>
3.83880114555359

> <i_i_glide_confnum>
6

> <i_i_glide_posenum>
59

> <r_i_glide_eff_state_penalty>
0

> <s_user_duplicate_titles>
CHEMBL4581_lig240,414282

> <s_m_subgroup_title>
dock_pv

> <s_m_subgroupid>
dock_pv

> <b_m_subgroup_collapsed>
1

$$$$
CHEMBL4581_lig454
                    3D
 Schrodinger Suite 2021-1.
 56 58  0  0  1  0            999 V2000
   17.7594   14.4193  109.7534 C   0  0  0  0  0  0
   16.6760   13.1626  108.8990 S   0  0  0  0  0  0
   17.0109   15.7800  109.9483 C   0  0  0  0  0  0
   19.0233   14.5137  108.8517 C   0  0  0  0  0  0
   18.0997   13.9230  111.1958 C   0  0  0  0  0  0
   19.1198   15.5041  107.8640 C   0  0  0  0  0  0
   20.1579   15.4984  106.9478 C   0  0  0  0  0  0
   21.1532   14.5218  107.0161 C   0  0  0  0  0  0
   21.1186   13.5773  108.0483 C   0  0  0  0  0  0
   20.0580   13.5699  108.9556 C   0  0  0  0  0  0
   17.7361   16.9657  110.1709 C   0  0  0  0  0  0
   17.0892   18.1815  110.3713 C   0  0  0  0  0  0
   15.6992   18.2326  110.3556 C   0  0  0  0  0  0
   14.9559   17.0771  110.1404 C   0  0  0  0  0  0
   15.6086   15.8633  109.9370 C   0  0  0  0  0  0
   17.4209   12.8562  111.8182 C   0  0  0  0  0  0
   17.7255   12.4704  113.1173 C   0  0  0  0  0  0
   18.7175   13.1410  113.8190 C   0  0  0  0  0  0
   19.4131   14.1910  113.2290 C   0  0  0  0  0  0
   19.1152   14.5670  111.9227 C   0  0  0  0  0  0
   16.7284   13.3320  107.0767 C   0  0  0  0  0  0
   15.3784   13.7771  106.4716 C   0  0  1  0  0  0
   15.5259   14.1190  104.9657 C   0  0  0  0  0  0
   16.1765   15.3090  104.7870 O   0  0  0  0  0  0
   15.1045   13.3980  104.0584 O   0  0  0  0  0  0
   14.3164   12.7623  106.6417 N   0  0  0  0  0  0
   22.3108   14.4750  106.0145 C   0  0  0  0  0  0
   22.4443   15.6760  105.0507 C   0  0  0  0  0  0
   22.9383   16.9664  105.7162 C   0  0  0  0  0  0
   18.3462   16.2451  107.7373 H   0  0  0  0  0  0
   20.1534   16.2579  106.1833 H   0  0  0  0  0  0
   21.8899   12.8261  108.1229 H   0  0  0  0  0  0
   20.0140   12.7913  109.7044 H   0  0  0  0  0  0
   18.8146   16.9564  110.1954 H   0  0  0  0  0  0
   17.6577   19.0815  110.5476 H   0  0  0  0  0  0
   15.1958   19.1744  110.5189 H   0  0  0  0  0  0
   13.8761   17.1231  110.1350 H   0  0  0  0  0  0
   15.0061   14.9837  109.7835 H   0  0  0  0  0  0
   16.6266   12.3115  111.3336 H   0  0  0  0  0  0
   17.1837   11.6569  113.5777 H   0  0  0  0  0  0
   18.9518   12.8394  114.8303 H   0  0  0  0  0  0
   20.1888   14.7063  113.7769 H   0  0  0  0  0  0
   19.6779   15.3749  111.4803 H   0  0  0  0  0  0
   17.5265   13.9875  106.7520 H   0  0  0  0  0  0
   17.0022   12.3537  106.6781 H   0  0  0  0  0  0
   15.0666   14.6960  106.9699 H   0  0  0  0  0  0
   16.4280   15.7224  105.6152 H   0  0  0  0  0  0
   13.8803   12.5623  105.7495 H   0  0  0  0  0  0
   14.7224   11.8816  106.9621 H   0  0  0  0  0  0
   23.2476   14.3599  106.5608 H   0  0  0  0  0  0
   22.1985   13.5641  105.4284 H   0  0  0  0  0  0
   23.1219   15.4107  104.2426 H   0  0  0  0  0  0
   21.4979   15.8732  104.5593 H   0  0  0  0  0  0
   23.0103   17.7680  104.9834 H   0  0  0  0  0  0
   22.2715   17.2955  106.5124 H   0  0  0  0  0  0
   23.9267   16.8291  106.1413 H   0  0  0  0  0  0
  1  4  1  0  0  0
  1  5  1  0  0  0
  1  3  1  0  0  0
  1  2  1  0  0  0
  2 21  1  0  0  0
  3 15  1  0  0  0
  3 11  2  0  0  0
  4 10  1  0  0  0
  4  6  2  0  0  0
  5 16  2  0  0  0
  5 20  1  0  0  0
  6  7  1  0  0  0
  6 30  1  0  0  0
  7  8  2  0  0  0
  7 31  1  0  0  0
  8  9  1  0  0  0
  8 27  1  0  0  0
  9 10  2  0  0  0
  9 32  1  0  0  0
 10 33  1  0  0  0
 11 12  1  0  0  0
 11 34  1  0  0  0
 12 13  2  0  0  0
 12 35  1  0  0  0
 13 14  1  0  0  0
 13 36  1  0  0  0
 14 15  2  0  0  0
 14 37  1  0  0  0
 15 38  1  0  0  0
 16 17  1  0  0  0
 16 39  1  0  0  0
 17 18  2  0  0  0
 17 40  1  0  0  0
 18 19  1  0  0  0
 18 41  1  0  0  0
 19 20  2  0  0  0
 19 42  1  0  0  0
 20 43  1  0  0  0
 21 22  1  0  0  0
 21 44  1  0  0  0
 21 45  1  0  0  0
 22 23  1  0  0  0
 22 26  1  0  0  0
 22 46  1  0  0  0
 23 24  1  0  0  0
 23 25  2  0  0  0
 24 47  1  0  0  0
 26 48  1  0  0  0
 26 49  1  0  0  0
 27 28  1  0  0  0
 27 50  1  0  0  0
 27 51  1  0  0  0
 28 29  1  0  0  0
 28 52  1  0  0  0
 28 53  1  0  0  0
 29 54  1  0  0  0
 29 55  1  0  0  0
 29 56  1  0  0  0
M  END
> <s_m_entry_id>
55

> <s_m_entry_name>
dock_pv.54

> <s_m_Source_Path>
/home/csk/Desktop/cluster/DUD-E-result/kif11

> <s_m_Source_File>
dock_pv.maegz

> <i_m_Source_File_Index>
54

> <chembl_id>
CHEMBL1688922

> <chembl_pref_name>
None

> <i_lp_mmshare_version>
53161

> <i_f3d_flags>
0

> <r_lp_tautomer_probability>
1

> <s_lp_Force_Field>
OPLS_2005

> <r_lp_Energy>
23.103105

> <b_lp_Chiralities_Consistent>
1

> <s_lp_Variant>
CHEMBL4581_lig454-1

> <s_i_glide_gridfile>
glide-grid_3cjo

> <i_i_glide_lignum>
677

> <i_i_glide_rotatable_bonds>
10

> <r_i_docking_score>
-8.93053775291711

> <r_i_glide_ligand_efficiency>
-0.307949577686797

> <r_i_glide_ligand_efficiency_sa>
-0.946118667928043

> <r_i_glide_ligand_efficiency_ln>
-2.04486668652001

> <r_i_glide_gscore>
-8.93053775291711

> <r_i_glide_lipo>
-5.6627304192789

> <r_i_glide_hbond>
-0.32

> <r_i_glide_metal>
0

> <r_i_glide_rewards>
-0.82728756060606

> <r_i_glide_evdw>
-47.7374725341797

> <r_i_glide_ecoul>
-4.53114891052246

> <r_i_glide_erotb>
0.955962877327065

> <r_i_glide_esite>
-0.00993668707186461

> <r_i_glide_emodel>
-73.8049862938992

> <r_i_glide_energy>
-52.2686214447021

> <r_i_glide_einternal>
12.5672731399536

> <i_i_glide_confnum>
55

> <i_i_glide_posenum>
50

> <r_i_glide_eff_state_penalty>
0

> <s_user_duplicate_titles>
CHEMBL4581_lig454

> <s_m_subgroup_title>
dock_pv

> <s_m_subgroupid>
dock_pv

> <b_m_subgroup_collapsed>
1

$$$$
CHEMBL4581_lig214
                    3D
 Schrodinger Suite 2021-1.
 56 58  0  0  1  0            999 V2000
   18.5237   16.2406  108.4270 C   0  0  0  0  0  0
   17.6325   15.7519  109.4789 N   0  0  0  0  0  0
   17.7245   14.2741  109.5625 C   0  0  1  0  0  0
   18.9461   13.9620  108.7109 C   0  0  0  0  0  0
   19.3688   15.0480  108.0399 C   0  0  0  0  0  0
   20.4998   15.1217  107.0763 C   0  0  0  0  0  0
   21.5098   14.1402  106.9897 C   0  0  0  0  0  0
   22.5904   14.3085  106.1297 C   0  0  0  0  0  0
   22.6827   15.4416  105.3302 C   0  0  0  0  0  0
   21.6908   16.4145  105.3870 C   0  0  0  0  0  0
   20.6074   16.2504  106.2469 C   0  0  0  0  0  0
   21.7784   17.5158  104.6082 F   0  0  0  0  0  0
   21.5180   13.0570  107.7982 F   0  0  0  0  0  0
   16.7140   16.5244  110.1319 C   0  0  0  0  0  0
   17.0101   17.8370  110.3270 N   0  0  0  0  0  0
   15.6461   16.0527  110.5308 O   0  0  0  0  0  0
   18.3209   18.3232  110.7678 C   0  0  0  0  0  0
   15.9612   18.8548  110.3903 C   0  0  0  0  0  0
   17.9852   13.8041  111.0222 C   0  0  0  0  0  0
   17.3005   12.7188  111.5929 C   0  0  0  0  0  0
   17.5177   12.3622  112.9208 C   0  0  0  0  0  0
   18.4207   13.0798  113.6963 C   0  0  0  0  0  0
   19.1179   14.1510  113.1486 C   0  0  0  0  0  0
   16.4803   13.5819  108.8939 C   0  0  0  0  0  0
   18.9049   14.5055  111.8200 C   0  0  0  0  0  0
   16.1365   14.0274  107.4469 C   0  0  0  0  0  0
   14.8332   13.4188  106.8856 C   0  0  2  0  0  0
   14.7470   13.5131  105.3435 C   0  0  0  0  0  0
   13.6876   14.0741  107.5067 N   0  0  0  0  0  0
   13.6683   12.9085  104.8417 F   0  0  0  0  0  0
   14.7987   14.7607  104.8705 F   0  0  0  0  0  0
   19.1394   17.0688  108.7655 H   0  0  0  0  0  0
   17.9426   16.6248  107.5882 H   0  0  0  0  0  0
   19.3311   12.9564  108.6456 H   0  0  0  0  0  0
   23.3658   13.5618  106.0861 H   0  0  0  0  0  0
   23.5177   15.5589  104.6604 H   0  0  0  0  0  0
   19.8654   17.0346  106.2770 H   0  0  0  0  0  0
   19.0739   17.5374  110.8291 H   0  0  0  0  0  0
   18.6889   19.0996  110.0989 H   0  0  0  0  0  0
   18.2375   18.7602  111.7608 H   0  0  0  0  0  0
   15.0009   18.4847  110.0280 H   0  0  0  0  0  0
   15.8254   19.1998  111.4155 H   0  0  0  0  0  0
   16.2350   19.7132  109.7763 H   0  0  0  0  0  0
   16.5814   12.1403  111.0340 H   0  0  0  0  0  0
   16.9679   11.5392  113.3512 H   0  0  0  0  0  0
   18.5816   12.7988  114.7274 H   0  0  0  0  0  0
   19.8248   14.7035  113.7502 H   0  0  0  0  0  0
   16.6415   12.5025  108.8655 H   0  0  0  0  0  0
   15.6040   13.7281  109.5253 H   0  0  0  0  0  0
   19.4575   15.3373  111.4094 H   0  0  0  0  0  0
   16.0779   15.1151  107.3792 H   0  0  0  0  0  0
   16.9656   13.7398  106.7979 H   0  0  0  0  0  0
   14.7903   12.3621  107.1434 H   0  0  0  0  0  0
   15.6001   12.9996  104.8978 H   0  0  0  0  0  0
   12.8254   13.6512  107.1915 H   0  0  0  0  0  0
   13.7204   13.9904  108.5126 H   0  0  0  0  0  0
  1  5  1  0  0  0
  1  2  1  0  0  0
  1 32  1  0  0  0
  1 33  1  0  0  0
  2  3  1  0  0  0
  2 14  1  0  0  0
  3  4  1  0  0  0
  3 19  1  0  0  0
  3 24  1  0  0  0
  4  5  2  0  0  0
  4 34  1  0  0  0
  5  6  1  0  0  0
  6 11  1  0  0  0
  6  7  2  0  0  0
  7  8  1  0  0  0
  7 13  1  0  0  0
  8  9  2  0  0  0
  8 35  1  0  0  0
  9 10  1  0  0  0
  9 36  1  0  0  0
 10 11  2  0  0  0
 10 12  1  0  0  0
 11 37  1  0  0  0
 14 15  1  0  0  0
 14 16  2  0  0  0
 15 17  1  0  0  0
 15 18  1  0  0  0
 17 38  1  0  0  0
 17 39  1  0  0  0
 17 40  1  0  0  0
 18 41  1  0  0  0
 18 42  1  0  0  0
 18 43  1  0  0  0
 19 20  2  0  0  0
 19 25  1  0  0  0
 20 21  1  0  0  0
 20 44  1  0  0  0
 21 22  2  0  0  0
 21 45  1  0  0  0
 22 23  1  0  0  0
 22 46  1  0  0  0
 23 25  2  0  0  0
 23 47  1  0  0  0
 24 26  1  0  0  0
 24 48  1  0  0  0
 24 49  1  0  0  0
 25 50  1  0  0  0
 26 27  1  0  0  0
 26 51  1  0  0  0
 26 52  1  0  0  0
 27 28  1  0  0  0
 27 29  1  0  0  0
 27 53  1  0  0  0
 28 30  1  0  0  0
 28 31  1  0  0  0
 28 54  1  0  0  0
 29 55  1  0  0  0
 29 56  1  0  0  0
M  END
> <s_m_entry_id>
56

> <s_m_entry_name>
dock_pv.55

> <s_m_Source_Path>
/home/csk/Desktop/cluster/DUD-E-result/kif11

> <s_m_Source_File>
dock_pv.maegz

> <i_m_Source_File_Index>
55

> <chembl_id>
CHEMBL240923

> <chembl_pref_name>
None

> <i_lp_mmshare_version>
53161

> <i_f3d_flags>
0

> <r_lp_tautomer_probability>
1

> <s_lp_Force_Field>
OPLS_2005

> <r_lp_Energy>
64.370103

> <b_lp_Chiralities_Consistent>
1

> <s_lp_Variant>
CHEMBL4581_lig214-1

> <s_i_glide_gridfile>
glide-grid_3cjo

> <i_i_glide_lignum>
322

> <i_i_glide_rotatable_bonds>
8

> <r_i_docking_score>
-8.9249434475519

> <r_i_glide_ligand_efficiency>
-0.287901401533932

> <r_i_glide_ligand_efficiency_sa>
-0.904407891539818

> <r_i_glide_ligand_efficiency_ln>
-2.01284826409151

> <r_i_glide_gscore>
-8.9249434475519

> <r_i_glide_lipo>
-4.93402059209293

> <r_i_glide_hbond>
0

> <r_i_glide_metal>
0

> <r_i_glide_rewards>
-1.78885542972926

> <r_i_glide_evdw>
-47.5466537475586

> <r_i_glide_ecoul>
-3.03452157974243

> <r_i_glide_erotb>
0.630443498609591

> <r_i_glide_esite>
0

> <r_i_glide_emodel>
-72.7327622270125

> <r_i_glide_energy>
-50.581175327301

> <r_i_glide_einternal>
4.47798013687134

> <i_i_glide_confnum>
82

> <i_i_glide_posenum>
102

> <r_i_glide_eff_state_penalty>
0

> <s_user_duplicate_titles>
CHEMBL4581_lig214,402132

> <s_m_subgroup_title>
dock_pv

> <s_m_subgroupid>
dock_pv

> <b_m_subgroup_collapsed>
1

$$$$
CHEMBL4581_lig720
                    3D
 Schrodinger Suite 2021-1.
 73 76  0  0  1  0            999 V2000
   14.2324   18.9921  110.4611 C   0  0  0  0  0  0
   14.5251   17.7975  109.7374 O   0  0  0  0  0  0
   15.8807   17.4714  109.3946 C   0  0  0  0  0  0
   16.4882   18.6386  108.5777 C   0  0  0  0  0  0
   16.6893   17.2710  110.7033 C   0  0  0  0  0  0
   15.7673   16.1123  108.5985 C   0  0  1  0  0  0
   14.8804   16.1533  107.3839 N   0  0  0  0  0  0
   15.4417   16.7458  106.1444 C   0  0  0  0  0  0
   15.3500   15.8161  104.8986 C   0  0  2  0  0  0
   16.0354   14.4574  105.0536 C   0  0  0  0  0  0
   16.3179   13.9493  103.7183 N   0  0  1  0  0  0
   16.3146   15.0965  102.8120 C   0  0  0  0  0  0
   16.0082   16.3587  103.6359 C   0  0  2  0  0  0
   17.1773   16.9186  103.9435 F   0  0  0  0  0  0
   13.5197   15.9750  107.4152 C   0  0  0  0  0  0
   12.7818   16.5654  106.6188 O   0  0  0  0  0  0
   12.7921   14.9773  108.3571 C   0  0  2  0  0  0
   12.0348   15.6820  109.4972 C   0  0  0  0  0  0
   13.6466   13.9650  108.8574 O   0  0  0  0  0  0
   17.1309   15.4373  108.3254 C   0  0  0  0  0  0
   18.1123   15.9525  107.6227 N   0  0  0  0  0  0
   19.0689   15.0330  107.6552 C   0  0  0  0  0  0
   18.7826   13.9617  108.3563 N   0  0  0  0  0  0
   17.5514   14.2161  108.7955 N   0  0  0  0  0  0
   16.9577   13.2926  109.7511 C   0  0  0  0  0  0
   17.5917   13.2852  111.1429 C   0  0  0  0  0  0
   17.1114   12.3622  112.0692 C   0  0  0  0  0  0
   17.5743   12.3589  113.3802 C   0  0  0  0  0  0
   18.6049   13.2107  113.7589 C   0  0  0  0  0  0
   19.1228   14.1147  112.8354 C   0  0  0  0  0  0
   20.1424   14.9244  113.1904 F   0  0  0  0  0  0
   18.6100   14.1676  111.5387 C   0  0  0  0  0  0
   20.3673   15.1843  106.9143 C   0  0  0  0  0  0
   20.5530   16.3245  106.1140 C   0  0  0  0  0  0
   21.7008   16.4754  105.3433 C   0  0  0  0  0  0
   21.8534   17.5608  104.5539 F   0  0  0  0  0  0
   22.6717   15.4827  105.3482 C   0  0  0  0  0  0
   22.5207   14.3605  106.1473 C   0  0  0  0  0  0
   21.3968   14.2211  106.9579 C   0  0  0  0  0  0
   21.3577   13.1587  107.7963 F   0  0  0  0  0  0
   13.1566   19.0409  110.6357 H   0  0  0  0  0  0
   14.7117   19.0158  111.4389 H   0  0  0  0  0  0
   14.5044   19.8922  109.9087 H   0  0  0  0  0  0
   17.4643   18.3946  108.1671 H   0  0  0  0  0  0
   15.8359   18.9303  107.7566 H   0  0  0  0  0  0
   16.6322   19.5270  109.1921 H   0  0  0  0  0  0
   17.7139   16.9600  110.4995 H   0  0  0  0  0  0
   16.7655   18.1881  111.2882 H   0  0  0  0  0  0
   16.2314   16.5145  111.3415 H   0  0  0  0  0  0
   15.2690   15.4949  109.3351 H   0  0  0  0  0  0
   16.4741   17.0470  106.2857 H   0  0  0  0  0  0
   14.9242   17.6843  105.9327 H   0  0  0  0  0  0
   14.2960   15.6319  104.6867 H   0  0  0  0  0  0
   15.4092   13.7621  105.6117 H   0  0  0  0  0  0
   16.9562   14.5463  105.6271 H   0  0  0  0  0  0
   17.2440   13.5098  103.7555 H   0  0  0  0  0  0
   17.2689   15.1832  102.2825 H   0  0  0  0  0  0
   15.5303   14.9365  102.0643 H   0  0  0  0  0  0
   15.4047   17.0990  103.1104 H   0  0  0  0  0  0
   12.0506   14.4605  107.7466 H   0  0  0  0  0  0
   11.3002   16.3914  109.1110 H   0  0  0  0  0  0
   11.4996   14.9575  110.1097 H   0  0  0  0  0  0
   12.7037   16.2339  110.1539 H   0  0  0  0  0  0
   13.9468   13.4299  108.1181 H   0  0  0  0  0  0
   15.9014   13.5109  109.8547 H   0  0  0  0  0  0
   17.0260   12.2894  109.3222 H   0  0  0  0  0  0
   16.3250   11.6759  111.7879 H   0  0  0  0  0  0
   17.1319   11.6799  114.0932 H   0  0  0  0  0  0
   19.0011   13.1629  114.7647 H   0  0  0  0  0  0
   19.0228   14.8928  110.8531 H   0  0  0  0  0  0
   19.7999   17.0991  106.0640 H   0  0  0  0  0  0
   23.5223   15.5622  104.7005 H   0  0  0  0  0  0
   23.2835   13.5987  106.1555 H   0  0  0  0  0  0
  1  2  1  0  0  0
  1 41  1  0  0  0
  1 42  1  0  0  0
  1 43  1  0  0  0
  2  3  1  0  0  0
  3  4  1  0  0  0
  3  5  1  0  0  0
  3  6  1  0  0  0
  4 44  1  0  0  0
  4 45  1  0  0  0
  4 46  1  0  0  0
  5 47  1  0  0  0
  5 48  1  0  0  0
  5 49  1  0  0  0
  6  7  1  0  0  0
  6 20  1  0  0  0
  6 50  1  0  0  0
  7  8  1  0  0  0
  7 15  1  0  0  0
  8  9  1  0  0  0
  8 51  1  0  0  0
  8 52  1  0  0  0
  9 10  1  0  0  0
  9 13  1  0  0  0
  9 53  1  0  0  0
 10 11  1  0  0  0
 10 54  1  0  0  0
 10 55  1  0  0  0
 11 12  1  0  0  0
 11 56  1  0  0  0
 12 13  1  0  0  0
 12 57  1  0  0  0
 12 58  1  0  0  0
 13 14  1  0  0  0
 13 59  1  0  0  0
 15 16  2  0  0  0
 15 17  1  0  0  0
 17 18  1  0  0  0
 17 19  1  0  0  0
 17 60  1  0  0  0
 18 61  1  0  0  0
 18 62  1  0  0  0
 18 63  1  0  0  0
 19 64  1  0  0  0
 20 21  2  0  0  0
 20 24  1  0  0  0
 21 22  1  0  0  0
 22 23  2  0  0  0
 22 33  1  0  0  0
 23 24  1  0  0  0
 24 25  1  0  0  0
 25 26  1  0  0  0
 25 65  1  0  0  0
 25 66  1  0  0  0
 26 27  2  0  0  0
 26 32  1  0  0  0
 27 28  1  0  0  0
 27 67  1  0  0  0
 28 29  2  0  0  0
 28 68  1  0  0  0
 29 30  1  0  0  0
 29 69  1  0  0  0
 30 31  1  0  0  0
 30 32  2  0  0  0
 32 70  1  0  0  0
 33 34  2  0  0  0
 33 39  1  0  0  0
 34 35  1  0  0  0
 34 71  1  0  0  0
 35 36  1  0  0  0
 35 37  2  0  0  0
 37 38  1  0  0  0
 37 72  1  0  0  0
 38 39  2  0  0  0
 38 73  1  0  0  0
 39 40  1  0  0  0
M  END
> <s_m_entry_id>
57

> <s_m_entry_name>
dock_pv.56

> <s_m_Source_Path>
/home/csk/Desktop/cluster/DUD-E-result/kif11

> <s_m_Source_File>
dock_pv.maegz

> <i_m_Source_File_Index>
56

> <chembl_id>
CHEMBL3645252

> <chembl_pref_name>
None

> <i_lp_mmshare_version>
53161

> <i_f3d_flags>
0

> <r_lp_tautomer_probability>
1

> <s_lp_Force_Field>
OPLS_2005

> <r_lp_Energy>
63.514592

> <b_lp_Chiralities_Consistent>
1

> <s_lp_Variant>
CHEMBL4581_lig720-1

> <s_i_glide_gridfile>
glide-grid_3cjo

> <i_i_glide_lignum>
1065

> <i_i_glide_rotatable_bonds>
12

> <r_i_docking_score>
-8.91397910415466

> <r_i_glide_ligand_efficiency>
-0.222849477603866

> <r_i_glide_ligand_efficiency_sa>
-0.762134491927017

> <r_i_glide_ligand_efficiency_ln>
-1.90108941622155

> <r_i_glide_gscore>
-8.91397910415466

> <r_i_glide_lipo>
-4.51990653227057

> <r_i_glide_hbond>
-0.16

> <r_i_glide_metal>
0

> <r_i_glide_rewards>
-1.42988886971659

> <r_i_glide_evdw>
-47.9133148193359

> <r_i_glide_ecoul>
-6.09864044189453

> <r_i_glide_erotb>
0.506278105083485

> <r_i_glide_esite>
0

> <r_i_glide_emodel>
-74.3175756679414

> <r_i_glide_energy>
-54.0119552612305

> <r_i_glide_einternal>
8.81044578552246

> <i_i_glide_confnum>
455

> <i_i_glide_posenum>
350

> <r_i_glide_eff_state_penalty>
0

> <s_user_duplicate_titles>
CHEMBL4581_lig720

> <s_m_subgroup_title>
dock_pv

> <s_m_subgroupid>
dock_pv

> <b_m_subgroup_collapsed>
1

$$$$
CHEMBL4581_lig705
                    3D
 Schrodinger Suite 2021-1.
 51 54  0  0  1  0            999 V2000
   18.5736   17.1408  110.7624 C   0  0  0  0  0  0
   19.4383   15.9906  111.3219 C   0  0  0  0  0  0
   17.6566   14.5034  109.4185 C   0  0  0  0  0  0
   17.1372   16.9082  110.2778 C   0  0  0  0  0  0
   16.7010   15.7296  109.6035 C   0  0  0  0  0  0
   15.3556   15.7017  109.1747 C   0  0  0  0  0  0
   14.4832   16.7651  109.3756 C   0  0  0  0  0  0
   14.9256   17.9041  110.0268 C   0  0  0  0  0  0
   16.2400   17.9691  110.4678 C   0  0  0  0  0  0
   17.9118   13.9804  110.8736 C   0  0  0  0  0  0
   18.7596   14.6995  111.7563 C   0  0  0  0  0  0
   18.9770   14.2344  113.0601 C   0  0  0  0  0  0
   18.3592   13.0839  113.5302 C   0  0  0  0  0  0
   17.5172   12.3760  112.6888 C   0  0  0  0  0  0
   17.3031   12.8147  111.3860 C   0  0  0  0  0  0
   18.9473   14.7845  108.5991 C   0  0  0  0  0  0
   19.9911   13.8463  108.6137 C   0  0  0  0  0  0
   21.0658   13.9624  107.7379 C   0  0  0  0  0  0
   21.1173   15.0380  106.8545 C   0  0  0  0  0  0
   20.1270   16.0153  106.8702 C   0  0  0  0  0  0
   19.0496   15.8930  107.7423 C   0  0  0  0  0  0
   16.8674   13.1642  108.3819 S   0  0  0  0  0  0
   16.9240   13.8042  106.6667 C   0  0  0  0  0  0
   16.0017   13.0596  105.6863 C   0  0  1  0  0  0
   14.5141   13.3776  105.9316 C   0  0  0  0  0  0
   16.3179   13.4083  104.2926 N   0  0  0  0  0  0
   13.9058   12.3618  106.5989 O   0  0  0  0  0  0
   13.9791   14.4331  105.5920 O   0  0  0  0  0  0
   22.4428   15.1798  105.7580 Cl  0  0  0  0  0  0
   18.5485   17.9178  111.5295 H   0  0  0  0  0  0
   19.1089   17.6250  109.9454 H   0  0  0  0  0  0
   20.0147   16.3884  112.1596 H   0  0  0  0  0  0
   20.2123   15.7290  110.6089 H   0  0  0  0  0  0
   14.9334   14.8432  108.6780 H   0  0  0  0  0  0
   13.4619   16.7013  109.0280 H   0  0  0  0  0  0
   14.2561   18.7370  110.1864 H   0  0  0  0  0  0
   16.5659   18.8705  110.9673 H   0  0  0  0  0  0
   19.6276   14.7756  113.7311 H   0  0  0  0  0  0
   18.5257   12.7470  114.5443 H   0  0  0  0  0  0
   17.0038   11.4990  113.0508 H   0  0  0  0  0  0
   16.6212   12.2248  110.7938 H   0  0  0  0  0  0
   19.9311   12.9804  109.2584 H   0  0  0  0  0  0
   21.8433   13.2124  107.7299 H   0  0  0  0  0  0
   20.1840   16.8605  106.1993 H   0  0  0  0  0  0
   18.2670   16.6364  107.7001 H   0  0  0  0  0  0
   16.6987   14.8712  106.6666 H   0  0  0  0  0  0
   17.9524   13.7020  106.3182 H   0  0  0  0  0  0
   16.1615   11.9869  105.8090 H   0  0  0  0  0  0
   16.2764   14.4104  104.1760 H   0  0  0  0  0  0
   17.3062   13.1631  104.1514 H   0  0  0  0  0  0
   14.5184   11.6593  106.8550 H   0  0  0  0  0  0
  1  4  1  0  0  0
  1  2  1  0  0  0
  1 30  1  0  0  0
  1 31  1  0  0  0
  2 11  1  0  0  0
  2 32  1  0  0  0
  2 33  1  0  0  0
  3 10  1  0  0  0
  3  5  1  0  0  0
  3 16  1  0  0  0
  3 22  1  0  0  0
  4  5  2  0  0  0
  4  9  1  0  0  0
  5  6  1  0  0  0
  6  7  2  0  0  0
  6 34  1  0  0  0
  7  8  1  0  0  0
  7 35  1  0  0  0
  8  9  2  0  0  0
  8 36  1  0  0  0
  9 37  1  0  0  0
 10 11  2  0  0  0
 10 15  1  0  0  0
 11 12  1  0  0  0
 12 13  2  0  0  0
 12 38  1  0  0  0
 13 14  1  0  0  0
 13 39  1  0  0  0
 14 15  2  0  0  0
 14 40  1  0  0  0
 15 41  1  0  0  0
 16 17  2  0  0  0
 16 21  1  0  0  0
 17 18  1  0  0  0
 17 42  1  0  0  0
 18 19  2  0  0  0
 18 43  1  0  0  0
 19 20  1  0  0  0
 19 29  1  0  0  0
 20 21  2  0  0  0
 20 44  1  0  0  0
 21 45  1  0  0  0
 22 23  1  0  0  0
 23 24  1  0  0  0
 23 46  1  0  0  0
 23 47  1  0  0  0
 24 25  1  0  0  0
 24 26  1  0  0  0
 24 48  1  0  0  0
 25 27  1  0  0  0
 25 28  2  0  0  0
 26 49  1  0  0  0
 26 50  1  0  0  0
 27 51  1  0  0  0
M  END
> <s_m_entry_id>
58

> <s_m_entry_name>
dock_pv.57

> <s_m_Source_Path>
/home/csk/Desktop/cluster/DUD-E-result/kif11

> <s_m_Source_File>
dock_pv.maegz

> <i_m_Source_File_Index>
57

> <chembl_id>
CHEMBL3633527

> <chembl_pref_name>
None

> <i_lp_mmshare_version>
53161

> <i_f3d_flags>
0

> <r_lp_tautomer_probability>
1

> <s_lp_Force_Field>
OPLS_2005

> <r_lp_Energy>
37.188701

> <b_lp_Chiralities_Consistent>
1

> <s_lp_Variant>
CHEMBL4581_lig705-1

> <s_i_glide_gridfile>
glide-grid_3cjo

> <i_i_glide_lignum>
1048

> <i_i_glide_rotatable_bonds>
6

> <r_i_docking_score>
-8.89348239374946

> <r_i_glide_ligand_efficiency>
-0.306671806681016

> <r_i_glide_ligand_efficiency_sa>
-0.942192950572015

> <r_i_glide_ligand_efficiency_ln>
-2.03638194891345

> <r_i_glide_gscore>
-8.89348239374946

> <r_i_glide_lipo>
-4.97770982730943

> <r_i_glide_hbond>
-0.152

> <r_i_glide_metal>
0

> <r_i_glide_rewards>
-0.629465142875846

> <r_i_glide_evdw>
-44.3401679992676

> <r_i_glide_ecoul>
-9.73685455322266

> <r_i_glide_erotb>
0.55146896642267

> <r_i_glide_esite>
-0.00823980704007512

> <r_i_glide_emodel>
-82.5645846818711

> <r_i_glide_energy>
-54.0770225524902

> <r_i_glide_einternal>
2.15701675415039

> <i_i_glide_confnum>
248

> <i_i_glide_posenum>
208

> <r_i_glide_eff_state_penalty>
0

> <s_user_duplicate_titles>
CHEMBL4581_lig705

> <s_m_subgroup_title>
dock_pv

> <s_m_subgroupid>
dock_pv

> <b_m_subgroup_collapsed>
1

$$$$
CHEMBL4581_lig237
                    3D
 Schrodinger Suite 2021-1.
 66 70  0  0  1  0            999 V2000
   22.6722   15.0129  105.5460 C   0  0  0  0  0  0
   21.8090   16.1094  105.4725 C   0  0  0  0  0  0
   20.6456   16.1389  106.2356 C   0  0  0  0  0  0
   22.3933   13.9620  106.4226 C   0  0  0  0  0  0
   21.2631   14.0211  107.2374 C   0  0  0  0  0  0
   20.3523   15.0875  107.1092 C   0  0  0  0  0  0
   20.1650   13.2748  109.2062 C   0  0  0  0  0  0
   21.1179   13.0071  108.1639 O   0  0  0  0  0  0
   18.8323   13.8738  108.6619 C   0  0  2  0  0  0
   19.1610   15.0269  107.8424 N   0  0  0  0  0  0
   18.7161   16.2134  108.4371 N   0  0  0  0  0  0
   17.9308   15.9225  109.3946 C   0  0  0  0  0  0
   17.7629   14.4026  109.6545 C   0  0  1  0  0  0
   16.3213   13.8963  109.2253 C   0  0  0  0  0  0
   17.2274   16.9572  110.1620 C   0  0  0  0  0  0
   16.3242   16.6977  110.9568 O   0  0  0  0  0  0
   18.0689   13.9652  111.1253 C   0  0  0  0  0  0
   18.9358   14.7061  111.9486 C   0  0  0  0  0  0
   19.2026   14.3090  113.2536 C   0  0  0  0  0  0
   18.6028   13.1610  113.7591 C   0  0  0  0  0  0
   17.7604   12.3982  112.9604 C   0  0  0  0  0  0
   17.5159   12.7815  111.6474 C   0  0  0  0  0  0
   15.6021   14.4940  107.9816 C   0  0  0  0  0  0
   16.1762   14.0823  106.6048 C   0  0  0  0  0  0
   17.6584   18.4146  109.9821 C   0  0  0  0  0  0
   22.1463   17.4253  104.4168 Cl  0  0  0  0  0  0
   15.4868   14.6836  105.4561 N   0  0  0  0  0  0
   16.0166   14.0818  104.2269 C   0  0  0  0  0  0
   15.2814   14.5952  102.9684 C   0  0  0  0  0  0
   15.3060   16.0734  102.9550 N   0  0  0  0  0  0
   14.8807   16.7549  104.1958 C   0  0  0  0  0  0
   15.6452   16.1435  105.3964 C   0  0  0  0  0  0
   15.8160   16.7455  101.8896 C   0  0  0  0  0  0
   15.6657   18.2667  101.8151 C   0  0  0  0  0  0
   16.3178   16.1782  100.9178 O   0  0  0  0  0  0
   18.3782   13.0998  108.0402 H   0  0  0  0  0  0
   23.5588   14.9828  104.9328 H   0  0  0  0  0  0
   19.9677   16.9761  106.1450 H   0  0  0  0  0  0
   23.0662   13.1238  106.4963 H   0  0  0  0  0  0
   19.9612   12.3619  109.7567 H   0  0  0  0  0  0
   20.6258   13.9618  109.9069 H   0  0  0  0  0  0
   16.3307   12.8134  109.0971 H   0  0  0  0  0  0
   15.6465   14.0787  110.0663 H   0  0  0  0  0  0
   19.4228   15.5991  111.5883 H   0  0  0  0  0  0
   19.8774   14.8824  113.8713 H   0  0  0  0  0  0
   18.7959   12.8546  114.7774 H   0  0  0  0  0  0
   17.2874   11.5151  113.3582 H   0  0  0  0  0  0
   16.8747   12.1452  111.0591 H   0  0  0  0  0  0
   14.5752   14.1312  108.0120 H   0  0  0  0  0  0
   15.5278   15.5743  108.0859 H   0  0  0  0  0  0
   17.2405   14.2832  106.5309 H   0  0  0  0  0  0
   16.0979   12.9957  106.5332 H   0  0  0  0  0  0
   17.5362   18.7221  108.9443 H   0  0  0  0  0  0
   17.0562   19.0700  110.6091 H   0  0  0  0  0  0
   18.7041   18.5456  110.2588 H   0  0  0  0  0  0
   17.0760   14.3372  104.1510 H   0  0  0  0  0  0
   15.9485   12.9935  104.2711 H   0  0  0  0  0  0
   15.7474   14.1576  102.0860 H   0  0  0  0  0  0
   14.2457   14.2560  102.9965 H   0  0  0  0  0  0
   13.8092   16.6111  104.3390 H   0  0  0  0  0  0
   15.0691   17.8286  104.1904 H   0  0  0  0  0  0
   15.2853   16.6211  106.3035 H   0  0  0  0  0  0
   16.7104   16.3675  105.3088 H   0  0  0  0  0  0
   14.6359   18.5639  102.0214 H   0  0  0  0  0  0
   16.3229   18.7613  102.5293 H   0  0  0  0  0  0
   15.9167   18.6353  100.8212 H   0  0  0  0  0  0
  1  4  1  0  0  0
  1  2  2  0  0  0
  1 37  1  0  0  0
  2  3  1  0  0  0
  2 26  1  0  0  0
  3  6  2  0  0  0
  3 38  1  0  0  0
  4  5  2  0  0  0
  4 39  1  0  0  0
  5  6  1  0  0  0
  5  8  1  0  0  0
  6 10  1  0  0  0
  7  9  1  0  0  0
  7  8  1  0  0  0
  7 40  1  0  0  0
  7 41  1  0  0  0
  9 10  1  0  0  0
  9 13  1  0  0  0
  9 36  1  0  0  0
 10 11  1  0  0  0
 11 12  2  0  0  0
 12 13  1  0  0  0
 12 15  1  0  0  0
 13 17  1  0  0  0
 13 14  1  0  0  0
 14 23  1  0  0  0
 14 42  1  0  0  0
 14 43  1  0  0  0
 15 25  1  0  0  0
 15 16  2  0  0  0
 17 18  2  0  0  0
 17 22  1  0  0  0
 18 19  1  0  0  0
 18 44  1  0  0  0
 19 20  2  0  0  0
 19 45  1  0  0  0
 20 21  1  0  0  0
 20 46  1  0  0  0
 21 22  2  0  0  0
 21 47  1  0  0  0
 22 48  1  0  0  0
 23 24  1  0  0  0
 23 49  1  0  0  0
 23 50  1  0  0  0
 24 27  1  0  0  0
 24 51  1  0  0  0
 24 52  1  0  0  0
 25 53  1  0  0  0
 25 54  1  0  0  0
 25 55  1  0  0  0
 27 28  1  0  0  0
 27 32  1  0  0  0
 28 29  1  0  0  0
 28 56  1  0  0  0
 28 57  1  0  0  0
 29 30  1  0  0  0
 29 58  1  0  0  0
 29 59  1  0  0  0
 30 31  1  0  0  0
 30 33  1  0  0  0
 31 32  1  0  0  0
 31 60  1  0  0  0
 31 61  1  0  0  0
 32 62  1  0  0  0
 32 63  1  0  0  0
 33 34  1  0  0  0
 33 35  2  0  0  0
 34 64  1  0  0  0
 34 65  1  0  0  0
 34 66  1  0  0  0
M  END
> <s_m_entry_id>
59

> <s_m_entry_name>
dock_pv.58

> <s_m_Source_Path>
/home/csk/Desktop/cluster/DUD-E-result/kif11

> <s_m_Source_File>
dock_pv.maegz

> <i_m_Source_File_Index>
58

> <chembl_id>
CHEMBL250126

> <chembl_pref_name>
None

> <i_lp_mmshare_version>
53161

> <i_f3d_flags>
0

> <r_lp_tautomer_probability>
1

> <s_lp_Force_Field>
OPLS_2005

> <r_lp_Energy>
70.033701

> <b_lp_Chiralities_Consistent>
1

> <s_lp_Variant>
CHEMBL4581_lig237-1

> <s_i_glide_gridfile>
glide-grid_3cjo

> <i_i_glide_lignum>
360

> <i_i_glide_rotatable_bonds>
7

> <r_i_docking_score>
-8.88745334291463

> <r_i_glide_ligand_efficiency>
-0.25392723836899

> <r_i_glide_ligand_efficiency_sa>
-0.830612833683656

> <r_i_glide_ligand_efficiency_ln>
-1.95099325516935

> <r_i_glide_gscore>
-8.88745334291463

> <r_i_glide_lipo>
-5.24081531241261

> <r_i_glide_hbond>
0

> <r_i_glide_metal>
0

> <r_i_glide_rewards>
-0.9824325671692

> <r_i_glide_evdw>
-53.6229667663574

> <r_i_glide_ecoul>
-2.65974307060242

> <r_i_glide_erotb>
0.415904335575415

> <r_i_glide_esite>
0

> <r_i_glide_emodel>
-84.1719214964012

> <r_i_glide_energy>
-56.2827098369598

> <r_i_glide_einternal>
3.30680799484253

> <i_i_glide_confnum>
3

> <i_i_glide_posenum>
226

> <r_i_glide_eff_state_penalty>
0

> <s_user_duplicate_titles>
CHEMBL4581_lig237,414287

> <s_m_subgroup_title>
dock_pv

> <s_m_subgroupid>
dock_pv

> <b_m_subgroup_collapsed>
1

$$$$
CHEMBL4581_lig54
                    3D
 Schrodinger Suite 2021-1.
 45 47  0  0  1  0            999 V2000
   22.5621   15.3326  105.3595 C   0  0  0  0  0  0
   21.5993   16.3200  105.5353 C   0  0  0  0  0  0
   20.5695   16.1311  106.4538 C   0  0  0  0  0  0
   20.4822   14.9514  107.2170 C   0  0  0  0  0  0
   21.4788   13.9648  107.0369 C   0  0  0  0  0  0
   22.5003   14.1636  106.1112 C   0  0  0  0  0  0
   19.3671   14.8126  108.1853 C   0  0  0  0  0  0
   18.5636   15.7446  108.5218 N   0  0  0  0  0  0
   17.6222   15.2941  109.3926 N   0  0  0  0  0  0
   17.8444   13.8824  109.7288 C   0  0  1  0  0  0
   19.0329   13.5161  108.8739 C   0  0  0  0  0  0
   18.0466   13.6352  111.2221 C   0  0  0  0  0  0
   18.9359   14.4224  111.9623 C   0  0  0  0  0  0
   19.1195   14.1697  113.3168 C   0  0  0  0  0  0
   18.4120   13.1374  113.9247 C   0  0  0  0  0  0
   17.5172   12.3619  113.1974 C   0  0  0  0  0  0
   17.3438   12.5994  111.8402 C   0  0  0  0  0  0
   16.4532   15.9436  109.6620 C   0  0  0  0  0  0
   15.5176   15.3112  110.1584 O   0  0  0  0  0  0
   21.6562   17.4548  104.8051 F   0  0  0  0  0  0
   21.5207   12.8318  107.7732 F   0  0  0  0  0  0
   16.2060   17.4440  109.2732 C   0  0  0  0  0  0
   15.0400   18.0194  110.1332 C   0  0  0  0  0  0
   15.7664   17.5139  107.7895 C   0  0  0  0  0  0
   17.4324   18.3626  109.5183 C   0  0  0  0  0  0
   23.3504   15.4683  104.6364 H   0  0  0  0  0  0
   19.8397   16.9216  106.5636 H   0  0  0  0  0  0
   23.2448   13.3988  105.9744 H   0  0  0  0  0  0
   16.9669   13.3154  109.4028 H   0  0  0  0  0  0
   19.8656   13.1450  109.4722 H   0  0  0  0  0  0
   18.7177   12.7619  108.1593 H   0  0  0  0  0  0
   19.4888   15.2203  111.4870 H   0  0  0  0  0  0
   19.8163   14.7629  113.8901 H   0  0  0  0  0  0
   18.5603   12.9285  114.9714 H   0  0  0  0  0  0
   16.9643   11.5674  113.6778 H   0  0  0  0  0  0
   16.6555   11.9840  111.2772 H   0  0  0  0  0  0
   15.2831   18.0079  111.1975 H   0  0  0  0  0  0
   14.8154   19.0544  109.8704 H   0  0  0  0  0  0
   14.1115   17.4588  110.0061 H   0  0  0  0  0  0
   16.5508   17.1631  107.1167 H   0  0  0  0  0  0
   14.8813   16.9031  107.5986 H   0  0  0  0  0  0
   15.5197   18.5343  107.4930 H   0  0  0  0  0  0
   18.1822   18.2946  108.7302 H   0  0  0  0  0  0
   17.1182   19.4070  109.5544 H   0  0  0  0  0  0
   17.9254   18.1485  110.4681 H   0  0  0  0  0  0
  1  6  1  0  0  0
  1  2  2  0  0  0
  1 26  1  0  0  0
  2 20  1  0  0  0
  2  3  1  0  0  0
  3  4  2  0  0  0
  3 27  1  0  0  0
  4  5  1  0  0  0
  4  7  1  0  0  0
  5  6  2  0  0  0
  5 21  1  0  0  0
  6 28  1  0  0  0
  7  8  2  0  0  0
  7 11  1  0  0  0
  8  9  1  0  0  0
  9 10  1  0  0  0
  9 18  1  0  0  0
 10 11  1  0  0  0
 10 12  1  0  0  0
 10 29  1  0  0  0
 11 30  1  0  0  0
 11 31  1  0  0  0
 12 13  2  0  0  0
 12 17  1  0  0  0
 13 14  1  0  0  0
 13 32  1  0  0  0
 14 15  2  0  0  0
 14 33  1  0  0  0
 15 16  1  0  0  0
 15 34  1  0  0  0
 16 17  2  0  0  0
 16 35  1  0  0  0
 17 36  1  0  0  0
 18 19  2  0  0  0
 18 22  1  0  0  0
 22 23  1  0  0  0
 22 24  1  0  0  0
 22 25  1  0  0  0
 23 37  1  0  0  0
 23 38  1  0  0  0
 23 39  1  0  0  0
 24 40  1  0  0  0
 24 41  1  0  0  0
 24 42  1  0  0  0
 25 43  1  0  0  0
 25 44  1  0  0  0
 25 45  1  0  0  0
M  END
> <s_m_entry_id>
60

> <s_m_entry_name>
dock_pv.59

> <s_m_Source_Path>
/home/csk/Desktop/cluster/DUD-E-result/kif11

> <s_m_Source_File>
dock_pv.maegz

> <i_m_Source_File_Index>
59

> <chembl_id>
CHEMBL206289

> <chembl_pref_name>
None

> <i_lp_mmshare_version>
53161

> <i_f3d_flags>
0

> <r_lp_tautomer_probability>
1

> <s_lp_Force_Field>
OPLS_2005

> <r_lp_Energy>
33.986002

> <b_lp_Chiralities_Consistent>
1

> <s_lp_Variant>
CHEMBL4581_lig54-2

> <s_i_glide_gridfile>
glide-grid_3cjo

> <i_i_glide_lignum>
82

> <i_i_glide_rotatable_bonds>
4

> <r_i_docking_score>
-8.86066154411696

> <r_i_glide_ligand_efficiency>
-0.354426461764678

> <r_i_glide_ligand_efficiency_sa>
-1.03634925997998

> <r_i_glide_ligand_efficiency_ln>
-2.10024231855503

> <r_i_glide_gscore>
-8.86066154411696

> <r_i_glide_lipo>
-4.4587856827408

> <r_i_glide_hbond>
0

> <r_i_glide_metal>
0

> <r_i_glide_rewards>
-2.55371896581398

> <r_i_glide_evdw>
-40.1967277526855

> <r_i_glide_ecoul>
-2.15722990036011

> <r_i_glide_erotb>
0.485263977126113

> <r_i_glide_esite>
0

> <r_i_glide_emodel>
-64.2396483405325

> <r_i_glide_energy>
-42.3539576530457

> <r_i_glide_einternal>
1.75818073749542

> <i_i_glide_confnum>
28

> <i_i_glide_posenum>
40

> <r_i_glide_eff_state_penalty>
0

> <s_user_duplicate_titles>
CHEMBL4581_lig54,343099

> <s_m_subgroup_title>
dock_pv

> <s_m_subgroupid>
dock_pv

> <b_m_subgroup_collapsed>
1

$$$$
CHEMBL4581_lig220
                    3D
 Schrodinger Suite 2021-1.
 54 57  0  0  1  0            999 V2000
   22.5711   14.9912  105.6224 C   0  0  0  0  0  0
   21.6823   16.0613  105.6576 C   0  0  0  0  0  0
   20.5643   16.0084  106.4870 C   0  0  0  0  0  0
   20.3267   14.9032  107.3234 C   0  0  0  0  0  0
   21.2728   13.8550  107.3213 C   0  0  0  0  0  0
   22.3558   13.8855  106.4431 C   0  0  0  0  0  0
   21.8963   17.1454  104.8777 F   0  0  0  0  0  0
   21.1713   12.7879  108.1608 F   0  0  0  0  0  0
   19.1804   14.8739  108.1396 N   0  0  0  0  0  0
   18.7179   16.0764  108.7075 N   0  0  0  0  0  0
   17.8392   15.8276  109.5940 C   0  0  0  0  0  0
   17.5650   14.3259  109.8204 C   0  0  1  0  0  0
   18.6952   13.7747  108.9547 C   0  0  0  0  0  0
   17.1491   16.8948  110.3196 C   0  0  0  0  0  0
   16.1202   16.7026  110.9664 O   0  0  0  0  0  0
   17.7673   18.2956  110.3048 C   0  0  0  0  0  0
   17.8231   13.8573  111.2849 C   0  0  0  0  0  0
   16.1475   13.8639  109.3050 C   0  0  0  0  0  0
   15.5551   14.5088  108.0267 C   0  0  0  0  0  0
   16.1058   13.9673  106.6927 C   0  0  0  0  0  0
   15.8023   14.8853  105.6036 N   0  0  1  0  0  0
   18.8113   14.4799  112.0715 C   0  0  0  0  0  0
   19.0810   14.0424  113.3610 C   0  0  0  0  0  0
   18.3653   12.9735  113.8877 C   0  0  0  0  0  0
   17.4006   12.3310  113.1230 C   0  0  0  0  0  0
   17.1503   12.7481  111.8206 C   0  0  0  0  0  0
   16.5562   16.1327  105.4747 C   0  0  0  0  0  0
   16.4366   16.0293  103.9607 C   0  0  0  0  0  0
   16.1992   14.5496  104.2379 C   0  0  0  0  0  0
   17.5199   16.3418  103.2484 F   0  0  0  0  0  0
   23.4248   15.0214  104.9620 H   0  0  0  0  0  0
   19.8804   16.8447  106.4787 H   0  0  0  0  0  0
   23.0455   13.0575  106.4215 H   0  0  0  0  0  0
   19.5212   13.4997  109.6121 H   0  0  0  0  0  0
   18.4624   12.8756  108.3840 H   0  0  0  0  0  0
   18.7778   18.2753  110.7226 H   0  0  0  0  0  0
   17.8205   18.6793  109.2835 H   0  0  0  0  0  0
   17.1644   18.9789  110.9037 H   0  0  0  0  0  0
   15.4241   14.0461  110.1034 H   0  0  0  0  0  0
   16.1431   12.7814  109.1608 H   0  0  0  0  0  0
   15.5359   15.5976  108.0664 H   0  0  0  0  0  0
   14.4991   14.2373  108.0350 H   0  0  0  0  0  0
   15.6238   13.0133  106.4751 H   0  0  0  0  0  0
   17.1718   13.7520  106.7375 H   0  0  0  0  0  0
   19.3940   15.3040  111.6871 H   0  0  0  0  0  0
   19.8422   14.5308  113.9509 H   0  0  0  0  0  0
   18.5635   12.6363  114.8961 H   0  0  0  0  0  0
   16.8446   11.5004  113.5325 H   0  0  0  0  0  0
   16.4128   12.1983  111.2572 H   0  0  0  0  0  0
   17.5870   16.0467  105.8269 H   0  0  0  0  0  0
   16.0865   16.9901  105.9556 H   0  0  0  0  0  0
   15.5755   16.5531  103.5412 H   0  0  0  0  0  0
   15.4250   14.0500  103.6539 H   0  0  0  0  0  0
   17.1140   13.9573  104.1940 H   0  0  0  0  0  0
  1  6  1  0  0  0
  1  2  2  0  0  0
  1 31  1  0  0  0
  2  7  1  0  0  0
  2  3  1  0  0  0
  3  4  2  0  0  0
  3 32  1  0  0  0
  4  9  1  0  0  0
  4  5  1  0  0  0
  5  8  1  0  0  0
  5  6  2  0  0  0
  6 33  1  0  0  0
  9 10  1  0  0  0
  9 13  1  0  0  0
 10 11  2  0  0  0
 11 12  1  0  0  0
 11 14  1  0  0  0
 12 17  1  0  0  0
 12 18  1  0  0  0
 12 13  1  0  0  0
 13 34  1  0  0  0
 13 35  1  0  0  0
 14 15  2  0  0  0
 14 16  1  0  0  0
 16 36  1  0  0  0
 16 37  1  0  0  0
 16 38  1  0  0  0
 17 22  2  0  0  0
 17 26  1  0  0  0
 18 19  1  0  0  0
 18 39  1  0  0  0
 18 40  1  0  0  0
 19 20  1  0  0  0
 19 41  1  0  0  0
 19 42  1  0  0  0
 20 21  1  0  0  0
 20 43  1  0  0  0
 20 44  1  0  0  0
 21 27  1  0  0  0
 21 29  1  0  0  0
 22 23  1  0  0  0
 22 45  1  0  0  0
 23 24  2  0  0  0
 23 46  1  0  0  0
 24 25  1  0  0  0
 24 47  1  0  0  0
 25 26  2  0  0  0
 25 48  1  0  0  0
 26 49  1  0  0  0
 27 28  1  0  0  0
 27 50  1  0  0  0
 27 51  1  0  0  0
 28 29  1  0  0  0
 28 30  1  0  0  0
 28 52  1  0  0  0
 29 53  1  0  0  0
 29 54  1  0  0  0
M  END
> <s_m_entry_id>
61

> <s_m_entry_name>
dock_pv.60

> <s_m_Source_Path>
/home/csk/Desktop/cluster/DUD-E-result/kif11

> <s_m_Source_File>
dock_pv.maegz

> <i_m_Source_File_Index>
60

> <chembl_id>
CHEMBL248244

> <chembl_pref_name>
None

> <i_lp_mmshare_version>
53161

> <i_f3d_flags>
0

> <r_lp_tautomer_probability>
1

> <s_lp_Force_Field>
OPLS_2005

> <r_lp_Energy>
47.549003

> <b_lp_Chiralities_Consistent>
1

> <s_lp_Variant>
CHEMBL4581_lig220-1

> <s_i_glide_gridfile>
glide-grid_3cjo

> <i_i_glide_lignum>
334

> <i_i_glide_rotatable_bonds>
7

> <r_i_docking_score>
-8.84652246214415

> <r_i_glide_ligand_efficiency>
-0.294884082071471

> <r_i_glide_ligand_efficiency_sa>
-0.916273404262033

> <r_i_glide_ligand_efficiency_ln>
-2.01002629398165

> <r_i_glide_gscore>
-8.84652246214415

> <r_i_glide_lipo>
-4.50770901764868

> <r_i_glide_hbond>
0

> <r_i_glide_metal>
0

> <r_i_glide_rewards>
-2.20860775153445

> <r_i_glide_evdw>
-43.9251708984375

> <r_i_glide_ecoul>
-2.96757221221924

> <r_i_glide_erotb>
0.572042369478182

> <r_i_glide_esite>
-0.0608536856844318

> <r_i_glide_emodel>
-65.0289152906319

> <r_i_glide_energy>
-46.8927431106567

> <r_i_glide_einternal>
9.2144193649292

> <i_i_glide_confnum>
246

> <i_i_glide_posenum>
180

> <r_i_glide_eff_state_penalty>
0

> <s_user_duplicate_titles>
CHEMBL4581_lig220,415180

> <s_m_subgroup_title>
dock_pv

> <s_m_subgroupid>
dock_pv

> <b_m_subgroup_collapsed>
1

$$$$
CHEMBL4581_lig231
                    3D
 Schrodinger Suite 2021-1.
 55 58  0  0  1  0            999 V2000
   22.6326   15.4658  105.3140 C   0  0  0  0  0  0
   21.7050   16.5045  105.2424 C   0  0  0  0  0  0
   20.5316   16.4430  105.9885 C   0  0  0  0  0  0
   22.4083   14.3810  106.1590 C   0  0  0  0  0  0
   21.2675   14.3558  106.9583 C   0  0  0  0  0  0
   20.2929   15.3613  106.8421 C   0  0  0  0  0  0
   20.2520   13.5146  108.9283 C   0  0  0  0  0  0
   21.1647   13.2996  107.8445 O   0  0  0  0  0  0
   18.8811   14.0424  108.4082 C   0  0  2  0  0  0
   19.1024   15.2096  107.5680 N   0  0  0  0  0  0
   18.6463   16.3598  108.2181 N   0  0  0  0  0  0
   17.9383   16.0264  109.2206 C   0  0  0  0  0  0
   17.7894   14.4922  109.4171 C   0  0  1  0  0  0
   16.4162   13.9886  108.8267 C   0  0  0  0  0  0
   17.3071   17.0549  110.0589 C   0  0  0  0  0  0
   16.5987   16.7933  111.0267 O   0  0  0  0  0  0
   18.0417   13.9777  110.8726 C   0  0  0  0  0  0
   18.9235   14.6479  111.7399 C   0  0  0  0  0  0
   19.1107   14.2218  113.0516 C   0  0  0  0  0  0
   18.4146   13.1141  113.5198 C   0  0  0  0  0  0
   17.5599   12.4130  112.6763 C   0  0  0  0  0  0
   17.3986   12.8243  111.3568 C   0  0  0  0  0  0
   15.1158   14.2867  109.6185 C   0  0  0  0  0  0
   13.9791   14.9372  108.7929 C   0  0  0  0  0  0
   17.5736   18.5259  109.7321 C   0  0  0  0  0  0
   21.9184   17.5455  104.4082 F   0  0  0  0  0  0
   13.1185   13.9626  108.1109 N   0  0  0  0  0  0
   13.7904   13.2770  107.0061 C   0  0  0  0  0  0
   11.9206   14.6237  107.6040 C   0  0  0  0  0  0
   18.4818   13.2411  107.7841 H   0  0  0  0  0  0
   23.5179   15.4930  104.7019 H   0  0  0  0  0  0
   19.8037   17.2358  105.8939 H   0  0  0  0  0  0
   23.1267   13.5771  106.2187 H   0  0  0  0  0  0
   20.1211   12.5699  109.4563 H   0  0  0  0  0  0
   20.7095   14.2267  109.6130 H   0  0  0  0  0  0
   16.4676   12.9106  108.6655 H   0  0  0  0  0  0
   16.3098   14.3824  107.8131 H   0  0  0  0  0  0
   19.4706   15.5158  111.4071 H   0  0  0  0  0  0
   19.7824   14.7559  113.7072 H   0  0  0  0  0  0
   18.5421   12.7883  114.5438 H   0  0  0  0  0  0
   17.0117   11.5609  113.0467 H   0  0  0  0  0  0
   16.7378   12.2419  110.7331 H   0  0  0  0  0  0
   15.3162   14.8929  110.4961 H   0  0  0  0  0  0
   14.7559   13.3330  110.0073 H   0  0  0  0  0  0
   14.4017   15.6124  108.0448 H   0  0  0  0  0  0
   13.3814   15.5682  109.4520 H   0  0  0  0  0  0
   17.3184   18.7490  108.6958 H   0  0  0  0  0  0
   16.9760   19.1654  110.3808 H   0  0  0  0  0  0
   18.6261   18.7612  109.8905 H   0  0  0  0  0  0
   13.1080   12.5890  106.5035 H   0  0  0  0  0  0
   14.1577   13.9841  106.2619 H   0  0  0  0  0  0
   14.6291   12.6818  107.3589 H   0  0  0  0  0  0
   11.2481   13.9028  107.1378 H   0  0  0  0  0  0
   11.3712   15.1031  108.4136 H   0  0  0  0  0  0
   12.1656   15.3862  106.8638 H   0  0  0  0  0  0
  1  2  2  0  0  0
  1  4  1  0  0  0
  1 31  1  0  0  0
  2  3  1  0  0  0
  2 26  1  0  0  0
  3  6  2  0  0  0
  3 32  1  0  0  0
  4  5  2  0  0  0
  4 33  1  0  0  0
  5  8  1  0  0  0
  5  6  1  0  0  0
  6 10  1  0  0  0
  7  9  1  0  0  0
  7  8  1  0  0  0
  7 34  1  0  0  0
  7 35  1  0  0  0
  9 10  1  0  0  0
  9 13  1  0  0  0
  9 30  1  0  0  0
 10 11  1  0  0  0
 11 12  2  0  0  0
 12 15  1  0  0  0
 12 13  1  0  0  0
 13 14  1  0  0  0
 13 17  1  0  0  0
 14 23  1  0  0  0
 14 36  1  0  0  0
 14 37  1  0  0  0
 15 16  2  0  0  0
 15 25  1  0  0  0
 17 18  2  0  0  0
 17 22  1  0  0  0
 18 19  1  0  0  0
 18 38  1  0  0  0
 19 20  2  0  0  0
 19 39  1  0  0  0
 20 21  1  0  0  0
 20 40  1  0  0  0
 21 22  2  0  0  0
 21 41  1  0  0  0
 22 42  1  0  0  0
 23 24  1  0  0  0
 23 43  1  0  0  0
 23 44  1  0  0  0
 24 27  1  0  0  0
 24 45  1  0  0  0
 24 46  1  0  0  0
 25 47  1  0  0  0
 25 48  1  0  0  0
 25 49  1  0  0  0
 27 28  1  0  0  0
 27 29  1  0  0  0
 28 50  1  0  0  0
 28 51  1  0  0  0
 28 52  1  0  0  0
 29 53  1  0  0  0
 29 54  1  0  0  0
 29 55  1  0  0  0
M  END
> <s_m_entry_id>
62

> <s_m_entry_name>
dock_pv.61

> <s_m_Source_Path>
/home/csk/Desktop/cluster/DUD-E-result/kif11

> <s_m_Source_File>
dock_pv.maegz

> <i_m_Source_File_Index>
61

> <chembl_id>
CHEMBL250328

> <chembl_pref_name>
None

> <i_lp_mmshare_version>
53161

> <i_f3d_flags>
0

> <r_lp_tautomer_probability>
1

> <s_lp_Force_Field>
OPLS_2005

> <r_lp_Energy>
44.111099

> <b_lp_Chiralities_Consistent>
1

> <s_lp_Variant>
CHEMBL4581_lig231-1

> <s_i_glide_gridfile>
glide-grid_3cjo

> <i_i_glide_lignum>
354

> <i_i_glide_rotatable_bonds>
6

> <r_i_docking_score>
-8.82996606546591

> <r_i_glide_ligand_efficiency>
-0.304481588464342

> <r_i_glide_ligand_efficiency_sa>
-0.935463906300556

> <r_i_glide_ligand_efficiency_ln>
-2.02183832037164

> <r_i_glide_gscore>
-8.82996606546591

> <r_i_glide_lipo>
-4.72196695069424

> <r_i_glide_hbond>
0

> <r_i_glide_metal>
0

> <r_i_glide_rewards>
-1.92539854129059

> <r_i_glide_evdw>
-46.7628326416016

> <r_i_glide_ecoul>
-2.29735612869263

> <r_i_glide_erotb>
0.500144477902901

> <r_i_glide_esite>
0

> <r_i_glide_emodel>
-71.792368685306

> <r_i_glide_energy>
-49.0601887702942

> <r_i_glide_einternal>
4.59390830993652

> <i_i_glide_confnum>
8

> <i_i_glide_posenum>
305

> <r_i_glide_eff_state_penalty>
0

> <s_user_duplicate_titles>
CHEMBL4581_lig231,414279

> <s_m_subgroup_title>
dock_pv

> <s_m_subgroupid>
dock_pv

> <b_m_subgroup_collapsed>
1

$$$$
CHEMBL4581_lig217
                    3D
 Schrodinger Suite 2021-1.
 53 55  0  0  1  0            999 V2000
   22.6601   15.4111  105.3378 C   0  0  0  0  0  0
   21.6349   16.3485  105.3583 C   0  0  0  0  0  0
   20.5270   16.1495  106.1781 C   0  0  0  0  0  0
   20.4209   15.0194  107.0096 C   0  0  0  0  0  0
   21.4793   14.0816  106.9708 C   0  0  0  0  0  0
   22.5771   14.2790  106.1360 C   0  0  0  0  0  0
   21.7077   17.4418  104.5710 F   0  0  0  0  0  0
   21.5181   13.0048  107.7887 F   0  0  0  0  0  0
   19.3075   14.8952  107.8728 N   0  0  0  0  0  0
   18.7486   16.0700  108.4246 N   0  0  0  0  0  0
   17.9389   15.7820  109.3618 C   0  0  0  0  0  0
   17.7916   14.2728  109.6341 C   0  0  1  0  0  0
   18.9354   13.7836  108.7355 C   0  0  0  0  0  0
   17.1998   16.8140  110.0955 C   0  0  0  0  0  0
   16.2902   16.5497  110.8824 O   0  0  0  0  0  0
   17.6112   18.2761  109.9028 C   0  0  0  0  0  0
   18.0922   13.8730  111.1161 C   0  0  0  0  0  0
   16.3921   13.7033  109.1817 C   0  0  0  0  0  0
   15.7218   14.1831  107.8702 C   0  0  0  0  0  0
   16.3459   13.6050  106.5815 C   0  0  0  0  0  0
   15.3986   13.5817  105.4617 N   0  0  0  0  0  0
   17.4966   12.7401  111.6969 C   0  0  0  0  0  0
   17.7381   12.4034  113.0222 C   0  0  0  0  0  0
   18.6199   13.1622  113.7778 C   0  0  0  0  0  0
   19.2533   14.2678  113.2223 C   0  0  0  0  0  0
   18.9996   14.6125  111.8991 C   0  0  0  0  0  0
   14.4100   12.5124  105.6157 C   0  0  0  0  0  0
   16.1299   13.3540  104.2199 C   0  0  0  0  0  0
   23.5167   15.5494  104.6982 H   0  0  0  0  0  0
   19.7490   16.8986  106.1741 H   0  0  0  0  0  0
   23.3819   13.5631  106.1238 H   0  0  0  0  0  0
   19.8007   13.5704  109.3651 H   0  0  0  0  0  0
   18.7199   12.8715  108.1807 H   0  0  0  0  0  0
   18.6498   18.4261  110.2025 H   0  0  0  0  0  0
   17.5079   18.5693  108.8571 H   0  0  0  0  0  0
   16.9829   18.9308  110.5077 H   0  0  0  0  0  0
   16.4476   12.6154  109.1168 H   0  0  0  0  0  0
   15.6754   13.9008  109.9814 H   0  0  0  0  0  0
   14.6477   14.0098  107.9123 H   0  0  0  0  0  0
   15.7920   15.2685  107.8158 H   0  0  0  0  0  0
   17.1878   14.2436  106.3091 H   0  0  0  0  0  0
   16.7722   12.6145  106.7546 H   0  0  0  0  0  0
   16.8162   12.1063  111.1506 H   0  0  0  0  0  0
   17.2319   11.5616  113.4648 H   0  0  0  0  0  0
   18.8163   12.8895  114.8045 H   0  0  0  0  0  0
   19.9503   14.8441  113.8116 H   0  0  0  0  0  0
   19.5182   15.4672  111.4909 H   0  0  0  0  0  0
   13.8041   12.6372  106.5119 H   0  0  0  0  0  0
   13.7207   12.5017  104.7703 H   0  0  0  0  0  0
   14.8852   11.5322  105.6723 H   0  0  0  0  0  0
   16.8412   14.1605  104.0382 H   0  0  0  0  0  0
   16.6853   12.4149  104.2566 H   0  0  0  0  0  0
   15.4536   13.3205  103.3650 H   0  0  0  0  0  0
  1  2  2  0  0  0
  1  6  1  0  0  0
  1 29  1  0  0  0
  2  7  1  0  0  0
  2  3  1  0  0  0
  3  4  2  0  0  0
  3 30  1  0  0  0
  4  9  1  0  0  0
  4  5  1  0  0  0
  5  8  1  0  0  0
  5  6  2  0  0  0
  6 31  1  0  0  0
  9 10  1  0  0  0
  9 13  1  0  0  0
 10 11  2  0  0  0
 11 14  1  0  0  0
 11 12  1  0  0  0
 12 17  1  0  0  0
 12 18  1  0  0  0
 12 13  1  0  0  0
 13 32  1  0  0  0
 13 33  1  0  0  0
 14 15  2  0  0  0
 14 16  1  0  0  0
 16 34  1  0  0  0
 16 35  1  0  0  0
 16 36  1  0  0  0
 17 22  2  0  0  0
 17 26  1  0  0  0
 18 19  1  0  0  0
 18 37  1  0  0  0
 18 38  1  0  0  0
 19 20  1  0  0  0
 19 39  1  0  0  0
 19 40  1  0  0  0
 20 21  1  0  0  0
 20 41  1  0  0  0
 20 42  1  0  0  0
 21 27  1  0  0  0
 21 28  1  0  0  0
 22 23  1  0  0  0
 22 43  1  0  0  0
 23 24  2  0  0  0
 23 44  1  0  0  0
 24 25  1  0  0  0
 24 45  1  0  0  0
 25 26  2  0  0  0
 25 46  1  0  0  0
 26 47  1  0  0  0
 27 48  1  0  0  0
 27 49  1  0  0  0
 27 50  1  0  0  0
 28 51  1  0  0  0
 28 52  1  0  0  0
 28 53  1  0  0  0
M  END
> <s_m_entry_id>
63

> <s_m_entry_name>
dock_pv.62

> <s_m_Source_Path>
/home/csk/Desktop/cluster/DUD-E-result/kif11

> <s_m_Source_File>
dock_pv.maegz

> <i_m_Source_File_Index>
62

> <chembl_id>
CHEMBL246604

> <chembl_pref_name>
None

> <i_lp_mmshare_version>
53161

> <i_f3d_flags>
0

> <r_lp_tautomer_probability>
1

> <s_lp_Force_Field>
OPLS_2005

> <r_lp_Energy>
40.089628

> <b_lp_Chiralities_Consistent>
1

> <s_lp_Variant>
CHEMBL4581_lig217-1

> <s_i_glide_gridfile>
glide-grid_3cjo

> <i_i_glide_lignum>
326

> <i_i_glide_rotatable_bonds>
7

> <r_i_docking_score>
-8.79344945560274

> <r_i_glide_ligand_efficiency>
-0.314051766271526

> <r_i_glide_ligand_efficiency_sa>
-0.953646128998943

> <r_i_glide_ligand_efficiency_ln>
-2.02978632124805

> <r_i_glide_gscore>
-8.79344945560274

> <r_i_glide_lipo>
-4.44734509216859

> <r_i_glide_hbond>
0

> <r_i_glide_metal>
0

> <r_i_glide_rewards>
-2.45315757281023

> <r_i_glide_evdw>
-45.9564361572266

> <r_i_glide_ecoul>
-1.66530668735504

> <r_i_glide_erotb>
0.654671020340666

> <r_i_glide_esite>
0

> <r_i_glide_emodel>
-65.5283857867378

> <r_i_glide_energy>
-47.6217428445816

> <r_i_glide_einternal>
9.56650447845459

> <i_i_glide_confnum>
55

> <i_i_glide_posenum>
18

> <r_i_glide_eff_state_penalty>
0

> <s_user_duplicate_titles>
CHEMBL4581_lig217,415188

> <s_m_subgroup_title>
dock_pv

> <s_m_subgroupid>
dock_pv

> <b_m_subgroup_collapsed>
1

$$$$
CHEMBL4581_lig234
                    3D
 Schrodinger Suite 2021-1.
 61 65  0  0  1  0            999 V2000
   22.6277   15.4294  105.3568 C   0  0  0  0  0  0
   21.7040   16.4723  105.3293 C   0  0  0  0  0  0
   20.5380   16.3926  106.0876 C   0  0  0  0  0  0
   22.4000   14.3145  106.1591 C   0  0  0  0  0  0
   21.2672   14.2671  106.9756 C   0  0  0  0  0  0
   20.3034   15.2851  106.9093 C   0  0  0  0  0  0
   20.2262   13.3471  108.9203 C   0  0  0  0  0  0
   21.1681   13.1924  107.8439 O   0  0  0  0  0  0
   18.8644   13.9315  108.4370 C   0  0  2  0  0  0
   19.1249   15.1273  107.6525 N   0  0  0  0  0  0
   18.6806   16.2672  108.3348 N   0  0  0  0  0  0
   17.9135   15.9088  109.2847 C   0  0  0  0  0  0
   17.7827   14.3731  109.4670 C   0  0  1  0  0  0
   16.3404   13.8849  109.0025 C   0  0  0  0  0  0
   17.1956   16.8942  110.1050 C   0  0  0  0  0  0
   16.3649   16.5761  110.9576 O   0  0  0  0  0  0
   18.1018   13.9165  110.9424 C   0  0  0  0  0  0
   18.9991   14.6470  111.7490 C   0  0  0  0  0  0
   19.2453   14.2908  113.0709 C   0  0  0  0  0  0
   18.6121   13.1802  113.6152 C   0  0  0  0  0  0
   17.7506   12.4189  112.8380 C   0  0  0  0  0  0
   17.5180   12.7673  111.5115 C   0  0  0  0  0  0
   15.9170   13.9177  107.5005 C   0  0  0  0  0  0
   15.7488   15.2935  106.8061 C   0  0  0  0  0  0
   17.5129   18.3805  109.9030 C   0  0  0  0  0  0
   21.9198   17.5469  104.5392 F   0  0  0  0  0  0
   15.6137   15.2632  105.3398 N   0  0  0  0  0  0
   15.5799   16.6546  104.8586 C   0  0  0  0  0  0
   15.4211   16.7173  103.3212 C   0  0  0  0  0  0
   16.5350   16.0455  102.6498 N   0  0  0  0  0  0
   16.5936   14.6603  103.1199 C   0  0  0  0  0  0
   16.7309   14.5830  104.6623 C   0  0  0  0  0  0
   18.4414   13.1641  107.7926 H   0  0  0  0  0  0
   23.5174   15.4770  104.7492 H   0  0  0  0  0  0
   19.8152   17.1946  106.0342 H   0  0  0  0  0  0
   23.1179   13.5074  106.1866 H   0  0  0  0  0  0
   20.0641   12.3654  109.3642 H   0  0  0  0  0  0
   20.6704   13.9853  109.6817 H   0  0  0  0  0  0
   16.2394   12.8259  109.2165 H   0  0  0  0  0  0
   15.5733   14.3716  109.6049 H   0  0  0  0  0  0
   19.5138   15.5137  111.3616 H   0  0  0  0  0  0
   19.9296   14.8715  113.6716 H   0  0  0  0  0  0
   18.7951   12.9013  114.6424 H   0  0  0  0  0  0
   17.2559   11.5608  113.2654 H   0  0  0  0  0  0
   16.8565   12.1125  110.9705 H   0  0  0  0  0  0
   16.5092   13.2156  106.9196 H   0  0  0  0  0  0
   14.9224   13.4711  107.4845 H   0  0  0  0  0  0
   14.8399   15.7440  107.2075 H   0  0  0  0  0  0
   16.5356   15.9803  107.0867 H   0  0  0  0  0  0
   17.3023   18.6810  108.8753 H   0  0  0  0  0  0
   16.9109   18.9912  110.5732 H   0  0  0  0  0  0
   18.5658   18.5789  110.1123 H   0  0  0  0  0  0
   14.7548   17.1911  105.3287 H   0  0  0  0  0  0
   16.5015   17.1621  105.1482 H   0  0  0  0  0  0
   15.3794   17.7542  102.9833 H   0  0  0  0  0  0
   14.4749   16.2679  103.0126 H   0  0  0  0  0  0
   16.3841   16.0696  101.6505 H   0  0  0  0  0  0
   17.4331   14.1607  102.6403 H   0  0  0  0  0  0
   15.7035   14.1223  102.7900 H   0  0  0  0  0  0
   17.6934   14.9835  104.9895 H   0  0  0  0  0  0
   16.7222   13.5244  104.9135 H   0  0  0  0  0  0
  1  4  1  0  0  0
  1  2  2  0  0  0
  1 34  1  0  0  0
  2  3  1  0  0  0
  2 26  1  0  0  0
  3  6  2  0  0  0
  3 35  1  0  0  0
  4  5  2  0  0  0
  4 36  1  0  0  0
  5  8  1  0  0  0
  5  6  1  0  0  0
  6 10  1  0  0  0
  7  9  1  0  0  0
  7  8  1  0  0  0
  7 37  1  0  0  0
  7 38  1  0  0  0
  9 10  1  0  0  0
  9 13  1  0  0  0
  9 33  1  0  0  0
 10 11  1  0  0  0
 11 12  2  0  0  0
 12 15  1  0  0  0
 12 13  1  0  0  0
 13 17  1  0  0  0
 13 14  1  0  0  0
 14 23  1  0  0  0
 14 39  1  0  0  0
 14 40  1  0  0  0
 15 16  2  0  0  0
 15 25  1  0  0  0
 17 18  2  0  0  0
 17 22  1  0  0  0
 18 19  1  0  0  0
 18 41  1  0  0  0
 19 20  2  0  0  0
 19 42  1  0  0  0
 20 21  1  0  0  0
 20 43  1  0  0  0
 21 22  2  0  0  0
 21 44  1  0  0  0
 22 45  1  0  0  0
 23 24  1  0  0  0
 23 46  1  0  0  0
 23 47  1  0  0  0
 24 27  1  0  0  0
 24 48  1  0  0  0
 24 49  1  0  0  0
 25 50  1  0  0  0
 25 51  1  0  0  0
 25 52  1  0  0  0
 27 28  1  0  0  0
 27 32  1  0  0  0
 28 29  1  0  0  0
 28 53  1  0  0  0
 28 54  1  0  0  0
 29 30  1  0  0  0
 29 55  1  0  0  0
 29 56  1  0  0  0
 30 31  1  0  0  0
 30 57  1  0  0  0
 31 32  1  0  0  0
 31 58  1  0  0  0
 31 59  1  0  0  0
 32 60  1  0  0  0
 32 61  1  0  0  0
M  END
> <s_m_entry_id>
64

> <s_m_entry_name>
dock_pv.63

> <s_m_Source_Path>
/home/csk/Desktop/cluster/DUD-E-result/kif11

> <s_m_Source_File>
dock_pv.maegz

> <i_m_Source_File_Index>
63

> <chembl_id>
CHEMBL401476

> <chembl_pref_name>
None

> <i_lp_mmshare_version>
53161

> <i_f3d_flags>
0

> <r_lp_tautomer_probability>
1

> <s_lp_Force_Field>
OPLS_2005

> <r_lp_Energy>
64.232245

> <b_lp_Chiralities_Consistent>
1

> <s_lp_Variant>
CHEMBL4581_lig234-1

> <s_i_glide_gridfile>
glide-grid_3cjo

> <i_i_glide_lignum>
357

> <i_i_glide_rotatable_bonds>
6

> <r_i_docking_score>
-8.78030760876143

> <r_i_glide_ligand_efficiency>
-0.274384612773795

> <r_i_glide_ligand_efficiency_sa>
-0.871116844915664

> <r_i_glide_ligand_efficiency_ln>
-1.96615021574759

> <r_i_glide_gscore>
-8.78030760876143

> <r_i_glide_lipo>
-4.77352486912307

> <r_i_glide_hbond>
0

> <r_i_glide_metal>
0

> <r_i_glide_rewards>
-1.63654281563564

> <r_i_glide_evdw>
-49.3969993591309

> <r_i_glide_ecoul>
-2.12553071975708

> <r_i_glide_erotb>
0.418439651917378

> <r_i_glide_esite>
0

> <r_i_glide_emodel>
-77.1751510108312

> <r_i_glide_energy>
-51.5225300788879

> <r_i_glide_einternal>
2.8384735584259

> <i_i_glide_confnum>
51

> <i_i_glide_posenum>
113

> <r_i_glide_eff_state_penalty>
0

> <s_user_duplicate_titles>
CHEMBL4581_lig234,414293

> <s_m_subgroup_title>
dock_pv

> <s_m_subgroupid>
dock_pv

> <b_m_subgroup_collapsed>
1

$$$$
CHEMBL4581_lig210
                    3D
 Schrodinger Suite 2021-1.
 54 57  0  0  1  0            999 V2000
   22.3894   15.4364  105.3392 C   0  0  0  0  0  0
   21.4402   16.4446  105.4602 C   0  0  0  0  0  0
   20.4104   16.3257  106.3915 C   0  0  0  0  0  0
   20.3183   15.1985  107.2278 C   0  0  0  0  0  0
   21.3014   14.1982  107.1061 C   0  0  0  0  0  0
   22.3170   14.3136  106.1569 C   0  0  0  0  0  0
   21.5176   17.5365  104.6684 F   0  0  0  0  0  0
   21.3698   13.1584  107.9682 F   0  0  0  0  0  0
   19.2432   15.1422  108.2419 C   0  0  0  0  0  0
   18.6377   16.1553  108.7091 N   0  0  0  0  0  0
   17.6689   15.7938  109.5901 N   0  0  0  0  0  0
   17.5626   14.3185  109.7344 C   0  0  1  0  0  0
   18.7186   13.8575  108.8309 C   0  0  0  0  0  0
   16.9056   16.7292  110.2236 C   0  0  0  0  0  0
   15.9646   16.4296  110.9583 O   0  0  0  0  0  0
   17.8290   13.8397  111.1920 C   0  0  0  0  0  0
   16.1659   13.8164  109.2024 C   0  0  0  0  0  0
   18.8160   14.4797  111.9619 C   0  0  0  0  0  0
   19.0849   14.0658  113.2633 C   0  0  0  0  0  0
   18.3662   13.0078  113.8105 C   0  0  0  0  0  0
   17.3882   12.3619  113.0650 C   0  0  0  0  0  0
   17.1221   12.7655  111.7597 C   0  0  0  0  0  0
   15.6272   14.3411  107.8493 C   0  0  0  0  0  0
   16.2689   13.6662  106.6245 C   0  0  0  0  0  0
   17.2144   18.2192  110.0299 C   0  0  0  0  0  0
   15.3969   13.6862  105.4608 N   0  0  1  0  0  0
   15.8164   12.9303  104.2843 C   0  0  0  0  0  0
   14.3587   12.5895  103.9937 C   0  0  0  0  0  0
   14.1461   12.9244  105.4628 C   0  0  0  0  0  0
   13.7366   13.3719  103.1068 F   0  0  0  0  0  0
   23.1748   15.5245  104.6074 H   0  0  0  0  0  0
   19.6927   17.1312  106.4647 H   0  0  0  0  0  0
   23.0684   13.5416  106.0764 H   0  0  0  0  0  0
   18.3969   13.1620  108.0609 H   0  0  0  0  0  0
   19.4988   13.3558  109.4044 H   0  0  0  0  0  0
   16.1621   12.7258  109.1478 H   0  0  0  0  0  0
   15.4138   14.0663  109.9524 H   0  0  0  0  0  0
   19.3901   15.2966  111.5493 H   0  0  0  0  0  0
   19.8481   14.5640  113.8437 H   0  0  0  0  0  0
   18.5640   12.6901  114.8255 H   0  0  0  0  0  0
   16.8218   11.5516  113.4990 H   0  0  0  0  0  0
   16.3604   12.2230  111.2228 H   0  0  0  0  0  0
   14.5399   14.2628  107.8167 H   0  0  0  0  0  0
   15.8123   15.4133  107.7818 H   0  0  0  0  0  0
   17.1839   14.1964  106.3516 H   0  0  0  0  0  0
   16.5601   12.6404  106.8556 H   0  0  0  0  0  0
   17.2422   18.4812  108.9699 H   0  0  0  0  0  0
   16.4537   18.8377  110.5107 H   0  0  0  0  0  0
   18.1818   18.4651  110.4725 H   0  0  0  0  0  0
   16.3566   13.5138  103.5380 H   0  0  0  0  0  0
   16.4124   12.0556  104.5587 H   0  0  0  0  0  0
   14.1634   11.5508  103.7256 H   0  0  0  0  0  0
   14.1823   12.0393  106.1049 H   0  0  0  0  0  0
   13.2620   13.5118  105.7159 H   0  0  0  0  0  0
  1  6  1  0  0  0
  1  2  2  0  0  0
  1 31  1  0  0  0
  2  7  1  0  0  0
  2  3  1  0  0  0
  3  4  2  0  0  0
  3 32  1  0  0  0
  4  9  1  0  0  0
  4  5  1  0  0  0
  5  8  1  0  0  0
  5  6  2  0  0  0
  6 33  1  0  0  0
  9 10  2  0  0  0
  9 13  1  0  0  0
 10 11  1  0  0  0
 11 12  1  0  0  0
 11 14  1  0  0  0
 12 16  1  0  0  0
 12 17  1  0  0  0
 12 13  1  0  0  0
 13 34  1  0  0  0
 13 35  1  0  0  0
 14 15  2  0  0  0
 14 25  1  0  0  0
 16 18  2  0  0  0
 16 22  1  0  0  0
 17 23  1  0  0  0
 17 36  1  0  0  0
 17 37  1  0  0  0
 18 19  1  0  0  0
 18 38  1  0  0  0
 19 20  2  0  0  0
 19 39  1  0  0  0
 20 21  1  0  0  0
 20 40  1  0  0  0
 21 22  2  0  0  0
 21 41  1  0  0  0
 22 42  1  0  0  0
 23 24  1  0  0  0
 23 43  1  0  0  0
 23 44  1  0  0  0
 24 26  1  0  0  0
 24 45  1  0  0  0
 24 46  1  0  0  0
 25 47  1  0  0  0
 25 48  1  0  0  0
 25 49  1  0  0  0
 26 27  1  0  0  0
 26 29  1  0  0  0
 27 28  1  0  0  0
 27 50  1  0  0  0
 27 51  1  0  0  0
 28 29  1  0  0  0
 28 30  1  0  0  0
 28 52  1  0  0  0
 29 53  1  0  0  0
 29 54  1  0  0  0
M  END
> <s_m_entry_id>
65

> <s_m_entry_name>
dock_pv.64

> <s_m_Source_Path>
/home/csk/Desktop/cluster/DUD-E-result/kif11

> <s_m_Source_File>
dock_pv.maegz

> <i_m_Source_File_Index>
64

> <chembl_id>
CHEMBL240498

> <chembl_pref_name>
None

> <i_lp_mmshare_version>
53161

> <i_f3d_flags>
0

> <r_lp_tautomer_probability>
1

> <s_lp_Force_Field>
OPLS_2005

> <r_lp_Energy>
45.724183

> <b_lp_Chiralities_Consistent>
1

> <s_lp_Variant>
CHEMBL4581_lig210-1

> <s_i_glide_gridfile>
glide-grid_3cjo

> <i_i_glide_lignum>
317

> <i_i_glide_rotatable_bonds>
7

> <r_i_docking_score>
-8.77361736053425

> <r_i_glide_ligand_efficiency>
-0.292453912017808

> <r_i_glide_ligand_efficiency_sa>
-0.908722300884856

> <r_i_glide_ligand_efficiency_ln>
-1.99346146053118

> <r_i_glide_gscore>
-8.77361736053425

> <r_i_glide_lipo>
-4.50601736660593

> <r_i_glide_hbond>
0

> <r_i_glide_metal>
0

> <r_i_glide_rewards>
-2.19476286730894

> <r_i_glide_evdw>
-45.5262565612793

> <r_i_glide_ecoul>
-2.457111120224

> <r_i_glide_erotb>
0.572042369478182

> <r_i_glide_esite>
0

> <r_i_glide_emodel>
-70.7535715231849

> <r_i_glide_energy>
-47.9833676815033

> <r_i_glide_einternal>
5.98515033721924

> <i_i_glide_confnum>
44

> <i_i_glide_posenum>
300

> <r_i_glide_eff_state_penalty>
0

> <s_user_duplicate_titles>
CHEMBL4581_lig210,402125

> <s_m_subgroup_title>
dock_pv

> <s_m_subgroupid>
dock_pv

> <b_m_subgroup_collapsed>
1

$$$$
CHEMBL4581_lig45
                    3D
 Schrodinger Suite 2021-1.
 46 49  0  0  1  0            999 V2000
   21.5179   16.3205  105.3581 C   0  0  0  0  0  0
   20.4532   16.2224  106.2502 C   0  0  0  0  0  0
   20.3519   15.1377  107.1371 C   0  0  0  0  0  0
   21.3493   14.1467  107.0914 C   0  0  0  0  0  0
   22.3805   14.2222  106.1587 C   0  0  0  0  0  0
   22.4761   15.3133  105.3023 C   0  0  0  0  0  0
   19.2398   15.0949  108.1149 C   0  0  0  0  0  0
   18.5191   16.3269  108.5991 C   0  0  0  0  0  0
   17.5244   15.8595  109.5481 N   0  0  0  0  0  0
   17.6426   14.3955  109.6864 C   0  0  1  0  0  0
   18.7269   14.0023  108.7065 C   0  0  0  0  0  0
   17.9606   13.9001  111.1031 C   0  0  0  0  0  0
   18.8820   14.5796  111.9108 C   0  0  0  0  0  0
   19.1154   14.1519  113.2144 C   0  0  0  0  0  0
   18.4257   13.0507  113.7146 C   0  0  0  0  0  0
   17.5179   12.3628  112.9150 C   0  0  0  0  0  0
   17.2883   12.7821  111.6071 C   0  0  0  0  0  0
   16.6078   16.6112  110.2248 C   0  0  0  0  0  0
   16.5763   18.1829  110.2085 C   0  0  2  0  0  0
   15.1686   18.7485  110.5753 C   0  0  0  0  0  0
   21.3916   13.1607  108.0131 F   0  0  0  0  0  0
   21.6074   17.3843  104.5313 F   0  0  0  0  0  0
   15.7897   16.0590  110.9590 O   0  0  0  0  0  0
   14.7673   20.1697  110.2385 C   0  0  0  0  0  0
   17.1080   18.7618  108.9592 N   0  0  0  0  0  0
   14.1180   19.0088  109.5138 C   0  0  0  0  0  0
   19.7241   17.0175  106.2610 H   0  0  0  0  0  0
   23.1237   13.4406  106.1275 H   0  0  0  0  0  0
   23.2833   15.3725  104.5891 H   0  0  0  0  0  0
   18.0342   16.8202  107.7570 H   0  0  0  0  0  0
   19.1726   17.0582  109.0702 H   0  0  0  0  0  0
   16.6924   13.9494  109.3783 H   0  0  0  0  0  0
   19.0148   12.9719  108.5598 H   0  0  0  0  0  0
   19.4097   15.4403  111.5288 H   0  0  0  0  0  0
   19.8252   14.6772  113.8354 H   0  0  0  0  0  0
   18.5980   12.7267  114.7320 H   0  0  0  0  0  0
   16.9736   11.5209  113.3137 H   0  0  0  0  0  0
   16.5683   12.2518  110.9984 H   0  0  0  0  0  0
   17.2470   18.4872  111.0147 H   0  0  0  0  0  0
   14.8144   18.3659  111.5334 H   0  0  0  0  0  0
   15.4695   20.8085  109.7004 H   0  0  0  0  0  0
   14.1821   20.7279  110.9709 H   0  0  0  0  0  0
   18.0005   18.3866  108.6729 H   0  0  0  0  0  0
   16.4544   18.6916  108.1917 H   0  0  0  0  0  0
   13.0812   18.7636  109.7422 H   0  0  0  0  0  0
   14.3593   18.8479  108.4625 H   0  0  0  0  0  0
  1  2  1  0  0  0
  1  6  2  0  0  0
  1 22  1  0  0  0
  2  3  2  0  0  0
  2 27  1  0  0  0
  3  4  1  0  0  0
  3  7  1  0  0  0
  4  5  2  0  0  0
  4 21  1  0  0  0
  5  6  1  0  0  0
  5 28  1  0  0  0
  6 29  1  0  0  0
  7  8  1  0  0  0
  7 11  2  0  0  0
  8  9  1  0  0  0
  8 30  1  0  0  0
  8 31  1  0  0  0
  9 10  1  0  0  0
  9 18  1  0  0  0
 10 11  1  0  0  0
 10 12  1  0  0  0
 10 32  1  0  0  0
 11 33  1  0  0  0
 12 13  1  0  0  0
 12 17  2  0  0  0
 13 14  2  0  0  0
 13 34  1  0  0  0
 14 15  1  0  0  0
 14 35  1  0  0  0
 15 16  2  0  0  0
 15 36  1  0  0  0
 16 17  1  0  0  0
 16 37  1  0  0  0
 17 38  1  0  0  0
 18 19  1  0  0  0
 18 23  2  0  0  0
 19 20  1  0  0  0
 19 25  1  0  0  0
 19 39  1  0  0  0
 20 24  1  0  0  0
 20 26  1  0  0  0
 20 40  1  0  0  0
 24 26  1  0  0  0
 24 41  1  0  0  0
 24 42  1  0  0  0
 25 43  1  0  0  0
 25 44  1  0  0  0
 26 45  1  0  0  0
 26 46  1  0  0  0
M  END
> <s_m_entry_id>
66

> <s_m_entry_name>
dock_pv.65

> <s_m_Source_Path>
/home/csk/Desktop/cluster/DUD-E-result/kif11

> <s_m_Source_File>
dock_pv.maegz

> <i_m_Source_File_Index>
65

> <chembl_id>
CHEMBL204459

> <chembl_pref_name>
None

> <i_lp_mmshare_version>
53161

> <i_f3d_flags>
0

> <r_lp_tautomer_probability>
1

> <s_lp_Force_Field>
OPLS_2005

> <r_lp_Energy>
38.549019

> <b_lp_Chiralities_Consistent>
1

> <s_lp_Variant>
CHEMBL4581_lig45-1

> <s_i_glide_gridfile>
glide-grid_3cjo

> <i_i_glide_lignum>
71

> <i_i_glide_rotatable_bonds>
5

> <r_i_docking_score>
-8.77012828443597

> <r_i_glide_ligand_efficiency>
-0.33731262632446

> <r_i_glide_ligand_efficiency_sa>
-0.99928732822512

> <r_i_glide_ligand_efficiency_ln>
-2.05963585046172

> <r_i_glide_gscore>
-8.77012828443597

> <r_i_glide_lipo>
-4.65216193304693

> <r_i_glide_hbond>
0

> <r_i_glide_metal>
0

> <r_i_glide_rewards>
-2.36474626679844

> <r_i_glide_evdw>
-41.5435905456543

> <r_i_glide_ecoul>
-2.91166996955872

> <r_i_glide_erotb>
0.760709938125923

> <r_i_glide_esite>
0

> <r_i_glide_emodel>
-67.4329837665749

> <r_i_glide_energy>
-44.455260515213

> <r_i_glide_einternal>
2.05065131187439

> <i_i_glide_confnum>
75

> <i_i_glide_posenum>
254

> <r_i_glide_eff_state_penalty>
0

> <s_user_duplicate_titles>
CHEMBL4581_lig45,343413

> <s_m_subgroup_title>
dock_pv

> <s_m_subgroupid>
dock_pv

> <b_m_subgroup_collapsed>
1

$$$$
CHEMBL4581_lig34
                    3D
 Schrodinger Suite 2021-1.
 33 35  0  0  1  0            999 V2000
   17.6841   15.7744  109.6330 N   0  0  0  0  0  0
   18.7180   16.0826  108.8088 N   0  0  0  0  0  0
   19.2187   15.0320  108.2918 C   0  0  0  0  0  0
   17.4913   14.3238  109.7426 C   0  0  1  0  0  0
   18.4623   13.7900  108.6974 C   0  0  0  0  0  0
   20.3446   15.0147  107.3327 C   0  0  0  0  0  0
   17.7378   13.7343  111.1319 C   0  0  0  0  0  0
   16.8994   16.7199  110.2148 C   0  0  0  0  0  0
   18.9170   14.3796  112.2568 S   0  0  0  0  0  0
   21.2806   13.9620  107.2769 C   0  0  0  0  0  0
   20.5280   16.1142  106.4767 C   0  0  0  0  0  0
   17.1184   12.6288  111.7127 C   0  0  0  0  0  0
   18.5060   13.2152  113.4663 C   0  0  0  0  0  0
   15.9182   16.4333  110.9039 O   0  0  0  0  0  0
   17.5181   12.3618  113.0231 C   0  0  0  0  0  0
   22.3172   13.9834  106.3401 C   0  0  0  0  0  0
   21.5826   16.1447  105.5653 C   0  0  0  0  0  0
   21.2531   12.9386  108.1591 F   0  0  0  0  0  0
   22.4703   15.0753  105.4881 C   0  0  0  0  0  0
   21.7359   17.2051  104.7429 F   0  0  0  0  0  0
   17.2487   18.2022  110.0327 C   0  0  0  0  0  0
   16.4635   14.0714  109.4716 H   0  0  0  0  0  0
   17.9328   13.3866  107.8326 H   0  0  0  0  0  0
   19.1059   13.0130  109.1098 H   0  0  0  0  0  0
   19.8545   16.9598  106.5100 H   0  0  0  0  0  0
   16.3631   12.0463  111.2047 H   0  0  0  0  0  0
   19.0003   13.2121  114.4272 H   0  0  0  0  0  0
   17.1019   11.5620  113.6174 H   0  0  0  0  0  0
   23.0167   13.1632  106.2916 H   0  0  0  0  0  0
   23.2765   15.0954  104.7701 H   0  0  0  0  0  0
   17.2379   18.4726  108.9766 H   0  0  0  0  0  0
   16.5315   18.8354  110.5559 H   0  0  0  0  0  0
   18.2414   18.4117  110.4337 H   0  0  0  0  0  0
  1  2  1  0  0  0
  1  4  1  0  0  0
  1  8  1  0  0  0
  2  3  2  0  0  0
  3  6  1  0  0  0
  3  5  1  0  0  0
  4  5  1  0  0  0
  4  7  1  0  0  0
  4 22  1  0  0  0
  5 23  1  0  0  0
  5 24  1  0  0  0
  6 10  2  0  0  0
  6 11  1  0  0  0
  7  9  1  0  0  0
  7 12  2  0  0  0
  8 14  2  0  0  0
  8 21  1  0  0  0
  9 13  1  0  0  0
 10 16  1  0  0  0
 10 18  1  0  0  0
 11 17  2  0  0  0
 11 25  1  0  0  0
 12 15  1  0  0  0
 12 26  1  0  0  0
 13 15  2  0  0  0
 13 27  1  0  0  0
 15 28  1  0  0  0
 16 19  2  0  0  0
 16 29  1  0  0  0
 17 19  1  0  0  0
 17 20  1  0  0  0
 19 30  1  0  0  0
 21 31  1  0  0  0
 21 32  1  0  0  0
 21 33  1  0  0  0
M  END
> <s_m_entry_id>
67

> <s_m_entry_name>
dock_pv.66

> <s_m_Source_Path>
/home/csk/Desktop/cluster/DUD-E-result/kif11

> <s_m_Source_File>
dock_pv.maegz

> <i_m_Source_File_Index>
66

> <chembl_id>
CHEMBL195274

> <chembl_pref_name>
None

> <i_lp_mmshare_version>
53161

> <i_f3d_flags>
0

> <r_lp_tautomer_probability>
1

> <s_lp_Force_Field>
OPLS_2005

> <r_lp_Energy>
15.170963

> <b_lp_Chiralities_Consistent>
1

> <s_lp_Variant>
CHEMBL4581_lig34-2

> <s_i_glide_gridfile>
glide-grid_3cjo

> <i_i_glide_lignum>
53

> <i_i_glide_rotatable_bonds>
3

> <r_i_docking_score>
-8.76851424954396

> <r_i_glide_ligand_efficiency>
-0.417548297597332

> <r_i_glide_ligand_efficiency_sa>
-1.15198409187898

> <r_i_glide_ligand_efficiency_ln>
-2.16799742974836

> <r_i_glide_gscore>
-8.76851424954396

> <r_i_glide_lipo>
-3.88324951396982

> <r_i_glide_hbond>
0

> <r_i_glide_metal>
0

> <r_i_glide_rewards>
-2.95813249590404

> <r_i_glide_evdw>
-39.9938697814941

> <r_i_glide_ecoul>
-2.14067602157593

> <r_i_glide_erotb>
0.393662652640995

> <r_i_glide_esite>
0

> <r_i_glide_emodel>
-63.2168800094034

> <r_i_glide_energy>
-42.1345458030701

> <r_i_glide_einternal>
2.19486331939697

> <i_i_glide_confnum>
3

> <i_i_glide_posenum>
388

> <r_i_glide_eff_state_penalty>
0

> <s_user_duplicate_titles>
CHEMBL4581_lig34

> <s_m_subgroup_title>
dock_pv

> <s_m_subgroupid>
dock_pv

> <b_m_subgroup_collapsed>
1

$$$$
CHEMBL4581_lig773
                    3D
 Schrodinger Suite 2021-1.
 50 53  0  0  1  0            999 V2000
   18.2362   14.2649  109.7498 C   0  0  1  0  0  0
   17.0277   13.5521  109.0716 C   0  0  0  0  0  0
   15.9220   13.2339  110.0684 C   0  0  0  0  0  0
   16.4622   12.3659  111.0627 O   0  0  0  0  0  0
   19.6908   13.6013  108.9587 S   0  0  0  0  0  0
   19.8378   15.0886  107.9917 C   0  0  0  0  0  0
   19.0801   16.0455  108.3646 N   0  0  0  0  0  0
   18.2721   15.6980  109.3979 N   0  0  0  0  0  0
   20.8252   15.1652  106.8930 C   0  0  0  0  0  0
   20.8431   16.3251  106.0963 C   0  0  0  0  0  0
   21.7816   16.4760  105.0813 C   0  0  0  0  0  0
   22.7181   15.4801  104.8564 C   0  0  0  0  0  0
   22.7266   14.3350  105.6263 C   0  0  0  0  0  0
   21.7890   14.1599  106.6289 C   0  0  0  0  0  0
   17.4953   16.6311  110.0344 C   0  0  0  0  0  0
   16.7268   16.3481  110.9578 O   0  0  0  0  0  0
   17.5451   18.1163  109.6124 C   0  0  0  0  0  0
   21.9140   13.0282  107.3586 F   0  0  0  0  0  0
   21.7626   17.5618  104.2853 F   0  0  0  0  0  0
   18.3454   13.9059  111.2398 C   0  0  0  0  0  0
   17.4758   12.9487  111.7916 C   0  0  0  0  0  0
   17.5847   12.5489  113.1196 C   0  0  0  0  0  0
   18.5501   13.1353  113.9315 C   0  0  0  0  0  0
   19.3809   14.1320  113.4231 C   0  0  0  0  0  0
   19.2715   14.5172  112.0918 C   0  0  0  0  0  0
   16.4551   18.4917  108.5831 C   0  0  0  0  0  0
   15.0132   18.4017  109.1169 C   0  0  0  0  0  0
   14.0836   18.8043  108.0706 N   0  0  2  0  0  0
   12.7093   18.7133  108.5426 C   0  0  0  0  0  0
   17.3142   12.5926  108.6315 H   0  0  0  0  0  0
   16.6329   14.1345  108.2373 H   0  0  0  0  0  0
   15.1144   12.7618  109.5353 H   0  0  0  0  0  0
   15.5170   14.1414  110.5177 H   0  0  0  0  0  0
   20.1327   17.1256  106.2521 H   0  0  0  0  0  0
   23.4338   15.5619  104.0605 H   0  0  0  0  0  0
   23.4496   13.5620  105.4300 H   0  0  0  0  0  0
   17.4499   18.7384  110.5037 H   0  0  0  0  0  0
   18.5286   18.3630  109.2145 H   0  0  0  0  0  0
   16.9150   11.7989  113.5156 H   0  0  0  0  0  0
   18.6437   12.8224  114.9590 H   0  0  0  0  0  0
   20.1149   14.6025  114.0606 H   0  0  0  0  0  0
   19.9230   15.2875  111.7080 H   0  0  0  0  0  0
   16.6391   19.5161  108.2539 H   0  0  0  0  0  0
   16.5617   17.8597  107.7004 H   0  0  0  0  0  0
   14.7962   17.3805  109.4387 H   0  0  0  0  0  0
   14.9080   19.0474  109.9911 H   0  0  0  0  0  0
   14.2092   18.2268  107.2493 H   0  0  0  0  0  0
   12.0247   19.0115  107.7468 H   0  0  0  0  0  0
   12.4550   17.6919  108.8358 H   0  0  0  0  0  0
   12.5381   19.3783  109.3914 H   0  0  0  0  0  0
  1  2  1  0  0  0
  1 20  1  0  0  0
  1  8  1  0  0  0
  1  5  1  0  0  0
  2  3  1  0  0  0
  2 30  1  0  0  0
  2 31  1  0  0  0
  3  4  1  0  0  0
  3 32  1  0  0  0
  3 33  1  0  0  0
  4 21  1  0  0  0
  5  6  1  0  0  0
  6  7  2  0  0  0
  6  9  1  0  0  0
  7  8  1  0  0  0
  8 15  1  0  0  0
  9 10  2  0  0  0
  9 14  1  0  0  0
 10 11  1  0  0  0
 10 34  1  0  0  0
 11 12  2  0  0  0
 11 19  1  0  0  0
 12 13  1  0  0  0
 12 35  1  0  0  0
 13 14  2  0  0  0
 13 36  1  0  0  0
 14 18  1  0  0  0
 15 16  2  0  0  0
 15 17  1  0  0  0
 17 26  1  0  0  0
 17 37  1  0  0  0
 17 38  1  0  0  0
 20 21  2  0  0  0
 20 25  1  0  0  0
 21 22  1  0  0  0
 22 23  2  0  0  0
 22 39  1  0  0  0
 23 24  1  0  0  0
 23 40  1  0  0  0
 24 25  2  0  0  0
 24 41  1  0  0  0
 25 42  1  0  0  0
 26 27  1  0  0  0
 26 43  1  0  0  0
 26 44  1  0  0  0
 27 28  1  0  0  0
 27 45  1  0  0  0
 27 46  1  0  0  0
 28 29  1  0  0  0
 28 47  1  0  0  0
 29 48  1  0  0  0
 29 49  1  0  0  0
 29 50  1  0  0  0
M  END
> <s_m_entry_id>
68

> <s_m_entry_name>
dock_pv.67

> <s_m_Source_Path>
/home/csk/Desktop/cluster/DUD-E-result/kif11

> <s_m_Source_File>
dock_pv.maegz

> <i_m_Source_File_Index>
67

> <chembl_id>
CHEMBL3402351

> <chembl_pref_name>
None

> <i_lp_mmshare_version>
53161

> <i_f3d_flags>
0

> <r_lp_tautomer_probability>
1

> <s_lp_Force_Field>
OPLS_2005

> <r_lp_Energy>
24.788826

> <b_lp_Chiralities_Consistent>
1

> <s_lp_Variant>
CHEMBL4581_lig773-2

> <s_i_glide_gridfile>
glide-grid_3cjo

> <i_i_glide_lignum>
1152

> <i_i_glide_rotatable_bonds>
6

> <r_i_docking_score>
-8.76159866224777

> <r_i_glide_ligand_efficiency>
-0.302124091801647

> <r_i_glide_ligand_efficiency_sa>
-0.928220929645391

> <r_i_glide_ligand_efficiency_ln>
-2.00618391868245

> <r_i_glide_gscore>
-8.76159866224777

> <r_i_glide_lipo>
-4.77209055483149

> <r_i_glide_hbond>
0

> <r_i_glide_metal>
0

> <r_i_glide_rewards>
-2.28702938690955

> <r_i_glide_evdw>
-43.4121055603027

> <r_i_glide_ecoul>
-0.659475445747375

> <r_i_glide_erotb>
0.567047874370511

> <r_i_glide_esite>
0

> <r_i_glide_emodel>
-56.5078654542146

> <r_i_glide_energy>
-44.0715810060501

> <r_i_glide_einternal>
3.74090576171875

> <i_i_glide_confnum>
5

> <i_i_glide_posenum>
189

> <r_i_glide_eff_state_penalty>
0

> <s_user_duplicate_titles>
CHEMBL4581_lig773

> <s_m_subgroup_title>
dock_pv

> <s_m_subgroupid>
dock_pv

> <b_m_subgroup_collapsed>
1

$$$$
CHEMBL4581_lig101
                    3D
 Schrodinger Suite 2021-1.
 49 51  0  0  1  0            999 V2000
   22.7087   14.2333  106.0473 C   0  0  0  0  0  0
   22.6771   15.3800  105.2642 C   0  0  0  0  0  0
   21.6173   16.2724  105.3797 C   0  0  0  0  0  0
   20.5899   16.0149  106.2846 C   0  0  0  0  0  0
   20.6198   14.8687  107.0965 C   0  0  0  0  0  0
   21.6888   13.9621  106.9590 C   0  0  0  0  0  0
   21.7890   12.8517  107.7288 F   0  0  0  0  0  0
   21.5821   17.3824  104.6111 F   0  0  0  0  0  0
   19.5456   14.6560  108.0763 C   0  0  0  0  0  0
   19.6871   14.1672  109.2377 N   0  0  0  0  0  0
   18.5099   14.1870  109.9184 N   0  0  0  0  0  0
   17.3966   14.7574  109.1103 C   0  0  2  0  0  0
   18.1160   14.9967  107.7713 C   0  0  0  0  0  0
   16.8912   16.1118  109.7052 C   0  0  0  0  0  0
   17.8181   17.1434  109.9338 C   0  0  0  0  0  0
   17.4173   18.3618  110.4683 C   0  0  0  0  0  0
   16.0777   18.5670  110.7800 C   0  0  0  0  0  0
   15.1414   17.5601  110.5709 C   0  0  0  0  0  0
   15.5466   16.3388  110.0397 C   0  0  0  0  0  0
   18.5311   14.1372  111.2739 C   0  0  0  0  0  0
   17.7316   13.1799  111.7758 N   0  0  0  0  0  0
   19.2595   14.8469  111.9737 O   0  0  0  0  0  0
   17.4827   12.9469  113.1965 C   0  0  0  0  0  0
   16.2802   13.6624  108.9499 C   0  0  0  0  0  0
   18.7083   12.4259  113.9495 C   0  0  0  0  0  0
   15.1910   13.9335  107.8822 C   0  0  0  0  0  0
   15.4153   13.1620  106.6748 N   0  0  0  0  0  0
   23.5369   13.5617  105.9453 H   0  0  0  0  0  0
   23.4699   15.5619  104.5592 H   0  0  0  0  0  0
   19.7965   16.7430  106.3632 H   0  0  0  0  0  0
   17.7699   14.3503  106.9676 H   0  0  0  0  0  0
   18.0042   16.0265  107.4327 H   0  0  0  0  0  0
   18.8634   17.0012  109.7025 H   0  0  0  0  0  0
   18.1429   19.1442  110.6409 H   0  0  0  0  0  0
   15.7657   19.5127  111.1994 H   0  0  0  0  0  0
   14.1047   17.7267  110.8232 H   0  0  0  0  0  0
   14.7916   15.5838  109.8970 H   0  0  0  0  0  0
   17.2632   12.5635  111.1286 H   0  0  0  0  0  0
   17.1187   13.8637  113.6647 H   0  0  0  0  0  0
   16.6778   12.2165  113.2835 H   0  0  0  0  0  0
   16.7397   12.6880  108.7634 H   0  0  0  0  0  0
   15.7771   13.5274  109.9078 H   0  0  0  0  0  0
   18.4408   12.1241  114.9590 H   0  0  0  0  0  0
   19.1184   11.5620  113.4363 H   0  0  0  0  0  0
   19.4902   13.1814  114.0327 H   0  0  0  0  0  0
   14.2112   13.6561  108.2733 H   0  0  0  0  0  0
   15.1356   14.9925  107.6273 H   0  0  0  0  0  0
   16.3043   13.3950  106.2550 H   0  0  0  0  0  0
   15.4667   12.1717  106.9104 H   0  0  0  0  0  0
  1  2  2  0  0  0
  1  6  1  0  0  0
  1 28  1  0  0  0
  2  3  1  0  0  0
  2 29  1  0  0  0
  3  4  2  0  0  0
  3  8  1  0  0  0
  4  5  1  0  0  0
  4 30  1  0  0  0
  5  9  1  0  0  0
  5  6  2  0  0  0
  6  7  1  0  0  0
  9 13  1  0  0  0
  9 10  2  0  0  0
 10 11  1  0  0  0
 11 20  1  0  0  0
 11 12  1  0  0  0
 12 14  1  0  0  0
 12 24  1  0  0  0
 12 13  1  0  0  0
 13 31  1  0  0  0
 13 32  1  0  0  0
 14 15  2  0  0  0
 14 19  1  0  0  0
 15 16  1  0  0  0
 15 33  1  0  0  0
 16 17  2  0  0  0
 16 34  1  0  0  0
 17 18  1  0  0  0
 17 35  1  0  0  0
 18 19  2  0  0  0
 18 36  1  0  0  0
 19 37  1  0  0  0
 20 21  1  0  0  0
 20 22  2  0  0  0
 21 23  1  0  0  0
 21 38  1  0  0  0
 23 25  1  0  0  0
 23 39  1  0  0  0
 23 40  1  0  0  0
 24 26  1  0  0  0
 24 41  1  0  0  0
 24 42  1  0  0  0
 25 43  1  0  0  0
 25 44  1  0  0  0
 25 45  1  0  0  0
 26 27  1  0  0  0
 26 46  1  0  0  0
 26 47  1  0  0  0
 27 48  1  0  0  0
 27 49  1  0  0  0
M  END
> <s_m_entry_id>
69

> <s_m_entry_name>
dock_pv.68

> <s_m_Source_Path>
/home/csk/Desktop/cluster/DUD-E-result/kif11

> <s_m_Source_File>
dock_pv.maegz

> <i_m_Source_File_Index>
68

> <chembl_id>
CHEMBL207261

> <chembl_pref_name>
None

> <i_lp_mmshare_version>
53161

> <i_f3d_flags>
0

> <r_lp_tautomer_probability>
1

> <s_lp_Force_Field>
OPLS_2005

> <r_lp_Energy>
36.142727

> <b_lp_Chiralities_Consistent>
1

> <s_lp_Variant>
CHEMBL4581_lig101-1

> <s_i_glide_gridfile>
glide-grid_3cjo

> <i_i_glide_lignum>
170

> <i_i_glide_rotatable_bonds>
7

> <r_i_docking_score>
-8.74993404251179

> <r_i_glide_ligand_efficiency>
-0.32407163120414

> <r_i_glide_ligand_efficiency_sa>
-0.972214892544334

> <r_i_glide_ligand_efficiency_ln>
-2.03684039116

> <r_i_glide_gscore>
-8.74993404251179

> <r_i_glide_lipo>
-3.52574396907984

> <r_i_glide_hbond>
-0.32

> <r_i_glide_metal>
0

> <r_i_glide_rewards>
-2.61947186257982

> <r_i_glide_evdw>
-44.5475425720215

> <r_i_glide_ecoul>
-5.02422857284546

> <r_i_glide_erotb>
0.696293203675766

> <r_i_glide_esite>
0

> <r_i_glide_emodel>
-72.7602986999151

> <r_i_glide_energy>
-49.5717711448669

> <r_i_glide_einternal>
2.92066311836243

> <i_i_glide_confnum>
59

> <i_i_glide_posenum>
291

> <r_i_glide_eff_state_penalty>
0

> <s_user_duplicate_titles>
CHEMBL4581_lig101,347518

> <s_m_subgroup_title>
dock_pv

> <s_m_subgroupid>
dock_pv

> <b_m_subgroup_collapsed>
1

$$$$
CHEMBL4581_lig244
                    3D
 Schrodinger Suite 2021-1.
 38 41  0  0  1  0            999 V2000
   22.6056   15.5163  105.3588 C   0  0  0  0  0  0
   21.6799   16.5622  105.3189 C   0  0  0  0  0  0
   20.4956   16.4777  106.0542 C   0  0  0  0  0  0
   22.3648   14.4032  106.1590 C   0  0  0  0  0  0
   21.2215   14.3617  106.9595 C   0  0  0  0  0  0
   20.2491   15.3750  106.8828 C   0  0  0  0  0  0
   20.2523   13.5146  108.9512 C   0  0  0  0  0  0
   21.1298   13.2979  107.8378 O   0  0  0  0  0  0
   18.8699   14.0459  108.4859 C   0  0  2  0  0  0
   19.0619   15.2075  107.6244 N   0  0  0  0  0  0
   18.5490   16.3644  108.2455 N   0  0  0  0  0  0
   17.8762   16.0273  109.2735 C   0  0  0  0  0  0
   17.8896   14.5279  109.5604 C   0  0  2  0  0  0
   17.1136   16.9816  110.0767 C   0  0  0  0  0  0
   16.3299   16.6350  110.9594 O   0  0  0  0  0  0
   17.3115   18.4726  109.8105 C   0  0  0  0  0  0
   18.1488   14.0541  111.0027 C   0  0  0  0  0  0
   18.9950   14.7573  111.8733 C   0  0  0  0  0  0
   19.1750   14.3182  113.1804 C   0  0  0  0  0  0
   18.5216   13.1667  113.6200 C   0  0  0  0  0  0
   17.6968   12.4506  112.7577 C   0  0  0  0  0  0
   17.5171   12.8875  111.4491 C   0  0  0  0  0  0
   18.3791   13.2540  107.9199 H   0  0  0  0  0  0
   23.5152   15.5602  104.7770 H   0  0  0  0  0  0
   21.8657   17.4225  104.6929 H   0  0  0  0  0  0
   19.7733   17.2768  105.9855 H   0  0  0  0  0  0
   23.0867   13.6017  106.2031 H   0  0  0  0  0  0
   20.1373   12.5733  109.4879 H   0  0  0  0  0  0
   20.7101   14.2316  109.6285 H   0  0  0  0  0  0
   16.8971   14.1597  109.2918 H   0  0  0  0  0  0
   17.0445   18.7199  108.7822 H   0  0  0  0  0  0
   16.6834   19.0649  110.4778 H   0  0  0  0  0  0
   18.3514   18.7552  109.9777 H   0  0  0  0  0  0
   19.5090   15.6492  111.5427 H   0  0  0  0  0  0
   19.8278   14.8548  113.8510 H   0  0  0  0  0  0
   18.6611   12.8224  114.6347 H   0  0  0  0  0  0
   17.1905   11.5619  113.1061 H   0  0  0  0  0  0
   16.8752   12.3241  110.7867 H   0  0  0  0  0  0
  1  2  2  0  0  0
  1  4  1  0  0  0
  1 24  1  0  0  0
  2  3  1  0  0  0
  2 25  1  0  0  0
  3  6  2  0  0  0
  3 26  1  0  0  0
  4  5  2  0  0  0
  4 27  1  0  0  0
  5  8  1  0  0  0
  5  6  1  0  0  0
  6 10  1  0  0  0
  7  9  1  0  0  0
  7  8  1  0  0  0
  7 28  1  0  0  0
  7 29  1  0  0  0
  9 13  1  0  0  0
  9 10  1  0  0  0
  9 23  1  0  0  0
 10 11  1  0  0  0
 11 12  2  0  0  0
 12 13  1  0  0  0
 12 14  1  0  0  0
 13 17  1  0  0  0
 13 30  1  0  0  0
 14 15  2  0  0  0
 14 16  1  0  0  0
 16 31  1  0  0  0
 16 32  1  0  0  0
 16 33  1  0  0  0
 17 18  2  0  0  0
 17 22  1  0  0  0
 18 19  1  0  0  0
 18 34  1  0  0  0
 19 20  2  0  0  0
 19 35  1  0  0  0
 20 21  1  0  0  0
 20 36  1  0  0  0
 21 22  2  0  0  0
 21 37  1  0  0  0
 22 38  1  0  0  0
M  END
> <s_m_entry_id>
70

> <s_m_entry_name>
dock_pv.69

> <s_m_Source_Path>
/home/csk/Desktop/cluster/DUD-E-result/kif11

> <s_m_Source_File>
dock_pv.maegz

> <i_m_Source_File_Index>
69

> <chembl_id>
CHEMBL249883

> <chembl_pref_name>
None

> <i_lp_mmshare_version>
53161

> <i_f3d_flags>
0

> <r_lp_tautomer_probability>
1

> <s_lp_Force_Field>
OPLS_2005

> <r_lp_Energy>
30.871351

> <b_lp_Chiralities_Consistent>
1

> <s_lp_Variant>
CHEMBL4581_lig244-1

> <s_i_glide_gridfile>
glide-grid_3cjo

> <i_i_glide_lignum>
368

> <i_i_glide_rotatable_bonds>
2

> <r_i_docking_score>
-8.74479490251

> <r_i_glide_ligand_efficiency>
-0.397490677386818

> <r_i_glide_ligand_efficiency_sa>
-1.11378451045913

> <r_i_glide_ligand_efficiency_ln>
-2.1375468483177

> <r_i_glide_gscore>
-8.74479490251

> <r_i_glide_lipo>
-4.4823376627953

> <r_i_glide_hbond>
0

> <r_i_glide_metal>
0

> <r_i_glide_rewards>
-2.21193514960264

> <r_i_glide_evdw>
-42.1444396972656

> <r_i_glide_ecoul>
-1.04611599445343

> <r_i_glide_erotb>
0.213617293919238

> <r_i_glide_esite>
0

> <r_i_glide_emodel>
-65.4352376865517

> <r_i_glide_energy>
-43.1905556917191

> <r_i_glide_einternal>
0.115723066031933

> <i_i_glide_confnum>
2

> <i_i_glide_posenum>
306

> <r_i_glide_eff_state_penalty>
0

> <s_user_duplicate_titles>
CHEMBL4581_lig244,414315

> <s_m_subgroup_title>
dock_pv

> <s_m_subgroupid>
dock_pv

> <b_m_subgroup_collapsed>
1

$$$$
CHEMBL4581_lig48
                    3D
 Schrodinger Suite 2021-1.
 48 50  0  0  1  0            999 V2000
   22.6627   15.1303  105.3061 C   0  0  0  0  0  0
   21.7133   16.1460  105.3628 C   0  0  0  0  0  0
   20.6495   16.0575  106.2629 C   0  0  0  0  0  0
   20.5257   14.9665  107.1391 C   0  0  0  0  0  0
   21.5158   13.9621  107.0839 C   0  0  0  0  0  0
   22.5533   14.0389  106.1590 C   0  0  0  0  0  0
   19.3788   14.9199  108.0887 C   0  0  0  0  0  0
   18.5562   16.1289  108.4969 C   0  0  0  0  0  0
   17.5373   15.6074  109.4015 N   0  0  0  0  0  0
   17.7509   14.1724  109.6120 C   0  0  1  0  0  0
   18.9113   13.8236  108.7125 C   0  0  0  0  0  0
   18.0179   13.7781  111.0682 C   0  0  0  0  0  0
   17.3258   12.6983  111.6211 C   0  0  0  0  0  0
   17.5181   12.3624  112.9574 C   0  0  0  0  0  0
   18.4132   13.0892  113.7365 C   0  0  0  0  0  0
   19.1170   14.1609  113.1897 C   0  0  0  0  0  0
   18.9162   14.5085  111.8565 C   0  0  0  0  0  0
   16.4812   16.2824  109.9340 C   0  0  0  0  0  0
   15.5905   15.7041  110.5588 O   0  0  0  0  0  0
   21.5183   12.9232  107.9496 F   0  0  0  0  0  0
   21.8133   17.2105  104.5387 F   0  0  0  0  0  0
   16.3631   17.8348  109.8452 C   0  0  2  0  0  0
   15.8764   18.3141  108.4407 C   0  0  0  0  0  0
   17.6121   18.4638  110.3189 N   0  0  0  0  0  0
   15.4897   19.8050  108.4650 C   0  0  0  0  0  0
   14.7264   17.4967  107.8108 C   0  0  0  0  0  0
   23.4718   15.1738  104.5941 H   0  0  0  0  0  0
   19.9262   16.8603  106.2730 H   0  0  0  0  0  0
   23.2794   13.2473  106.1213 H   0  0  0  0  0  0
   18.0915   16.6038  107.6336 H   0  0  0  0  0  0
   19.1595   16.8887  108.9870 H   0  0  0  0  0  0
   16.8584   13.6413  109.2736 H   0  0  0  0  0  0
   19.2619   12.8053  108.6344 H   0  0  0  0  0  0
   16.6242   12.1305  111.0266 H   0  0  0  0  0  0
   16.9616   11.5434  113.3882 H   0  0  0  0  0  0
   18.5605   12.8186  114.7731 H   0  0  0  0  0  0
   19.8128   14.7210  113.7958 H   0  0  0  0  0  0
   19.4564   15.3445  111.4348 H   0  0  0  0  0  0
   15.5824   18.1120  110.5572 H   0  0  0  0  0  0
   16.7178   18.2386  107.7590 H   0  0  0  0  0  0
   17.8889   18.1617  111.2441 H   0  0  0  0  0  0
   18.3937   18.3511  109.6915 H   0  0  0  0  0  0
   14.6491   19.9814  109.1348 H   0  0  0  0  0  0
   15.2054   20.1615  107.4753 H   0  0  0  0  0  0
   16.3170   20.4259  108.8089 H   0  0  0  0  0  0
   13.8664   17.4500  108.4788 H   0  0  0  0  0  0
   14.3927   17.9403  106.8719 H   0  0  0  0  0  0
   15.0286   16.4734  107.5851 H   0  0  0  0  0  0
  1  6  1  0  0  0
  1  2  2  0  0  0
  1 27  1  0  0  0
  2 21  1  0  0  0
  2  3  1  0  0  0
  3  4  2  0  0  0
  3 28  1  0  0  0
  4  7  1  0  0  0
  4  5  1  0  0  0
  5  6  2  0  0  0
  5 20  1  0  0  0
  6 29  1  0  0  0
  7  8  1  0  0  0
  7 11  2  0  0  0
  8  9  1  0  0  0
  8 30  1  0  0  0
  8 31  1  0  0  0
  9 10  1  0  0  0
  9 18  1  0  0  0
 10 11  1  0  0  0
 10 12  1  0  0  0
 10 32  1  0  0  0
 11 33  1  0  0  0
 12 13  2  0  0  0
 12 17  1  0  0  0
 13 14  1  0  0  0
 13 34  1  0  0  0
 14 15  2  0  0  0
 14 35  1  0  0  0
 15 16  1  0  0  0
 15 36  1  0  0  0
 16 17  2  0  0  0
 16 37  1  0  0  0
 17 38  1  0  0  0
 18 19  2  0  0  0
 18 22  1  0  0  0
 22 23  1  0  0  0
 22 24  1  0  0  0
 22 39  1  0  0  0
 23 25  1  0  0  0
 23 26  1  0  0  0
 23 40  1  0  0  0
 24 41  1  0  0  0
 24 42  1  0  0  0
 25 43  1  0  0  0
 25 44  1  0  0  0
 25 45  1  0  0  0
 26 46  1  0  0  0
 26 47  1  0  0  0
 26 48  1  0  0  0
M  END
> <s_m_entry_id>
71

> <s_m_entry_name>
dock_pv.70

> <s_m_Source_Path>
/home/csk/Desktop/cluster/DUD-E-result/kif11

> <s_m_Source_File>
dock_pv.maegz

> <i_m_Source_File_Index>
70

> <chembl_id>
CHEMBL379690

> <chembl_pref_name>
None

> <i_lp_mmshare_version>
53161

> <i_f3d_flags>
0

> <r_lp_tautomer_probability>
1

> <s_lp_Force_Field>
OPLS_2005

> <r_lp_Energy>
32.548033

> <b_lp_Chiralities_Consistent>
1

> <s_lp_Variant>
CHEMBL4581_lig48-1

> <s_i_glide_gridfile>
glide-grid_3cjo

> <i_i_glide_lignum>
75

> <i_i_glide_rotatable_bonds>
5

> <r_i_docking_score>
-8.73650147354009

> <r_i_glide_ligand_efficiency>
-0.33601928744385

> <r_i_glide_ligand_efficiency_sa>
-0.995455816880354

> <r_i_glide_ligand_efficiency_ln>
-2.05173870426139

> <r_i_glide_gscore>
-8.73650147354009

> <r_i_glide_lipo>
-4.70468693031444

> <r_i_glide_hbond>
0

> <r_i_glide_metal>
0

> <r_i_glide_rewards>
-2.25708030860062

> <r_i_glide_evdw>
-40.9548072814941

> <r_i_glide_ecoul>
-2.19631314277649

> <r_i_glide_erotb>
0.602453100866144

> <r_i_glide_esite>
0

> <r_i_glide_emodel>
-64.4403953261259

> <r_i_glide_energy>
-43.1511204242706

> <r_i_glide_einternal>
3.43236184120178

> <i_i_glide_confnum>
17

> <i_i_glide_posenum>
81

> <r_i_glide_eff_state_penalty>
0

> <s_user_duplicate_titles>
CHEMBL4581_lig48,343233

> <s_m_subgroup_title>
dock_pv

> <s_m_subgroupid>
dock_pv

> <b_m_subgroup_collapsed>
1

$$$$
CHEMBL4581_lig775
                    3D
 Schrodinger Suite 2021-1.
 47 50  0  0  1  0            999 V2000
   17.8898   14.4499  109.8679 C   0  0  1  0  0  0
   16.5013   13.8431  109.4695 C   0  0  2  0  0  0
   16.4866   12.3623  109.8966 C   0  0  0  0  0  0
   16.7182   12.1336  111.2792 O   0  0  0  0  0  0
   19.1531   13.6469  108.8798 S   0  0  0  0  0  0
   19.5381   15.1888  108.0836 C   0  0  0  0  0  0
   18.9039   16.1984  108.5281 N   0  0  0  0  0  0
   18.0334   15.8792  109.5150 N   0  0  0  0  0  0
   20.5461   15.2400  107.0025 C   0  0  0  0  0  0
   20.5711   16.3667  106.1643 C   0  0  0  0  0  0
   21.5261   16.4915  105.1606 C   0  0  0  0  0  0
   22.4608   15.4850  104.9616 C   0  0  0  0  0  0
   22.4579   14.3621  105.7769 C   0  0  0  0  0  0
   21.5186   14.2381  106.7994 C   0  0  0  0  0  0
   17.3181   16.8617  110.1399 C   0  0  0  0  0  0
   17.6037   18.3349  109.8137 C   0  0  0  0  0  0
   16.4375   16.6272  110.9681 O   0  0  0  0  0  0
   21.6398   13.1609  107.6077 F   0  0  0  0  0  0
   21.5199   17.5620  104.3417 F   0  0  0  0  0  0
   18.2323   14.0717  111.3174 C   0  0  0  0  0  0
   17.6423   12.9336  111.8997 C   0  0  0  0  0  0
   17.9427   12.5373  113.1963 C   0  0  0  0  0  0
   18.8836   13.2436  113.9294 C   0  0  0  0  0  0
   19.5035   14.3617  113.3708 C   0  0  0  0  0  0
   19.1667   14.7792  112.0867 C   0  0  0  0  0  0
   15.9881   13.9678  108.0010 C   0  0  0  0  0  0
   15.4899   15.3664  107.5935 C   0  0  0  0  0  0
   14.8907   15.3136  106.2740 N   0  0  0  0  0  0
   15.7435   14.3216  110.0921 H   0  0  0  0  0  0
   17.1180   11.7510  109.2659 H   0  0  0  0  0  0
   15.5180   11.9621  109.7123 H   0  0  0  0  0  0
   19.8509   17.1643  106.2832 H   0  0  0  0  0  0
   23.1557   15.5569  104.1442 H   0  0  0  0  0  0
   23.1737   13.5680  105.6161 H   0  0  0  0  0  0
   17.4472   18.5349  108.7537 H   0  0  0  0  0  0
   16.9462   18.9911  110.3845 H   0  0  0  0  0  0
   18.6347   18.5838  110.0680 H   0  0  0  0  0  0
   17.4499   11.6769  113.6234 H   0  0  0  0  0  0
   19.1181   12.9272  114.9357 H   0  0  0  0  0  0
   20.2417   14.9069  113.9399 H   0  0  0  0  0  0
   19.6636   15.6457  111.6746 H   0  0  0  0  0  0
   16.7580   13.6355  107.3024 H   0  0  0  0  0  0
   15.1602   13.2692  107.8596 H   0  0  0  0  0  0
   14.7533   15.7377  108.3086 H   0  0  0  0  0  0
   16.3082   16.0843  107.5598 H   0  0  0  0  0  0
   14.1037   14.6801  106.2763 H   0  0  0  0  0  0
   14.5245   16.2219  106.0248 H   0  0  0  0  0  0
  1  2  1  0  0  0
  1 20  1  0  0  0
  1  8  1  0  0  0
  1  5  1  0  0  0
  2  3  1  0  0  0
  2 26  1  0  0  0
  2 29  1  0  0  0
  3  4  1  0  0  0
  3 30  1  0  0  0
  3 31  1  0  0  0
  4 21  1  0  0  0
  5  6  1  0  0  0
  6  7  2  0  0  0
  6  9  1  0  0  0
  7  8  1  0  0  0
  8 15  1  0  0  0
  9 10  2  0  0  0
  9 14  1  0  0  0
 10 11  1  0  0  0
 10 32  1  0  0  0
 11 12  2  0  0  0
 11 19  1  0  0  0
 12 13  1  0  0  0
 12 33  1  0  0  0
 13 14  2  0  0  0
 13 34  1  0  0  0
 14 18  1  0  0  0
 15 16  1  0  0  0
 15 17  2  0  0  0
 16 35  1  0  0  0
 16 36  1  0  0  0
 16 37  1  0  0  0
 20 21  2  0  0  0
 20 25  1  0  0  0
 21 22  1  0  0  0
 22 23  2  0  0  0
 22 38  1  0  0  0
 23 24  1  0  0  0
 23 39  1  0  0  0
 24 25  2  0  0  0
 24 40  1  0  0  0
 25 41  1  0  0  0
 26 27  1  0  0  0
 26 42  1  0  0  0
 26 43  1  0  0  0
 27 28  1  0  0  0
 27 44  1  0  0  0
 27 45  1  0  0  0
 28 46  1  0  0  0
 28 47  1  0  0  0
M  END
> <s_m_entry_id>
72

> <s_m_entry_name>
dock_pv.71

> <s_m_Source_Path>
/home/csk/Desktop/cluster/DUD-E-result/kif11

> <s_m_Source_File>
dock_pv.maegz

> <i_m_Source_File_Index>
71

> <chembl_id>
CHEMBL3403382

> <chembl_pref_name>
None

> <i_lp_mmshare_version>
53161

> <i_f3d_flags>
0

> <r_lp_tautomer_probability>
1

> <s_lp_Force_Field>
OPLS_2005

> <r_lp_Energy>
26.928947

> <b_lp_Chiralities_Consistent>
1

> <s_lp_Variant>
CHEMBL4581_lig775-2

> <s_i_glide_gridfile>
glide-grid_3cjo

> <i_i_glide_lignum>
1156

> <i_i_glide_rotatable_bonds>
4

> <r_i_docking_score>
-8.73445248309435

> <r_i_glide_ligand_efficiency>
-0.311944731539084

> <r_i_glide_ligand_efficiency_sa>
-0.947247930574155

> <r_i_glide_ligand_efficiency_ln>
-2.01616808776673

> <r_i_glide_gscore>
-8.73445248309435

> <r_i_glide_lipo>
-4.28502694493152

> <r_i_glide_hbond>
0

> <r_i_glide_metal>
0

> <r_i_glide_rewards>
-2.31670571287405

> <r_i_glide_evdw>
-43.3117065429688

> <r_i_glide_ecoul>
-1.38919055461884

> <r_i_glide_erotb>
0.241244085052481

> <r_i_glide_esite>
0

> <r_i_glide_emodel>
-61.1353396552344

> <r_i_glide_energy>
-44.7008970975876

> <r_i_glide_einternal>
3.50234341621399

> <i_i_glide_confnum>
8

> <i_i_glide_posenum>
155

> <r_i_glide_eff_state_penalty>
0

> <s_user_duplicate_titles>
CHEMBL4581_lig775,CHEMBL4581_lig779

> <s_m_subgroup_title>
dock_pv

> <s_m_subgroupid>
dock_pv

> <b_m_subgroup_collapsed>
1

$$$$
CHEMBL4581_lig31
                    3D
 Schrodinger Suite 2021-1.
 36 38  0  0  1  0            999 V2000
   17.7709   15.7107  109.5194 N   0  0  0  0  0  0
   18.7180   16.1095  108.6347 N   0  0  0  0  0  0
   19.3768   15.1177  108.1821 C   0  0  0  0  0  0
   17.8116   14.2582  109.7329 C   0  0  1  0  0  0
   18.9121   13.8165  108.7830 C   0  0  0  0  0  0
   16.7884   16.5448  109.9493 C   0  0  0  0  0  0
   20.4373   15.2117  107.1507 C   0  0  0  0  0  0
   21.4221   14.2175  106.9589 C   0  0  0  0  0  0
   18.0381   13.8457  111.1929 C   0  0  0  0  0  0
   15.7960   16.1412  110.5597 O   0  0  0  0  0  0
   21.5180   13.1317  107.7594 F   0  0  0  0  0  0
   20.4894   16.3619  106.3436 C   0  0  0  0  0  0
   16.9119   18.0502  109.6836 C   0  0  0  0  0  0
   22.3821   14.3621  105.9598 C   0  0  0  0  0  0
   18.9351   14.5418  112.0149 C   0  0  0  0  0  0
   17.3423   12.7458  111.7010 C   0  0  0  0  0  0
   21.4650   16.5096  105.3604 C   0  0  0  0  0  0
   19.1160   14.1481  113.3383 C   0  0  0  0  0  0
   22.3983   15.4978  105.1576 C   0  0  0  0  0  0
   17.5175   12.3620  113.0259 C   0  0  0  0  0  0
   18.4051   13.0607  113.8377 C   0  0  0  0  0  0
   16.8438   13.8628  109.4149 H   0  0  0  0  0  0
   19.7146   13.3068  109.3148 H   0  0  0  0  0  0
   18.5074   13.1626  108.0112 H   0  0  0  0  0  0
   19.7695   17.1591  106.4687 H   0  0  0  0  0  0
   16.9918   18.2471  108.6127 H   0  0  0  0  0  0
   16.0366   18.5794  110.0621 H   0  0  0  0  0  0
   17.7960   18.4554  110.1794 H   0  0  0  0  0  0
   23.1185   13.5873  105.8082 H   0  0  0  0  0  0
   19.4910   15.3825  111.6266 H   0  0  0  0  0  0
   16.6531   12.1916  111.0782 H   0  0  0  0  0  0
   21.4783   17.3928  104.7382 H   0  0  0  0  0  0
   19.8095   14.6822  113.9699 H   0  0  0  0  0  0
   23.1186   15.5804  104.3614 H   0  0  0  0  0  0
   16.9581   11.5288  113.4198 H   0  0  0  0  0  0
   18.5422   12.7556  114.8649 H   0  0  0  0  0  0
  1  2  1  0  0  0
  1  4  1  0  0  0
  1  6  1  0  0  0
  2  3  2  0  0  0
  3  7  1  0  0  0
  3  5  1  0  0  0
  4  5  1  0  0  0
  4  9  1  0  0  0
  4 22  1  0  0  0
  5 23  1  0  0  0
  5 24  1  0  0  0
  6 10  2  0  0  0
  6 13  1  0  0  0
  7  8  1  0  0  0
  7 12  2  0  0  0
  8 11  1  0  0  0
  8 14  2  0  0  0
  9 15  1  0  0  0
  9 16  2  0  0  0
 12 17  1  0  0  0
 12 25  1  0  0  0
 13 26  1  0  0  0
 13 27  1  0  0  0
 13 28  1  0  0  0
 14 19  1  0  0  0
 14 29  1  0  0  0
 15 18  2  0  0  0
 15 30  1  0  0  0
 16 20  1  0  0  0
 16 31  1  0  0  0
 17 19  2  0  0  0
 17 32  1  0  0  0
 18 21  1  0  0  0
 18 33  1  0  0  0
 19 34  1  0  0  0
 20 21  2  0  0  0
 20 35  1  0  0  0
 21 36  1  0  0  0
M  END
> <s_m_entry_id>
74

> <s_m_entry_name>
dock_pv.73

> <s_m_Source_Path>
/home/csk/Desktop/cluster/DUD-E-result/kif11

> <s_m_Source_File>
dock_pv.maegz

> <i_m_Source_File_Index>
73

> <chembl_id>
CHEMBL195436

> <chembl_pref_name>
None

> <i_lp_mmshare_version>
53161

> <i_f3d_flags>
0

> <r_lp_tautomer_probability>
1

> <s_lp_Force_Field>
OPLS_2005

> <r_lp_Energy>
24.730424

> <b_lp_Chiralities_Consistent>
1

> <s_lp_Variant>
CHEMBL4581_lig31-2

> <s_i_glide_gridfile>
glide-grid_3cjo

> <i_i_glide_lignum>
49

> <i_i_glide_rotatable_bonds>
3

> <r_i_docking_score>
-8.7341635684964

> <r_i_glide_ligand_efficiency>
-0.415912550880781

> <r_i_glide_ligand_efficiency_sa>
-1.14747119072083

> <r_i_glide_ligand_efficiency_ln>
-2.15950429327144

> <r_i_glide_gscore>
-8.7341635684964

> <r_i_glide_lipo>
-4.19233228787737

> <r_i_glide_hbond>
0

> <r_i_glide_metal>
0

> <r_i_glide_rewards>
-2.69904988280839

> <r_i_glide_evdw>
-39.6410179138184

> <r_i_glide_ecoul>
-2.09815049171448

> <r_i_glide_erotb>
0.45399207163745

> <r_i_glide_esite>
0

> <r_i_glide_emodel>
-62.6406234852705

> <r_i_glide_energy>
-41.7391684055328

> <r_i_glide_einternal>
1.84984922409058

> <i_i_glide_confnum>
7

> <i_i_glide_posenum>
99

> <r_i_glide_eff_state_penalty>
0

> <s_user_duplicate_titles>
CHEMBL4581_lig31

> <s_m_subgroup_title>
dock_pv

> <s_m_subgroupid>
dock_pv

> <b_m_subgroup_collapsed>
1

$$$$
CHEMBL4581_lig49
                    3D
 Schrodinger Suite 2021-1.
 48 50  0  0  1  0            999 V2000
   22.6842   15.2070  105.3273 C   0  0  0  0  0  0
   21.6994   16.1896  105.3674 C   0  0  0  0  0  0
   20.6141   16.0532  106.2332 C   0  0  0  0  0  0
   20.4975   14.9423  107.0854 C   0  0  0  0  0  0
   21.5155   13.9663  107.0412 C   0  0  0  0  0  0
   22.5854   14.0983  106.1589 C   0  0  0  0  0  0
   19.3319   14.8547  108.0070 C   0  0  0  0  0  0
   18.4436   16.0264  108.3669 C   0  0  0  0  0  0
   17.4206   15.4886  109.2591 N   0  0  0  0  0  0
   17.7128   14.0713  109.5166 C   0  0  1  0  0  0
   18.8966   13.7527  108.6374 C   0  0  0  0  0  0
   17.9879   13.7288  110.9849 C   0  0  0  0  0  0
   18.8637   14.5090  111.7512 C   0  0  0  0  0  0
   19.0727   14.2073  113.0946 C   0  0  0  0  0  0
   18.3952   13.1375  113.6752 C   0  0  0  0  0  0
   17.5181   12.3625  112.9200 C   0  0  0  0  0  0
   17.3240   12.6499  111.5721 C   0  0  0  0  0  0
   16.3336   16.1215  109.7911 C   0  0  0  0  0  0
   15.5855   15.4911  110.5420 O   0  0  0  0  0  0
   21.5196   12.9092  107.8841 F   0  0  0  0  0  0
   21.7895   17.2676  104.5587 F   0  0  0  0  0  0
   16.0411   17.6585  109.6278 C   0  0  0  0  0  0
   14.5046   17.8951  109.7498 C   0  0  0  0  0  0
   16.6953   18.4241  110.8141 C   0  0  0  0  0  0
   16.4484   18.2805  108.2644 C   0  0  0  0  0  0
   18.1538   18.3618  110.8397 N   0  0  0  0  0  0
   23.5170   15.2987  104.6481 H   0  0  0  0  0  0
   19.8705   16.8355  106.2368 H   0  0  0  0  0  0
   23.3495   13.3422  106.1394 H   0  0  0  0  0  0
   19.0018   16.8323  108.8432 H   0  0  0  0  0  0
   17.9892   16.4314  107.4649 H   0  0  0  0  0  0
   16.8547   13.4822  109.1880 H   0  0  0  0  0  0
   19.2904   12.7517  108.5800 H   0  0  0  0  0  0
   19.3733   15.3513  111.3059 H   0  0  0  0  0  0
   19.7540   14.8017  113.6847 H   0  0  0  0  0  0
   18.5473   12.9069  114.7199 H   0  0  0  0  0  0
   16.9823   11.5429  113.3751 H   0  0  0  0  0  0
   16.6391   12.0465  110.9928 H   0  0  0  0  0  0
   14.2485   18.9537  109.6825 H   0  0  0  0  0  0
   13.9537   17.3835  108.9582 H   0  0  0  0  0  0
   14.1003   17.5447  110.7025 H   0  0  0  0  0  0
   16.3734   19.4672  110.7988 H   0  0  0  0  0  0
   16.3272   18.0205  111.7588 H   0  0  0  0  0  0
   15.9952   19.2638  108.1262 H   0  0  0  0  0  0
   17.5189   18.4472  108.1598 H   0  0  0  0  0  0
   16.1149   17.6646  107.4271 H   0  0  0  0  0  0
   18.5335   18.8955  110.0717 H   0  0  0  0  0  0
   18.4943   18.8110  111.6811 H   0  0  0  0  0  0
  1  6  1  0  0  0
  1  2  2  0  0  0
  1 27  1  0  0  0
  2 21  1  0  0  0
  2  3  1  0  0  0
  3  4  2  0  0  0
  3 28  1  0  0  0
  4  7  1  0  0  0
  4  5  1  0  0  0
  5  6  2  0  0  0
  5 20  1  0  0  0
  6 29  1  0  0  0
  7  8  1  0  0  0
  7 11  2  0  0  0
  8  9  1  0  0  0
  8 30  1  0  0  0
  8 31  1  0  0  0
  9 10  1  0  0  0
  9 18  1  0  0  0
 10 11  1  0  0  0
 10 12  1  0  0  0
 10 32  1  0  0  0
 11 33  1  0  0  0
 12 13  2  0  0  0
 12 17  1  0  0  0
 13 14  1  0  0  0
 13 34  1  0  0  0
 14 15  2  0  0  0
 14 35  1  0  0  0
 15 16  1  0  0  0
 15 36  1  0  0  0
 16 17  2  0  0  0
 16 37  1  0  0  0
 17 38  1  0  0  0
 18 19  2  0  0  0
 18 22  1  0  0  0
 22 23  1  0  0  0
 22 24  1  0  0  0
 22 25  1  0  0  0
 23 39  1  0  0  0
 23 40  1  0  0  0
 23 41  1  0  0  0
 24 26  1  0  0  0
 24 42  1  0  0  0
 24 43  1  0  0  0
 25 44  1  0  0  0
 25 45  1  0  0  0
 25 46  1  0  0  0
 26 47  1  0  0  0
 26 48  1  0  0  0
M  END
> <s_m_entry_id>
75

> <s_m_entry_name>
dock_pv.74

> <s_m_Source_Path>
/home/csk/Desktop/cluster/DUD-E-result/kif11

> <s_m_Source_File>
dock_pv.maegz

> <i_m_Source_File_Index>
74

> <chembl_id>
CHEMBL203045

> <chembl_pref_name>
None

> <i_lp_mmshare_version>
53161

> <i_f3d_flags>
0

> <r_lp_tautomer_probability>
1

> <s_lp_Force_Field>
OPLS_2005

> <r_lp_Energy>
38.422653

> <b_lp_Chiralities_Consistent>
1

> <s_lp_Variant>
CHEMBL4581_lig49-1

> <s_i_glide_gridfile>
glide-grid_3cjo

> <i_i_glide_lignum>
76

> <i_i_glide_rotatable_bonds>
5

> <r_i_docking_score>
-8.73184291754061

> <r_i_glide_ligand_efficiency>
-0.3358401122131

> <r_i_glide_ligand_efficiency_sa>
-0.994925010964279

> <r_i_glide_ligand_efficiency_ln>
-2.05064465767088

> <r_i_glide_gscore>
-8.73184291754061

> <r_i_glide_lipo>
-4.68389303502876

> <r_i_glide_hbond>
0

> <r_i_glide_metal>
0

> <r_i_glide_rewards>
-2.19494719142777

> <r_i_glide_evdw>
-40.8550567626953

> <r_i_glide_ecoul>
-2.7513530254364

> <r_i_glide_erotb>
0.602453100866144

> <r_i_glide_esite>
0

> <r_i_glide_emodel>
-65.8153777263552

> <r_i_glide_energy>
-43.6064097881317

> <r_i_glide_einternal>
2.7113299369812

> <i_i_glide_confnum>
24

> <i_i_glide_posenum>
197

> <r_i_glide_eff_state_penalty>
0

> <s_user_duplicate_titles>
CHEMBL4581_lig49,343232

> <s_m_subgroup_title>
dock_pv

> <s_m_subgroupid>
dock_pv

> <b_m_subgroup_collapsed>
1

$$$$
CHEMBL4581_lig238
                    3D
 Schrodinger Suite 2021-1.
 63 67  0  0  1  0            999 V2000
   22.6163   14.9973  105.5359 C   0  0  0  0  0  0
   21.6887   16.0345  105.3947 C   0  0  0  0  0  0
   20.5128   16.0189  106.1445 C   0  0  0  0  0  0
   22.3822   13.9624  106.4443 C   0  0  0  0  0  0
   21.2311   13.9774  107.2296 C   0  0  0  0  0  0
   20.2645   14.9847  107.0506 C   0  0  0  0  0  0
   20.1370   13.2459  109.1950 C   0  0  0  0  0  0
   21.1182   12.9826  108.1760 O   0  0  0  0  0  0
   18.7808   13.7685  108.6324 C   0  0  2  0  0  0
   19.0654   14.9048  107.7719 N   0  0  0  0  0  0
   18.6629   16.0941  108.3993 N   0  0  0  0  0  0
   17.8888   15.8104  109.3678 C   0  0  0  0  0  0
   17.6915   14.2922  109.6087 C   0  0  1  0  0  0
   16.2450   13.8394  109.1261 C   0  0  0  0  0  0
   17.2223   16.8580  110.1521 C   0  0  0  0  0  0
   16.3218   16.6182  110.9572 O   0  0  0  0  0  0
   17.9635   13.8603  111.0952 C   0  0  0  0  0  0
   17.3591   12.7204  111.6570 C   0  0  0  0  0  0
   17.5843   12.3619  112.9799 C   0  0  0  0  0  0
   18.4632   13.1004  113.7590 C   0  0  0  0  0  0
   19.1177   14.2010  113.2225 C   0  0  0  0  0  0
   18.8697   14.5768  111.9055 C   0  0  0  0  0  0
   15.8601   13.8612  107.6178 C   0  0  0  0  0  0
   15.6448   15.2345  106.9387 C   0  0  0  0  0  0
   17.6966   18.3034  109.9883 C   0  0  0  0  0  0
   15.5355   15.2046  105.4727 N   0  0  0  0  0  0
   15.3143   16.5788  104.9901 C   0  0  0  0  0  0
   15.3547   16.7051  103.4503 C   0  0  0  0  0  0
   16.5608   16.1422  102.9406 O   0  0  0  0  0  0
   16.6590   14.7616  103.2694 C   0  0  0  0  0  0
   16.6868   14.5724  104.8012 C   0  0  0  0  0  0
   21.9383   17.1640  104.4203 C   0  0  0  0  0  0
   18.3603   12.9472  108.0591 H   0  0  0  0  0  0
   23.5180   14.9917  104.9438 H   0  0  0  0  0  0
   19.7803   16.8027  106.0164 H   0  0  0  0  0  0
   23.1118   13.1743  106.5578 H   0  0  0  0  0  0
   19.9487   12.3448  109.7587 H   0  0  0  0  0  0
   20.5614   13.9651  109.8869 H   0  0  0  0  0  0
   16.1064   12.7876  109.3556 H   0  0  0  0  0  0
   15.4812   14.3581  109.7057 H   0  0  0  0  0  0
   16.6898   12.0775  111.1126 H   0  0  0  0  0  0
   17.0717   11.5083  113.3940 H   0  0  0  0  0  0
   18.6438   12.8097  114.7846 H   0  0  0  0  0  0
   19.8151   14.7625  113.8259 H   0  0  0  0  0  0
   19.4022   15.4357  111.5227 H   0  0  0  0  0  0
   16.5010   13.1945  107.0458 H   0  0  0  0  0  0
   14.8874   13.3682  107.5696 H   0  0  0  0  0  0
   14.7125   15.6430  107.3334 H   0  0  0  0  0  0
   16.4037   15.9506  107.2333 H   0  0  0  0  0  0
   17.6094   18.6226  108.9496 H   0  0  0  0  0  0
   17.0979   18.9756  110.6043 H   0  0  0  0  0  0
   18.7395   18.3961  110.2922 H   0  0  0  0  0  0
   14.3721   16.9617  105.3838 H   0  0  0  0  0  0
   16.0958   17.2152  105.4028 H   0  0  0  0  0  0
   15.3165   17.7573  103.1675 H   0  0  0  0  0  0
   14.4816   16.2297  102.9977 H   0  0  0  0  0  0
   17.5697   14.3634  102.8267 H   0  0  0  0  0  0
   15.8317   14.2013  102.8289 H   0  0  0  0  0  0
   17.6150   14.9957  105.1913 H   0  0  0  0  0  0
   16.7225   13.5060  105.0190 H   0  0  0  0  0  0
   22.9196   17.5997  104.6048 H   0  0  0  0  0  0
   21.2014   17.9618  104.5195 H   0  0  0  0  0  0
   21.9180   16.7974  103.3936 H   0  0  0  0  0  0
  1  4  1  0  0  0
  1  2  2  0  0  0
  1 34  1  0  0  0
  2  3  1  0  0  0
  2 32  1  0  0  0
  3  6  2  0  0  0
  3 35  1  0  0  0
  4  5  2  0  0  0
  4 36  1  0  0  0
  5  8  1  0  0  0
  5  6  1  0  0  0
  6 10  1  0  0  0
  7  9  1  0  0  0
  7  8  1  0  0  0
  7 37  1  0  0  0
  7 38  1  0  0  0
  9 10  1  0  0  0
  9 13  1  0  0  0
  9 33  1  0  0  0
 10 11  1  0  0  0
 11 12  2  0  0  0
 12 15  1  0  0  0
 12 13  1  0  0  0
 13 17  1  0  0  0
 13 14  1  0  0  0
 14 23  1  0  0  0
 14 39  1  0  0  0
 14 40  1  0  0  0
 15 16  2  0  0  0
 15 25  1  0  0  0
 17 18  2  0  0  0
 17 22  1  0  0  0
 18 19  1  0  0  0
 18 41  1  0  0  0
 19 20  2  0  0  0
 19 42  1  0  0  0
 20 21  1  0  0  0
 20 43  1  0  0  0
 21 22  2  0  0  0
 21 44  1  0  0  0
 22 45  1  0  0  0
 23 24  1  0  0  0
 23 46  1  0  0  0
 23 47  1  0  0  0
 24 26  1  0  0  0
 24 48  1  0  0  0
 24 49  1  0  0  0
 25 50  1  0  0  0
 25 51  1  0  0  0
 25 52  1  0  0  0
 26 27  1  0  0  0
 26 31  1  0  0  0
 27 28  1  0  0  0
 27 53  1  0  0  0
 27 54  1  0  0  0
 28 29  1  0  0  0
 28 55  1  0  0  0
 28 56  1  0  0  0
 29 30  1  0  0  0
 30 31  1  0  0  0
 30 57  1  0  0  0
 30 58  1  0  0  0
 31 59  1  0  0  0
 31 60  1  0  0  0
 32 61  1  0  0  0
 32 62  1  0  0  0
 32 63  1  0  0  0
M  END
> <s_m_entry_id>
76

> <s_m_entry_name>
dock_pv.75

> <s_m_Source_Path>
/home/csk/Desktop/cluster/DUD-E-result/kif11

> <s_m_Source_File>
dock_pv.maegz

> <i_m_Source_File_Index>
75

> <chembl_id>
CHEMBL399378

> <chembl_pref_name>
None

> <i_lp_mmshare_version>
53161

> <i_f3d_flags>
0

> <r_lp_tautomer_probability>
1

> <s_lp_Force_Field>
OPLS_2005

> <r_lp_Energy>
59.257386

> <b_lp_Chiralities_Consistent>
1

> <s_lp_Variant>
CHEMBL4581_lig238-1

> <s_i_glide_gridfile>
glide-grid_3cjo

> <i_i_glide_lignum>
361

> <i_i_glide_rotatable_bonds>
6

> <r_i_docking_score>
-8.73166744195067

> <r_i_glide_ligand_efficiency>
-0.272864607560958

> <r_i_glide_ligand_efficiency_sa>
-0.866291129173532

> <r_i_glide_ligand_efficiency_ln>
-1.95525835651779

> <r_i_glide_gscore>
-8.73166744195067

> <r_i_glide_lipo>
-5.08461763422062

> <r_i_glide_hbond>
0

> <r_i_glide_metal>
0

> <r_i_glide_rewards>
-1.21389973924277

> <r_i_glide_evdw>
-49.0512580871582

> <r_i_glide_ecoul>
-2.69503092765808

> <r_i_glide_erotb>
0.423667475019347

> <r_i_glide_esite>
0

> <r_i_glide_emodel>
-74.921510431619

> <r_i_glide_energy>
-51.7462890148163

> <r_i_glide_einternal>
3.45989608764648

> <i_i_glide_confnum>
4

> <i_i_glide_posenum>
320

> <r_i_glide_eff_state_penalty>
0

> <s_user_duplicate_titles>
CHEMBL4581_lig238,414284

> <s_m_subgroup_title>
dock_pv

> <s_m_subgroupid>
dock_pv

> <b_m_subgroup_collapsed>
1

$$$$
CHEMBL4581_lig203
                    3D
 Schrodinger Suite 2021-1.
 53 55  0  0  1  0            999 V2000
   22.6550   15.1342  105.3534 C   0  0  0  0  0  0
   21.7633   16.1940  105.4915 C   0  0  0  0  0  0
   20.7304   16.1190  106.4251 C   0  0  0  0  0  0
   20.5805   14.9882  107.2505 C   0  0  0  0  0  0
   21.5177   13.9431  107.1214 C   0  0  0  0  0  0
   22.5181   14.0087  106.1589 C   0  0  0  0  0  0
   21.8863   17.2847  104.7044 F   0  0  0  0  0  0
   21.5183   12.8650  107.9390 F   0  0  0  0  0  0
   19.4701   14.9531  108.2305 C   0  0  0  0  0  0
   18.8040   15.9647  108.6104 N   0  0  0  0  0  0
   17.8296   15.6197  109.4935 N   0  0  0  0  0  0
   17.7469   14.1483  109.6843 C   0  0  1  0  0  0
   18.9787   13.6899  108.8887 C   0  0  0  0  0  0
   17.0975   16.5682  110.1469 C   0  0  0  0  0  0
   16.2155   16.2853  110.9590 O   0  0  0  0  0  0
   17.9151   13.7232  111.1739 C   0  0  0  0  0  0
   16.4284   13.5801  109.0279 C   0  0  0  0  0  0
   17.1273   12.7183  111.7595 C   0  0  0  0  0  0
   17.3182   12.3591  113.0899 C   0  0  0  0  0  0
   18.3007   12.9852  113.8466 C   0  0  0  0  0  0
   19.0959   13.9789  113.2878 C   0  0  0  0  0  0
   18.8975   14.3492  111.9617 C   0  0  0  0  0  0
   16.1778   13.8437  107.5184 C   0  0  0  0  0  0
   15.5328   15.2030  107.1486 C   0  0  0  0  0  0
   15.7219   15.6259  105.7562 N   0  0  0  0  0  0
   17.3646   18.0552  109.8751 C   0  0  0  0  0  0
   15.1833   14.6745  104.7875 C   0  0  0  0  0  0
   17.1098   15.9593  105.4474 C   0  0  0  0  0  0
   23.4381   15.1717  104.6114 H   0  0  0  0  0  0
   20.0499   16.9557  106.4979 H   0  0  0  0  0  0
   23.1794   13.1676  106.0442 H   0  0  0  0  0  0
   18.7182   12.9283  108.1602 H   0  0  0  0  0  0
   19.7549   13.2732  109.5320 H   0  0  0  0  0  0
   16.4530   12.4936  109.1200 H   0  0  0  0  0  0
   15.5572   13.9052  109.5981 H   0  0  0  0  0  0
   16.3578   12.1977  111.2130 H   0  0  0  0  0  0
   16.7019   11.5870  113.5281 H   0  0  0  0  0  0
   18.4494   12.6948  114.8780 H   0  0  0  0  0  0
   19.8607   14.4617  113.8779 H   0  0  0  0  0  0
   19.5229   15.1221  111.5403 H   0  0  0  0  0  0
   17.0329   13.5966  106.8914 H   0  0  0  0  0  0
   15.4420   13.0934  107.2234 H   0  0  0  0  0  0
   14.4582   15.1383  107.3278 H   0  0  0  0  0  0
   15.8596   16.0008  107.8097 H   0  0  0  0  0  0
   17.4372   18.2563  108.8054 H   0  0  0  0  0  0
   16.5567   18.6693  110.2786 H   0  0  0  0  0  0
   18.2973   18.3636  110.3499 H   0  0  0  0  0  0
   14.1329   14.4663  104.9949 H   0  0  0  0  0  0
   15.2415   15.0808  103.7774 H   0  0  0  0  0  0
   15.7267   13.7282  104.7996 H   0  0  0  0  0  0
   17.5056   16.6628  106.1799 H   0  0  0  0  0  0
   17.7566   15.0819  105.4389 H   0  0  0  0  0  0
   17.1771   16.4352  104.4686 H   0  0  0  0  0  0
  1  2  2  0  0  0
  1  6  1  0  0  0
  1 29  1  0  0  0
  2  7  1  0  0  0
  2  3  1  0  0  0
  3  4  2  0  0  0
  3 30  1  0  0  0
  4  9  1  0  0  0
  4  5  1  0  0  0
  5  8  1  0  0  0
  5  6  2  0  0  0
  6 31  1  0  0  0
  9 10  2  0  0  0
  9 13  1  0  0  0
 10 11  1  0  0  0
 11 14  1  0  0  0
 11 12  1  0  0  0
 12 16  1  0  0  0
 12 17  1  0  0  0
 12 13  1  0  0  0
 13 32  1  0  0  0
 13 33  1  0  0  0
 14 15  2  0  0  0
 14 26  1  0  0  0
 16 18  2  0  0  0
 16 22  1  0  0  0
 17 23  1  0  0  0
 17 34  1  0  0  0
 17 35  1  0  0  0
 18 19  1  0  0  0
 18 36  1  0  0  0
 19 20  2  0  0  0
 19 37  1  0  0  0
 20 21  1  0  0  0
 20 38  1  0  0  0
 21 22  2  0  0  0
 21 39  1  0  0  0
 22 40  1  0  0  0
 23 24  1  0  0  0
 23 41  1  0  0  0
 23 42  1  0  0  0
 24 25  1  0  0  0
 24 43  1  0  0  0
 24 44  1  0  0  0
 25 27  1  0  0  0
 25 28  1  0  0  0
 26 45  1  0  0  0
 26 46  1  0  0  0
 26 47  1  0  0  0
 27 48  1  0  0  0
 27 49  1  0  0  0
 27 50  1  0  0  0
 28 51  1  0  0  0
 28 52  1  0  0  0
 28 53  1  0  0  0
M  END
> <s_m_entry_id>
77

> <s_m_entry_name>
dock_pv.76

> <s_m_Source_Path>
/home/csk/Desktop/cluster/DUD-E-result/kif11

> <s_m_Source_File>
dock_pv.maegz

> <i_m_Source_File_Index>
76

> <chembl_id>
CHEMBL392148

> <chembl_pref_name>
None

> <i_lp_mmshare_version>
53161

> <i_f3d_flags>
0

> <r_lp_tautomer_probability>
1

> <s_lp_Force_Field>
OPLS_2005

> <r_lp_Energy>
33.411109

> <b_lp_Chiralities_Consistent>
1

> <s_lp_Variant>
CHEMBL4581_lig203-1

> <s_i_glide_gridfile>
glide-grid_3cjo

> <i_i_glide_lignum>
310

> <i_i_glide_rotatable_bonds>
7

> <r_i_docking_score>
-8.72816258749413

> <r_i_glide_ligand_efficiency>
-0.311720092410505

> <r_i_glide_ligand_efficiency_sa>
-0.946565793874418

> <r_i_glide_ligand_efficiency_ln>
-2.01471619518284

> <r_i_glide_gscore>
-8.72816258749413

> <r_i_glide_lipo>
-4.48338168413513

> <r_i_glide_hbond>
0

> <r_i_glide_metal>
0

> <r_i_glide_rewards>
-2.39983904990702

> <r_i_glide_evdw>
-43.9975814819336

> <r_i_glide_ecoul>
-1.99822533130646

> <r_i_glide_erotb>
0.654671020340666

> <r_i_glide_esite>
0

> <r_i_glide_emodel>
-67.7461292458285

> <r_i_glide_energy>
-45.9958068132401

> <r_i_glide_einternal>
6.44201040267944

> <i_i_glide_confnum>
103

> <i_i_glide_posenum>
155

> <r_i_glide_eff_state_penalty>
0

> <s_user_duplicate_titles>
CHEMBL4581_lig203,402087

> <s_m_subgroup_title>
dock_pv

> <s_m_subgroupid>
dock_pv

> <b_m_subgroup_collapsed>
1

$$$$
CHEMBL4581_lig768
                    3D
 Schrodinger Suite 2021-1.
 40 43  0  0  1  0            999 V2000
   17.8956   14.4498  109.9388 C   0  0  1  0  0  0
   16.5268   13.8356  109.5605 C   0  0  0  0  0  0
   16.4796   12.3617  109.9609 C   0  0  0  0  0  0
   16.7180   12.1364  111.3451 O   0  0  0  0  0  0
   19.1462   13.6445  108.9400 S   0  0  0  0  0  0
   19.5177   15.1845  108.1306 C   0  0  0  0  0  0
   18.8588   16.1891  108.5554 N   0  0  0  0  0  0
   17.9932   15.8720  109.5490 N   0  0  0  0  0  0
   20.5366   15.2360  107.0566 C   0  0  0  0  0  0
   20.5663   16.3623  106.2161 C   0  0  0  0  0  0
   21.5261   16.4869  105.2174 C   0  0  0  0  0  0
   22.4642   15.4811  105.0256 C   0  0  0  0  0  0
   22.4634   14.3624  105.8491 C   0  0  0  0  0  0
   21.5180   14.2374  106.8653 C   0  0  0  0  0  0
   17.2247   16.8425  110.1307 C   0  0  0  0  0  0
   16.4174   16.5931  111.0331 O   0  0  0  0  0  0
   17.3631   18.3069  109.6402 C   0  0  0  0  0  0
   21.6363   13.1620  107.6772 F   0  0  0  0  0  0
   21.5232   17.5619  104.4026 F   0  0  0  0  0  0
   18.2360   14.0785  111.3860 C   0  0  0  0  0  0
   17.6598   12.9265  111.9594 C   0  0  0  0  0  0
   17.9903   12.5099  113.2416 C   0  0  0  0  0  0
   18.9356   13.2143  113.9706 C   0  0  0  0  0  0
   19.5182   14.3606  113.4288 C   0  0  0  0  0  0
   19.1603   14.7955  112.1561 C   0  0  0  0  0  0
   16.3173   19.1130  110.1589 O   0  0  0  0  0  0
   16.3317   13.9393  108.4916 H   0  0  0  0  0  0
   15.7112   14.3499  110.0688 H   0  0  0  0  0  0
   17.1194   11.7564  109.3370 H   0  0  0  0  0  0
   15.5180   11.9620  109.7397 H   0  0  0  0  0  0
   19.8487   17.1618  106.3317 H   0  0  0  0  0  0
   23.1680   15.5551  104.2153 H   0  0  0  0  0  0
   23.1941   13.5823  105.6991 H   0  0  0  0  0  0
   18.3220   18.7107  109.9669 H   0  0  0  0  0  0
   17.3313   18.3658  108.5519 H   0  0  0  0  0  0
   17.5203   11.6325  113.6576 H   0  0  0  0  0  0
   19.2056   12.8736  114.9579 H   0  0  0  0  0  0
   20.2555   14.9074  113.9976 H   0  0  0  0  0  0
   19.6384   15.6753  111.7496 H   0  0  0  0  0  0
   16.1105   18.8014  111.0467 H   0  0  0  0  0  0
  1  2  1  0  0  0
  1 20  1  0  0  0
  1  8  1  0  0  0
  1  5  1  0  0  0
  2  3  1  0  0  0
  2 27  1  0  0  0
  2 28  1  0  0  0
  3  4  1  0  0  0
  3 29  1  0  0  0
  3 30  1  0  0  0
  4 21  1  0  0  0
  5  6  1  0  0  0
  6  7  2  0  0  0
  6  9  1  0  0  0
  7  8  1  0  0  0
  8 15  1  0  0  0
  9 10  2  0  0  0
  9 14  1  0  0  0
 10 11  1  0  0  0
 10 31  1  0  0  0
 11 12  2  0  0  0
 11 19  1  0  0  0
 12 13  1  0  0  0
 12 32  1  0  0  0
 13 14  2  0  0  0
 13 33  1  0  0  0
 14 18  1  0  0  0
 15 16  2  0  0  0
 15 17  1  0  0  0
 17 26  1  0  0  0
 17 34  1  0  0  0
 17 35  1  0  0  0
 20 21  2  0  0  0
 20 25  1  0  0  0
 21 22  1  0  0  0
 22 23  2  0  0  0
 22 36  1  0  0  0
 23 24  1  0  0  0
 23 37  1  0  0  0
 24 25  2  0  0  0
 24 38  1  0  0  0
 25 39  1  0  0  0
 26 40  1  0  0  0
M  END
> <s_m_entry_id>
78

> <s_m_entry_name>
dock_pv.77

> <s_m_Source_Path>
/home/csk/Desktop/cluster/DUD-E-result/kif11

> <s_m_Source_File>
dock_pv.maegz

> <i_m_Source_File_Index>
77

> <chembl_id>
CHEMBL3402346

> <chembl_pref_name>
None

> <i_lp_mmshare_version>
53161

> <i_f3d_flags>
0

> <r_lp_tautomer_probability>
1

> <s_lp_Force_Field>
OPLS_2005

> <r_lp_Energy>
27.725001

> <b_lp_Chiralities_Consistent>
1

> <s_lp_Variant>
CHEMBL4581_lig768-2

> <s_i_glide_gridfile>
glide-grid_3cjo

> <i_i_glide_lignum>
1142

> <i_i_glide_rotatable_bonds>
4

> <r_i_docking_score>
-8.72794167680926

> <r_i_glide_ligand_efficiency>
-0.335690064492664

> <r_i_glide_ligand_efficiency_sa>
-0.994480495182895

> <r_i_glide_ligand_efficiency_ln>
-2.04972846408613

> <r_i_glide_gscore>
-8.72794167680926

> <r_i_glide_lipo>
-4.25060608524295

> <r_i_glide_hbond>
0

> <r_i_glide_metal>
0

> <r_i_glide_rewards>
-2.49334446921515

> <r_i_glide_evdw>
-41.8380584716797

> <r_i_glide_ecoul>
-2.01346325874329

> <r_i_glide_erotb>
0.409931290044323

> <r_i_glide_esite>
0

> <r_i_glide_emodel>
-64.0511811750112

> <r_i_glide_energy>
-43.851521730423

> <r_i_glide_einternal>
3.49038290977478

> <i_i_glide_confnum>
24

> <i_i_glide_posenum>
27

> <r_i_glide_eff_state_penalty>
0

> <s_user_duplicate_titles>
CHEMBL4581_lig768

> <s_m_subgroup_title>
dock_pv

> <s_m_subgroupid>
dock_pv

> <b_m_subgroup_collapsed>
1

$$$$
CHEMBL4581_lig103
                    3D
 Schrodinger Suite 2021-1.
 51 53  0  0  1  0            999 V2000
   22.5877   14.2789  106.0810 C   0  0  0  0  0  0
   22.7144   15.3657  105.2245 C   0  0  0  0  0  0
   21.7861   16.3983  105.2600 C   0  0  0  0  0  0
   20.6980   16.3176  106.1201 C   0  0  0  0  0  0
   20.5249   15.2030  106.9588 C   0  0  0  0  0  0
   21.5095   14.1947  106.9583 C   0  0  0  0  0  0
   21.4887   13.1610  107.8299 F   0  0  0  0  0  0
   21.9177   17.4587  104.4337 F   0  0  0  0  0  0
   19.3337   15.1657  107.8211 C   0  0  0  0  0  0
   18.7169   16.1965  108.2228 N   0  0  0  0  0  0
   17.6143   15.8635  108.9288 N   0  0  0  0  0  0
   17.4740   14.3918  109.1064 C   0  0  1  0  0  0
   18.6550   13.8961  108.2566 C   0  0  0  0  0  0
   17.6843   13.9476  110.5870 C   0  0  0  0  0  0
   17.1107   12.7648  111.0824 C   0  0  0  0  0  0
   17.3224   12.3652  112.3998 C   0  0  0  0  0  0
   18.1218   13.1353  113.2380 C   0  0  0  0  0  0
   18.7177   14.2992  112.7645 C   0  0  0  0  0  0
   18.5013   14.7007  111.4490 C   0  0  0  0  0  0
   16.6855   16.8235  109.1459 C   0  0  0  0  0  0
   16.4927   17.1004  110.4445 N   0  0  0  0  0  0
   16.1549   17.4645  108.2348 O   0  0  0  0  0  0
   15.7486   18.2606  110.9291 C   0  0  0  0  0  0
   16.1286   13.8404  108.4892 C   0  0  0  0  0  0
   14.3255   17.8934  111.3611 C   0  0  0  0  0  0
   15.7053   14.3837  107.0941 C   0  0  0  0  0  0
   14.7350   13.4888  106.3005 C   0  0  0  0  0  0
   15.3935   12.3620  105.7589 O   0  0  0  0  0  0
   23.3294   13.4989  106.0667 H   0  0  0  0  0  0
   23.5191   15.4012  104.5173 H   0  0  0  0  0  0
   19.9813   17.1280  106.1107 H   0  0  0  0  0  0
   19.3252   13.2557  108.8300 H   0  0  0  0  0  0
   18.3181   13.3373  107.3828 H   0  0  0  0  0  0
   16.4944   12.1322  110.4627 H   0  0  0  0  0  0
   16.8471   11.4728  112.7762 H   0  0  0  0  0  0
   18.2826   12.8244  114.2608 H   0  0  0  0  0  0
   19.3512   14.8855  113.4135 H   0  0  0  0  0  0
   18.9964   15.5953  111.1000 H   0  0  0  0  0  0
   17.0014   16.5633  111.1300 H   0  0  0  0  0  0
   16.3067   18.6881  111.7590 H   0  0  0  0  0  0
   15.7078   19.0584  110.1825 H   0  0  0  0  0  0
   16.2068   12.7572  108.4078 H   0  0  0  0  0  0
   15.3075   14.0204  109.1854 H   0  0  0  0  0  0
   13.7886   18.7760  111.7099 H   0  0  0  0  0  0
   13.7546   17.4644  110.5364 H   0  0  0  0  0  0
   14.3446   17.1780  112.1816 H   0  0  0  0  0  0
   15.2082   15.3425  107.2316 H   0  0  0  0  0  0
   16.5749   14.5982  106.4710 H   0  0  0  0  0  0
   13.9336   13.1333  106.9498 H   0  0  0  0  0  0
   14.2584   14.0571  105.5010 H   0  0  0  0  0  0
   15.5177   11.7013  106.4576 H   0  0  0  0  0  0
  1  2  2  0  0  0
  1  6  1  0  0  0
  1 29  1  0  0  0
  2  3  1  0  0  0
  2 30  1  0  0  0
  3  4  2  0  0  0
  3  8  1  0  0  0
  4  5  1  0  0  0
  4 31  1  0  0  0
  5  9  1  0  0  0
  5  6  2  0  0  0
  6  7  1  0  0  0
  9 10  2  0  0  0
  9 13  1  0  0  0
 10 11  1  0  0  0
 11 20  1  0  0  0
 11 12  1  0  0  0
 12 14  1  0  0  0
 12 24  1  0  0  0
 12 13  1  0  0  0
 13 32  1  0  0  0
 13 33  1  0  0  0
 14 15  2  0  0  0
 14 19  1  0  0  0
 15 16  1  0  0  0
 15 34  1  0  0  0
 16 17  2  0  0  0
 16 35  1  0  0  0
 17 18  1  0  0  0
 17 36  1  0  0  0
 18 19  2  0  0  0
 18 37  1  0  0  0
 19 38  1  0  0  0
 20 21  1  0  0  0
 20 22  2  0  0  0
 21 23  1  0  0  0
 21 39  1  0  0  0
 23 25  1  0  0  0
 23 40  1  0  0  0
 23 41  1  0  0  0
 24 26  1  0  0  0
 24 42  1  0  0  0
 24 43  1  0  0  0
 25 44  1  0  0  0
 25 45  1  0  0  0
 25 46  1  0  0  0
 26 27  1  0  0  0
 26 47  1  0  0  0
 26 48  1  0  0  0
 27 28  1  0  0  0
 27 49  1  0  0  0
 27 50  1  0  0  0
 28 51  1  0  0  0
M  END
> <s_m_entry_id>
79

> <s_m_entry_name>
dock_pv.78

> <s_m_Source_Path>
/home/csk/Desktop/cluster/DUD-E-result/kif11

> <s_m_Source_File>
dock_pv.maegz

> <i_m_Source_File_Index>
78

> <chembl_id>
CHEMBL383759

> <chembl_pref_name>
None

> <i_lp_mmshare_version>
53161

> <i_f3d_flags>
0

> <r_lp_tautomer_probability>
1

> <s_lp_Force_Field>
OPLS_2005

> <r_lp_Energy>
31.933294

> <b_lp_Chiralities_Consistent>
1

> <s_lp_Variant>
CHEMBL4581_lig103-2

> <s_i_glide_gridfile>
glide-grid_3cjo

> <i_i_glide_lignum>
175

> <i_i_glide_rotatable_bonds>
9

> <r_i_docking_score>
-8.70876029282767

> <r_i_glide_ligand_efficiency>
-0.311027153315274

> <r_i_glide_ligand_efficiency_sa>
-0.944461622661996

> <r_i_glide_ligand_efficiency_ln>
-2.0102375758977

> <r_i_glide_gscore>
-8.70876029282767

> <r_i_glide_lipo>
-4.04329617561915

> <r_i_glide_hbond>
-0.32

> <r_i_glide_metal>
0

> <r_i_glide_rewards>
-2.33107916201109

> <r_i_glide_evdw>
-42.856388092041

> <r_i_glide_ecoul>
-5.19831371307373

> <r_i_glide_erotb>
0.908181506365669

> <r_i_glide_esite>
0

> <r_i_glide_emodel>
-68.5381965843767

> <r_i_glide_energy>
-48.0547018051147

> <r_i_glide_einternal>
7.27607250213623

> <i_i_glide_confnum>
75

> <i_i_glide_posenum>
257

> <r_i_glide_eff_state_penalty>
0

> <s_user_duplicate_titles>
CHEMBL4581_lig103,347516

> <s_m_subgroup_title>
dock_pv

> <s_m_subgroupid>
dock_pv

> <b_m_subgroup_collapsed>
1

$$$$
CHEMBL4581_lig239
                    3D
 Schrodinger Suite 2021-1.
 60 64  0  0  1  0            999 V2000
   22.5433   15.2134  105.4212 C   0  0  0  0  0  0
   21.6438   16.2781  105.3590 C   0  0  0  0  0  0
   20.4969   16.2763  106.1544 C   0  0  0  0  0  0
   22.3179   14.1632  106.3085 C   0  0  0  0  0  0
   21.2012   14.1864  107.1448 C   0  0  0  0  0  0
   20.2516   15.2150  107.0353 C   0  0  0  0  0  0
   20.1426   13.3326  109.1028 C   0  0  0  0  0  0
   21.1180   13.1619  108.0667 O   0  0  0  0  0  0
   18.7951   13.9320  108.6019 C   0  0  2  0  0  0
   19.0708   15.1018  107.7834 N   0  0  0  0  0  0
   18.6171   16.2657  108.4152 N   0  0  0  0  0  0
   17.8712   15.9399  109.3936 C   0  0  0  0  0  0
   17.7401   14.4140  109.6360 C   0  0  1  0  0  0
   16.2975   13.8917  109.2419 C   0  0  0  0  0  0
   17.1821   16.9495  110.2010 C   0  0  0  0  0  0
   16.2521   16.6750  110.9589 O   0  0  0  0  0  0
   18.0815   13.9736  111.1034 C   0  0  0  0  0  0
   17.5182   12.8103  111.6601 C   0  0  0  0  0  0
   17.7928   12.4344  112.9696 C   0  0  0  0  0  0
   18.6699   13.1873  113.7385 C   0  0  0  0  0  0
   19.2700   14.3229  113.2058 C   0  0  0  0  0  0
   18.9802   14.7099  111.9007 C   0  0  0  0  0  0
   15.5990   14.3637  107.9370 C   0  0  0  0  0  0
   16.1614   13.7550  106.6308 C   0  0  0  0  0  0
   17.6829   18.3941  110.1350 C   0  0  0  0  0  0
   21.9177   17.5610  104.2403 Cl  0  0  0  0  0  0
   15.1982   13.7911  105.5279 N   0  0  0  0  0  0
   14.1566   12.7594  105.6638 C   0  0  0  0  0  0
   13.1929   12.7692  104.4558 C   0  0  0  0  0  0
   13.9177   12.6345  103.2367 O   0  0  0  0  0  0
   14.8800   13.6703  103.0630 C   0  0  0  0  0  0
   15.8860   13.6713  104.2349 C   0  0  0  0  0  0
   18.3478   13.1613  107.9773 H   0  0  0  0  0  0
   23.4141   15.1968  104.7827 H   0  0  0  0  0  0
   19.7856   17.0853  106.0697 H   0  0  0  0  0  0
   23.0214   13.3471  106.3694 H   0  0  0  0  0  0
   19.9587   12.3620  109.5579 H   0  0  0  0  0  0
   20.5854   13.9629  109.8660 H   0  0  0  0  0  0
   16.3002   12.8024  109.1945 H   0  0  0  0  0  0
   15.6173   14.1410  110.0588 H   0  0  0  0  0  0
   16.8448   12.1751  111.1081 H   0  0  0  0  0  0
   17.3174   11.5618  113.3862 H   0  0  0  0  0  0
   18.8871   12.8854  114.7536 H   0  0  0  0  0  0
   19.9645   14.8960  113.8011 H   0  0  0  0  0  0
   19.4708   15.5920  111.5161 H   0  0  0  0  0  0
   14.5218   14.2163  108.0132 H   0  0  0  0  0  0
   15.6971   15.4468  107.8656 H   0  0  0  0  0  0
   17.0279   14.3498  106.3412 H   0  0  0  0  0  0
   16.5344   12.7412  106.7866 H   0  0  0  0  0  0
   17.6660   18.7613  109.1093 H   0  0  0  0  0  0
   17.0516   19.0437  110.7415 H   0  0  0  0  0  0
   18.7037   18.4613  110.5106 H   0  0  0  0  0  0
   14.6200   11.7761  105.7586 H   0  0  0  0  0  0
   13.5886   12.9058  106.5809 H   0  0  0  0  0  0
   12.5971   13.6830  104.4431 H   0  0  0  0  0  0
   12.4887   11.9417  104.5379 H   0  0  0  0  0  0
   14.3849   14.6390  102.9749 H   0  0  0  0  0  0
   15.4051   13.5047  102.1230 H   0  0  0  0  0  0
   16.5897   14.4974  104.1181 H   0  0  0  0  0  0
   16.4887   12.7616  104.2154 H   0  0  0  0  0  0
  1  4  1  0  0  0
  1  2  2  0  0  0
  1 34  1  0  0  0
  2  3  1  0  0  0
  2 26  1  0  0  0
  3  6  2  0  0  0
  3 35  1  0  0  0
  4  5  2  0  0  0
  4 36  1  0  0  0
  5  8  1  0  0  0
  5  6  1  0  0  0
  6 10  1  0  0  0
  7  9  1  0  0  0
  7  8  1  0  0  0
  7 37  1  0  0  0
  7 38  1  0  0  0
  9 10  1  0  0  0
  9 13  1  0  0  0
  9 33  1  0  0  0
 10 11  1  0  0  0
 11 12  2  0  0  0
 12 15  1  0  0  0
 12 13  1  0  0  0
 13 17  1  0  0  0
 13 14  1  0  0  0
 14 23  1  0  0  0
 14 39  1  0  0  0
 14 40  1  0  0  0
 15 16  2  0  0  0
 15 25  1  0  0  0
 17 18  2  0  0  0
 17 22  1  0  0  0
 18 19  1  0  0  0
 18 41  1  0  0  0
 19 20  2  0  0  0
 19 42  1  0  0  0
 20 21  1  0  0  0
 20 43  1  0  0  0
 21 22  2  0  0  0
 21 44  1  0  0  0
 22 45  1  0  0  0
 23 24  1  0  0  0
 23 46  1  0  0  0
 23 47  1  0  0  0
 24 27  1  0  0  0
 24 48  1  0  0  0
 24 49  1  0  0  0
 25 50  1  0  0  0
 25 51  1  0  0  0
 25 52  1  0  0  0
 27 28  1  0  0  0
 27 32  1  0  0  0
 28 29  1  0  0  0
 28 53  1  0  0  0
 28 54  1  0  0  0
 29 30  1  0  0  0
 29 55  1  0  0  0
 29 56  1  0  0  0
 30 31  1  0  0  0
 31 32  1  0  0  0
 31 57  1  0  0  0
 31 58  1  0  0  0
 32 59  1  0  0  0
 32 60  1  0  0  0
M  END
> <s_m_entry_id>
80

> <s_m_entry_name>
dock_pv.79

> <s_m_Source_Path>
/home/csk/Desktop/cluster/DUD-E-result/kif11

> <s_m_Source_File>
dock_pv.maegz

> <i_m_Source_File_Index>
79

> <chembl_id>
CHEMBL250533

> <chembl_pref_name>
None

> <i_lp_mmshare_version>
53161

> <i_f3d_flags>
0

> <r_lp_tautomer_probability>
1

> <s_lp_Force_Field>
OPLS_2005

> <r_lp_Energy>
57.994449

> <b_lp_Chiralities_Consistent>
1

> <s_lp_Variant>
CHEMBL4581_lig239-1

> <s_i_glide_gridfile>
glide-grid_3cjo

> <i_i_glide_lignum>
362

> <i_i_glide_rotatable_bonds>
6

> <r_i_docking_score>
-8.70066113891285

> <r_i_glide_ligand_efficiency>
-0.271895660591027

> <r_i_glide_ligand_efficiency_sa>
-0.863214914298344

> <r_i_glide_ligand_efficiency_ln>
-1.94831520006772

> <r_i_glide_gscore>
-8.70066113891285

> <r_i_glide_lipo>
-5.13599956960529

> <r_i_glide_hbond>
0

> <r_i_glide_metal>
0

> <r_i_glide_rewards>
-1.11095087673398

> <r_i_glide_evdw>
-50.3180656433105

> <r_i_glide_ecoul>
-2.18337225914001

> <r_i_glide_erotb>
0.389698428462949

> <r_i_glide_esite>
0

> <r_i_glide_emodel>
-76.1115288065691

> <r_i_glide_energy>
-52.5014379024506

> <r_i_glide_einternal>
4.52395343780518

> <i_i_glide_confnum>
18

> <i_i_glide_posenum>
8

> <r_i_glide_eff_state_penalty>
0

> <s_user_duplicate_titles>
CHEMBL4581_lig239,414283

> <s_m_subgroup_title>
dock_pv

> <s_m_subgroupid>
dock_pv

> <b_m_subgroup_collapsed>
1

$$$$
CHEMBL4581_lig863
                    3D
 Schrodinger Suite 2021-1.
 56 58  0  0  1  0            999 V2000
   17.7625   14.7859  109.5143 C   0  0  0  0  0  0
   17.0210   16.1741  109.5579 C   0  0  0  0  0  0
   19.0891   14.7626  108.6719 C   0  0  0  0  0  0
   16.6913   16.7958  110.7777 C   0  0  0  0  0  0
   16.0479   18.0297  110.8146 C   0  0  0  0  0  0
   15.6946   18.6658  109.6332 C   0  0  0  0  0  0
   15.9728   18.0668  108.4131 C   0  0  0  0  0  0
   16.6306   16.8418  108.3821 C   0  0  0  0  0  0
   20.0049   13.7144  108.8650 C   0  0  0  0  0  0
   21.1180   13.5610  108.0468 C   0  0  0  0  0  0
   21.3269   14.4020  106.9589 C   0  0  0  0  0  0
   20.4878   15.5154  106.7908 C   0  0  0  0  0  0
   19.4194   15.7034  107.6765 C   0  0  0  0  0  0
   18.0604   14.2646  110.9690 C   0  0  0  0  0  0
   19.1289   14.8233  111.6916 C   0  0  0  0  0  0
   19.4603   14.3623  112.9634 C   0  0  0  0  0  0
   18.7165   13.3393  113.5429 C   0  0  0  0  0  0
   17.6514   12.7714  112.8571 C   0  0  0  0  0  0
   17.3260   13.2305  111.5845 C   0  0  0  0  0  0
   16.7344   13.5034  108.6339 S   0  0  0  0  0  0
   15.1023   14.1432  108.0874 C   0  0  0  0  0  0
   14.8181   14.0308  106.5588 C   0  0  2  0  0  0
   14.1379   12.7615  106.2325 N   0  0  0  0  0  0
   20.6641   16.5102  105.6430 C   0  0  0  0  0  0
   21.9430   17.3486  105.7027 C   0  0  0  0  0  0
   22.4713   14.0698  106.0077 C   0  0  0  0  0  0
   16.0480   14.2194  105.6179 C   0  0  0  0  0  0
   16.7180   13.0533  105.3714 O   0  0  0  0  0  0
   16.3840   15.3234  105.1939 O   0  0  0  0  0  0
   16.9240   16.3433  111.7267 H   0  0  0  0  0  0
   15.8215   18.4966  111.7588 H   0  0  0  0  0  0
   15.1942   19.6226  109.6652 H   0  0  0  0  0  0
   15.6765   18.5471  107.4928 H   0  0  0  0  0  0
   16.7969   16.3887  107.4201 H   0  0  0  0  0  0
   19.8282   12.9613  109.6190 H   0  0  0  0  0  0
   21.7735   12.7183  108.2005 H   0  0  0  0  0  0
   18.8447   16.5938  107.5187 H   0  0  0  0  0  0
   19.7149   15.6210  111.2569 H   0  0  0  0  0  0
   20.2904   14.7985  113.4988 H   0  0  0  0  0  0
   18.9699   12.9806  114.5306 H   0  0  0  0  0  0
   17.0734   11.9776  113.3091 H   0  0  0  0  0  0
   16.4842   12.7583  111.1020 H   0  0  0  0  0  0
   14.3594   13.5621  108.6311 H   0  0  0  0  0  0
   14.8906   15.1455  108.4379 H   0  0  0  0  0  0
   14.1347   14.8415  106.3021 H   0  0  0  0  0  0
   14.1625   12.5743  105.2400 H   0  0  0  0  0  0
   14.6170   11.9870  106.6855 H   0  0  0  0  0  0
   20.6512   15.9618  104.7099 H   0  0  0  0  0  0
   19.8037   17.1783  105.5813 H   0  0  0  0  0  0
   22.0261   17.9613  104.8050 H   0  0  0  0  0  0
   21.9183   18.0115  106.5589 H   0  0  0  0  0  0
   22.8461   16.7442  105.7710 H   0  0  0  0  0  0
   23.4007   14.5344  106.3381 H   0  0  0  0  0  0
   22.6278   12.9913  105.9605 H   0  0  0  0  0  0
   22.2620   14.3772  104.9842 H   0  0  0  0  0  0
   17.5709   13.1613  104.9092 H   0  0  0  0  0  0
  1  2  1  0  0  0
  1  3  1  0  0  0
  1 14  1  0  0  0
  1 20  1  0  0  0
  2  4  2  0  0  0
  2  8  1  0  0  0
  3  9  2  0  0  0
  3 13  1  0  0  0
  4  5  1  0  0  0
  4 30  1  0  0  0
  5  6  2  0  0  0
  5 31  1  0  0  0
  6  7  1  0  0  0
  6 32  1  0  0  0
  7  8  2  0  0  0
  7 33  1  0  0  0
  8 34  1  0  0  0
  9 10  1  0  0  0
  9 35  1  0  0  0
 10 11  2  0  0  0
 10 36  1  0  0  0
 11 12  1  0  0  0
 11 26  1  0  0  0
 12 13  2  0  0  0
 12 24  1  0  0  0
 13 37  1  0  0  0
 14 15  2  0  0  0
 14 19  1  0  0  0
 15 16  1  0  0  0
 15 38  1  0  0  0
 16 17  2  0  0  0
 16 39  1  0  0  0
 17 18  1  0  0  0
 17 40  1  0  0  0
 18 19  2  0  0  0
 18 41  1  0  0  0
 19 42  1  0  0  0
 20 21  1  0  0  0
 21 22  1  0  0  0
 21 43  1  0  0  0
 21 44  1  0  0  0
 22 23  1  0  0  0
 22 27  1  0  0  0
 22 45  1  0  0  0
 23 46  1  0  0  0
 23 47  1  0  0  0
 24 25  1  0  0  0
 24 48  1  0  0  0
 24 49  1  0  0  0
 25 50  1  0  0  0
 25 51  1  0  0  0
 25 52  1  0  0  0
 26 53  1  0  0  0
 26 54  1  0  0  0
 26 55  1  0  0  0
 27 28  1  0  0  0
 27 29  2  0  0  0
 28 56  1  0  0  0
M  END
> <s_m_entry_id>
81

> <s_m_entry_name>
dock_pv.80

> <s_m_Source_Path>
/home/csk/Desktop/cluster/DUD-E-result/kif11

> <s_m_Source_File>
dock_pv.maegz

> <i_m_Source_File_Index>
80

> <chembl_id>
CHEMBL2325412

> <chembl_pref_name>
None

> <i_lp_mmshare_version>
53161

> <i_f3d_flags>
0

> <r_lp_tautomer_probability>
1

> <s_lp_Force_Field>
OPLS_2005

> <r_lp_Energy>
21.112737

> <b_lp_Chiralities_Consistent>
1

> <s_lp_Variant>
CHEMBL4581_lig863-1

> <s_i_glide_gridfile>
glide-grid_3cjo

> <i_i_glide_lignum>
1253

> <i_i_glide_rotatable_bonds>
9

> <r_i_docking_score>
-8.70045265489577

> <r_i_glide_ligand_efficiency>
-0.300015608789509

> <r_i_glide_ligand_efficiency_sa>
-0.921743001817798

> <r_i_glide_ligand_efficiency_ln>
-1.9921830335278

> <r_i_glide_gscore>
-8.70045265489577

> <r_i_glide_lipo>
-5.26221985656615

> <r_i_glide_hbond>
-0.304

> <r_i_glide_metal>
0

> <r_i_glide_rewards>
-0.785620893939393

> <r_i_glide_evdw>
-42.5215644836426

> <r_i_glide_ecoul>
-6.97253274917603

> <r_i_glide_erotb>
0.836467517661182

> <r_i_glide_esite>
-0.0131212854928726

> <r_i_glide_emodel>
-68.7079468719562

> <r_i_glide_energy>
-49.4940972328186

> <r_i_glide_einternal>
13.9522371292114

> <i_i_glide_confnum>
80

> <i_i_glide_posenum>
199

> <r_i_glide_eff_state_penalty>
0

> <s_user_duplicate_titles>
CHEMBL4581_lig863

> <s_m_subgroup_title>
dock_pv

> <s_m_subgroupid>
dock_pv

> <b_m_subgroup_collapsed>
1

$$$$
CHEMBL4581_lig106
                    3D
 Schrodinger Suite 2021-1.
 41 43  0  0  1  0            999 V2000
   22.5576   14.0260  106.1590 C   0  0  0  0  0  0
   22.7033   15.1291  105.3249 C   0  0  0  0  0  0
   21.7871   16.1736  105.3975 C   0  0  0  0  0  0
   20.7276   16.1092  106.3021 C   0  0  0  0  0  0
   20.5693   15.0020  107.1572 C   0  0  0  0  0  0
   21.5177   13.9619  107.0803 C   0  0  0  0  0  0
   21.5174   12.9074  107.9274 F   0  0  0  0  0  0
   21.9176   17.2422  104.5817 F   0  0  0  0  0  0
   19.4595   15.0003  108.1374 C   0  0  0  0  0  0
   18.7914   16.0244  108.4787 N   0  0  0  0  0  0
   17.8648   15.7267  109.4276 N   0  0  0  0  0  0
   17.7903   14.2606  109.6791 C   0  0  1  0  0  0
   18.9849   13.7671  108.8569 C   0  0  0  0  0  0
   17.9852   13.8584  111.1651 C   0  0  0  0  0  0
   17.3102   12.7595  111.7176 C   0  0  0  0  0  0
   17.5177   12.3967  113.0439 C   0  0  0  0  0  0
   18.4143   13.1162  113.8254 C   0  0  0  0  0  0
   19.1030   14.2020  113.2940 C   0  0  0  0  0  0
   18.8855   14.5729  111.9714 C   0  0  0  0  0  0
   17.2137   16.7418  110.0671 C   0  0  0  0  0  0
   16.0079   16.4082  110.5610 N   0  0  0  0  0  0
   17.6400   17.9008  110.1113 O   0  0  0  0  0  0
   15.0760   17.3306  111.2028 C   0  0  0  0  0  0
   16.4714   13.6996  109.0569 C   0  0  0  0  0  0
   23.2550   13.2094  106.1061 H   0  0  0  0  0  0
   23.5158   15.1632  104.6146 H   0  0  0  0  0  0
   20.0374   16.9413  106.3371 H   0  0  0  0  0  0
   18.6969   12.9837  108.1599 H   0  0  0  0  0  0
   19.7782   13.3730  109.4939 H   0  0  0  0  0  0
   16.6212   12.1661  111.1359 H   0  0  0  0  0  0
   16.9779   11.5621  113.4637 H   0  0  0  0  0  0
   18.5788   12.8245  114.8533 H   0  0  0  0  0  0
   19.8060   14.7526  113.9019 H   0  0  0  0  0  0
   19.4383   15.4099  111.5687 H   0  0  0  0  0  0
   15.7045   15.4515  110.4598 H   0  0  0  0  0  0
   15.0595   17.1620  112.2774 H   0  0  0  0  0  0
   15.3317   18.3779  111.0336 H   0  0  0  0  0  0
   14.0702   17.1682  110.8172 H   0  0  0  0  0  0
   16.5013   12.6133  108.9569 H   0  0  0  0  0  0
   15.5895   13.9381  109.6502 H   0  0  0  0  0  0
   16.3038   14.0926  108.0526 H   0  0  0  0  0  0
  1  2  2  0  0  0
  1  6  1  0  0  0
  1 25  1  0  0  0
  2  3  1  0  0  0
  2 26  1  0  0  0
  3  4  2  0  0  0
  3  8  1  0  0  0
  4  5  1  0  0  0
  4 27  1  0  0  0
  5  9  1  0  0  0
  5  6  2  0  0  0
  6  7  1  0  0  0
  9 13  1  0  0  0
  9 10  2  0  0  0
 10 11  1  0  0  0
 11 12  1  0  0  0
 11 20  1  0  0  0
 12 13  1  0  0  0
 12 14  1  0  0  0
 12 24  1  0  0  0
 13 28  1  0  0  0
 13 29  1  0  0  0
 14 15  2  0  0  0
 14 19  1  0  0  0
 15 16  1  0  0  0
 15 30  1  0  0  0
 16 17  2  0  0  0
 16 31  1  0  0  0
 17 18  1  0  0  0
 17 32  1  0  0  0
 18 19  2  0  0  0
 18 33  1  0  0  0
 19 34  1  0  0  0
 20 21  1  0  0  0
 20 22  2  0  0  0
 21 23  1  0  0  0
 21 35  1  0  0  0
 23 36  1  0  0  0
 23 37  1  0  0  0
 23 38  1  0  0  0
 24 39  1  0  0  0
 24 40  1  0  0  0
 24 41  1  0  0  0
M  END
> <s_m_entry_id>
82

> <s_m_entry_name>
dock_pv.81

> <s_m_Source_Path>
/home/csk/Desktop/cluster/DUD-E-result/kif11

> <s_m_Source_File>
dock_pv.maegz

> <i_m_Source_File_Index>
81

> <chembl_id>
CHEMBL206883

> <chembl_pref_name>
None

> <i_lp_mmshare_version>
53161

> <i_f3d_flags>
0

> <r_lp_tautomer_probability>
1

> <s_lp_Force_Field>
OPLS_2005

> <r_lp_Energy>
28.67187

> <b_lp_Chiralities_Consistent>
1

> <s_lp_Variant>
CHEMBL4581_lig106-2

> <s_i_glide_gridfile>
glide-grid_3cjo

> <i_i_glide_lignum>
181

> <i_i_glide_rotatable_bonds>
4

> <r_i_docking_score>
-8.68438670237323

> <r_i_glide_ligand_efficiency>
-0.361849445932218

> <r_i_glide_ligand_efficiency_sa>
-1.04375441471773

> <r_i_glide_ligand_efficiency_ln>
-2.07857223841704

> <r_i_glide_gscore>
-8.68438670237323

> <r_i_glide_lipo>
-4.19917349114788

> <r_i_glide_hbond>
0

> <r_i_glide_metal>
0

> <r_i_glide_rewards>
-2.84169382722324

> <r_i_glide_evdw>
-42.6221122741699

> <r_i_glide_ecoul>
-0.214727953076363

> <r_i_glide_erotb>
0.519795422667838

> <r_i_glide_esite>
0

> <r_i_glide_emodel>
-64.2529064565844

> <r_i_glide_energy>
-42.8368402272463

> <r_i_glide_einternal>
2.18665552139282

> <i_i_glide_confnum>
12

> <i_i_glide_posenum>
212

> <r_i_glide_eff_state_penalty>
0

> <s_user_duplicate_titles>
CHEMBL4581_lig106,347606

> <s_m_subgroup_title>
dock_pv

> <s_m_subgroupid>
dock_pv

> <b_m_subgroup_collapsed>
1

$$$$
CHEMBL4581_lig85
                    3D
 Schrodinger Suite 2021-1.
 52 54  0  0  1  0            999 V2000
   22.5670   14.2852  106.0827 C   0  0  0  0  0  0
   22.6991   15.3883  105.2495 C   0  0  0  0  0  0
   21.7700   16.4193  105.3024 C   0  0  0  0  0  0
   20.6778   16.3229  106.1583 C   0  0  0  0  0  0
   20.5047   15.1973  106.9843 C   0  0  0  0  0  0
   21.4895   14.1898  106.9591 C   0  0  0  0  0  0
   21.4833   13.1532  107.8259 F   0  0  0  0  0  0
   21.9163   17.5006  104.5052 F   0  0  0  0  0  0
   19.3370   15.1600  107.8869 C   0  0  0  0  0  0
   18.7228   16.1905  108.2907 N   0  0  0  0  0  0
   17.6691   15.8719  109.0758 N   0  0  0  0  0  0
   17.5416   14.3962  109.2852 C   0  0  1  0  0  0
   18.6888   13.8970  108.3862 C   0  0  0  0  0  0
   17.8019   13.9581  110.7595 C   0  0  0  0  0  0
   17.3085   12.7393  111.2495 C   0  0  0  0  0  0
   17.5184   12.3625  112.5741 C   0  0  0  0  0  0
   18.2687   13.1734  113.4168 C   0  0  0  0  0  0
   18.8078   14.3624  112.9413 C   0  0  0  0  0  0
   18.5727   14.7508  111.6250 C   0  0  0  0  0  0
   16.7310   16.8365  109.2690 C   0  0  0  0  0  0
   16.9907   17.7884  110.2094 N   0  0  0  0  0  0
   15.6801   16.8303  108.6238 O   0  0  0  0  0  0
   16.1876   13.8371  108.6957 C   0  0  0  0  0  0
   14.9055   13.9896  109.5520 C   0  0  0  0  0  0
   13.6010   13.9620  108.7330 C   0  0  0  0  0  0
   13.2826   15.2864  108.2376 N   0  0  0  0  0  0
   18.3219   18.1890  110.6736 C   0  0  0  0  0  0
   15.9423   18.6995  110.6738 C   0  0  0  0  0  0
   23.3119   13.5082  106.0612 H   0  0  0  0  0  0
   23.5178   15.4415  104.5578 H   0  0  0  0  0  0
   19.9671   17.1372  106.1705 H   0  0  0  0  0  0
   19.3906   13.2761  108.9437 H   0  0  0  0  0  0
   18.3183   13.3165  107.5382 H   0  0  0  0  0  0
   16.7548   12.0673  110.6122 H   0  0  0  0  0  0
   17.0928   11.4465  112.9512 H   0  0  0  0  0  0
   18.4389   12.8749  114.4423 H   0  0  0  0  0  0
   19.4065   14.9823  113.5921 H   0  0  0  0  0  0
   19.0237   15.6640  111.2809 H   0  0  0  0  0  0
   16.0244   14.2977  107.7194 H   0  0  0  0  0  0
   16.2923   12.7738  108.4698 H   0  0  0  0  0  0
   14.8581   13.1735  110.2678 H   0  0  0  0  0  0
   14.9556   14.8902  110.1592 H   0  0  0  0  0  0
   13.6741   13.2551  107.9034 H   0  0  0  0  0  0
   12.7679   13.6304  109.3540 H   0  0  0  0  0  0
   14.1401   15.8171  108.0969 H   0  0  0  0  0  0
   12.8213   15.2328  107.3404 H   0  0  0  0  0  0
   18.5729   19.1626  110.2663 H   0  0  0  0  0  0
   18.3468   18.2650  111.7589 H   0  0  0  0  0  0
   19.1205   17.5189  110.3725 H   0  0  0  0  0  0
   15.9772   18.8017  111.7582 H   0  0  0  0  0  0
   16.0847   19.6886  110.2379 H   0  0  0  0  0  0
   14.9387   18.3606  110.4111 H   0  0  0  0  0  0
  1  2  2  0  0  0
  1  6  1  0  0  0
  1 29  1  0  0  0
  2  3  1  0  0  0
  2 30  1  0  0  0
  3  4  2  0  0  0
  3  8  1  0  0  0
  4  5  1  0  0  0
  4 31  1  0  0  0
  5  9  1  0  0  0
  5  6  2  0  0  0
  6  7  1  0  0  0
  9 10  2  0  0  0
  9 13  1  0  0  0
 10 11  1  0  0  0
 11 20  1  0  0  0
 11 12  1  0  0  0
 12 14  1  0  0  0
 12 23  1  0  0  0
 12 13  1  0  0  0
 13 32  1  0  0  0
 13 33  1  0  0  0
 14 15  2  0  0  0
 14 19  1  0  0  0
 15 16  1  0  0  0
 15 34  1  0  0  0
 16 17  2  0  0  0
 16 35  1  0  0  0
 17 18  1  0  0  0
 17 36  1  0  0  0
 18 19  2  0  0  0
 18 37  1  0  0  0
 19 38  1  0  0  0
 20 21  1  0  0  0
 20 22  2  0  0  0
 21 27  1  0  0  0
 21 28  1  0  0  0
 23 24  1  0  0  0
 23 39  1  0  0  0
 23 40  1  0  0  0
 24 25  1  0  0  0
 24 41  1  0  0  0
 24 42  1  0  0  0
 25 26  1  0  0  0
 25 43  1  0  0  0
 25 44  1  0  0  0
 26 45  1  0  0  0
 26 46  1  0  0  0
 27 47  1  0  0  0
 27 48  1  0  0  0
 27 49  1  0  0  0
 28 50  1  0  0  0
 28 51  1  0  0  0
 28 52  1  0  0  0
M  END
> <s_m_entry_id>
83

> <s_m_entry_name>
dock_pv.82

> <s_m_Source_Path>
/home/csk/Desktop/cluster/DUD-E-result/kif11

> <s_m_Source_File>
dock_pv.maegz

> <i_m_Source_File_Index>
82

> <chembl_id>
CHEMBL377566

> <chembl_pref_name>
None

> <i_lp_mmshare_version>
53161

> <i_f3d_flags>
0

> <r_lp_tautomer_probability>
1

> <s_lp_Force_Field>
OPLS_2005

> <r_lp_Energy>
51.295783

> <b_lp_Chiralities_Consistent>
1

> <s_lp_Variant>
CHEMBL4581_lig85-1

> <s_i_glide_gridfile>
glide-grid_3cjo

> <i_i_glide_lignum>
135

> <i_i_glide_rotatable_bonds>
7

> <r_i_docking_score>
-8.68225316587514

> <r_i_glide_ligand_efficiency>
-0.310080470209826

> <r_i_glide_ligand_efficiency_sa>
-0.941586935187325

> <r_i_glide_ligand_efficiency_ln>
-2.00411895271399

> <r_i_glide_gscore>
-8.68225316587514

> <r_i_glide_lipo>
-4.51344739816999

> <r_i_glide_hbond>
0

> <r_i_glide_metal>
0

> <r_i_glide_rewards>
-2.34500557552949

> <r_i_glide_evdw>
-45.7753448486328

> <r_i_glide_ecoul>
-1.24469137191772

> <r_i_glide_erotb>
0.651670756043647

> <r_i_glide_esite>
0

> <r_i_glide_emodel>
-65.9707499439368

> <r_i_glide_energy>
-47.0200362205505

> <r_i_glide_einternal>
8.43543815612793

> <i_i_glide_confnum>
13

> <i_i_glide_posenum>
347

> <r_i_glide_eff_state_penalty>
0

> <s_user_duplicate_titles>
CHEMBL4581_lig85,CHEMBL4581_lig90,348039,347907

> <s_m_subgroup_title>
dock_pv

> <s_m_subgroupid>
dock_pv

> <b_m_subgroup_collapsed>
1

$$$$
CHEMBL4581_lig670
                    3D
 Schrodinger Suite 2021-1.
 33 35  0  0  1  0            999 V2000
   20.5429   16.7646  105.9239 N   0  0  0  0  0  0
   21.6921   16.7578  105.2227 C   0  0  0  0  0  0
   22.6885   15.6569  105.6570 C   0  0  0  0  0  0
   21.9936   14.3815  106.2018 C   0  0  0  0  0  0
   20.8392   14.7048  107.1403 C   0  0  0  0  0  0
   20.4250   13.8472  108.1590 C   0  0  0  0  0  0
   19.2990   14.1346  108.9273 C   0  0  0  0  0  0
   18.6388   15.3524  108.7506 C   0  0  0  0  0  0
   19.0605   16.2347  107.7570 C   0  0  0  0  0  0
   20.1460   15.9026  106.9436 C   0  0  0  0  0  0
   21.9180   17.5617  104.3269 O   0  0  0  0  0  0
   18.8000   13.1620  109.8001 N   0  0  0  0  0  0
   18.3770   13.3088  111.1225 C   0  0  0  0  0  0
   17.5181   12.3603  111.6853 C   0  0  0  0  0  0
   17.2076   12.4260  113.0432 C   0  0  0  0  0  0
   17.7665   13.4208  113.8358 C   0  0  0  0  0  0
   18.6087   14.3755  113.2725 C   0  0  0  0  0  0
   18.8964   14.3344  111.9149 C   0  0  0  0  0  0
   16.3180   11.5620  113.6130 O   0  0  0  0  0  0
   19.9387   17.5362  105.6870 H   0  0  0  0  0  0
   23.3393   16.0979  106.4090 H   0  0  0  0  0  0
   23.3116   15.4043  104.7998 H   0  0  0  0  0  0
   21.5977   13.8301  105.3591 H   0  0  0  0  0  0
   22.7179   13.7225  106.6818 H   0  0  0  0  0  0
   20.9413   12.9090  108.3018 H   0  0  0  0  0  0
   17.7691   15.5915  109.3445 H   0  0  0  0  0  0
   18.5289   17.1620  107.6160 H   0  0  0  0  0  0
   18.7173   12.2224  109.4242 H   0  0  0  0  0  0
   17.1072   11.5705  111.0727 H   0  0  0  0  0  0
   17.5192   13.4632  114.8865 H   0  0  0  0  0  0
   19.0410   15.1607  113.8716 H   0  0  0  0  0  0
   19.5708   15.0671  111.4964 H   0  0  0  0  0  0
   15.7057   11.1580  112.9809 H   0  0  0  0  0  0
  1  2  1  0  0  0
  1 10  1  0  0  0
  1 20  1  0  0  0
  2  3  1  0  0  0
  2 11  2  0  0  0
  3  4  1  0  0  0
  3 21  1  0  0  0
  3 22  1  0  0  0
  4  5  1  0  0  0
  4 23  1  0  0  0
  4 24  1  0  0  0
  5  6  1  0  0  0
  5 10  2  0  0  0
  6  7  2  0  0  0
  6 25  1  0  0  0
  7  8  1  0  0  0
  7 12  1  0  0  0
  8  9  2  0  0  0
  8 26  1  0  0  0
  9 10  1  0  0  0
  9 27  1  0  0  0
 12 13  1  0  0  0
 12 28  1  0  0  0
 13 14  1  0  0  0
 13 18  2  0  0  0
 14 15  2  0  0  0
 14 29  1  0  0  0
 15 16  1  0  0  0
 15 19  1  0  0  0
 16 17  2  0  0  0
 16 30  1  0  0  0
 17 18  1  0  0  0
 17 31  1  0  0  0
 18 32  1  0  0  0
 19 33  1  0  0  0
M  END
> <s_m_entry_id>
85

> <s_m_entry_name>
dock_pv.84

> <s_m_Source_Path>
/home/csk/Desktop/cluster/DUD-E-result/kif11

> <s_m_Source_File>
dock_pv.maegz

> <i_m_Source_File_Index>
84

> <chembl_id>
CHEMBL3288989

> <chembl_pref_name>
None

> <i_lp_mmshare_version>
53161

> <i_f3d_flags>
0

> <r_lp_tautomer_probability>
1

> <s_lp_Force_Field>
OPLS_2005

> <r_lp_Energy>
23.236072

> <b_lp_Chiralities_Consistent>
1

> <s_lp_Variant>
CHEMBL4581_lig670-1

> <s_i_glide_gridfile>
glide-grid_3cjo

> <i_i_glide_lignum>
1008

> <i_i_glide_rotatable_bonds>
3

> <r_i_docking_score>
-8.66856824840926

> <r_i_glide_ligand_efficiency>
-0.456240434126803

> <r_i_glide_ligand_efficiency_sa>
-1.21743272544269

> <r_i_glide_ligand_efficiency_ln>
-2.19766823474631

> <r_i_glide_gscore>
-8.66856824840926

> <r_i_glide_lipo>
-3.92749501911798

> <r_i_glide_hbond>
-0.608

> <r_i_glide_metal>
0

> <r_i_glide_rewards>
-2.20867065151515

> <r_i_glide_evdw>
-31.172420501709

> <r_i_glide_ecoul>
-6.06460094451904

> <r_i_glide_erotb>
0.54390858898718

> <r_i_glide_esite>
0

> <r_i_glide_emodel>
-53.0308010629601

> <r_i_glide_energy>
-37.237021446228

> <r_i_glide_einternal>
4.68777990341187

> <i_i_glide_confnum>
6

> <i_i_glide_posenum>
32

> <r_i_glide_eff_state_penalty>
0

> <s_user_duplicate_titles>
CHEMBL4581_lig670

> <s_m_subgroup_title>
dock_pv

> <s_m_subgroupid>
dock_pv

> <b_m_subgroup_collapsed>
1

$$$$
CHEMBL4581_lig890
                    3D
 Schrodinger Suite 2021-1.
 51 53  0  0  1  0            999 V2000
   17.9400   14.5188  109.4573 C   0  0  1  0  0  0
   17.2643   15.9045  109.6867 C   0  0  0  0  0  0
   19.2799   14.5511  108.6602 C   0  0  0  0  0  0
   15.8669   16.0228  109.7761 C   0  0  0  0  0  0
   15.2650   17.2586  109.9907 C   0  0  0  0  0  0
   16.0535   18.3976  110.1409 C   0  0  0  0  0  0
   17.4420   18.2960  110.0827 C   0  0  0  0  0  0
   18.0393   17.0627  109.8583 C   0  0  0  0  0  0
   20.2556   13.5626  108.8616 C   0  0  0  0  0  0
   21.3613   13.4711  108.0176 C   0  0  0  0  0  0
   21.5178   14.3621  106.9590 C   0  0  0  0  0  0
   20.6316   15.4384  106.8086 C   0  0  0  0  0  0
   19.5169   15.5083  107.6553 C   0  0  0  0  0  0
   18.1079   13.9133  110.8864 C   0  0  0  0  0  0
   17.3636   12.8118  111.3500 C   0  0  0  0  0  0
   17.4926   12.3639  112.6609 C   0  0  0  0  0  0
   18.3625   13.0061  113.5332 C   0  0  0  0  0  0
   19.1185   14.0872  113.0955 C   0  0  0  0  0  0
   19.0009   14.5269  111.7802 C   0  0  0  0  0  0
   16.8642   13.4389  108.3939 S   0  0  0  0  0  0
   16.6932   14.3081  106.7963 C   0  0  0  0  0  0
   15.7646   13.6351  105.7786 C   0  0  0  0  0  0
   16.3179   12.3623  105.3589 N   0  0  0  0  0  0
   20.8470   16.5027  105.7586 C   0  0  0  0  0  0
   19.9186   17.1607  105.2954 O   0  0  0  0  0  0
   22.1006   16.7084  105.3563 N   0  0  0  0  0  0
   15.4032   19.7513  110.3501 C   0  0  0  0  0  0
   15.2288   15.1569  109.6878 H   0  0  0  0  0  0
   14.1874   17.3259  110.0456 H   0  0  0  0  0  0
   18.0706   19.1621  110.2169 H   0  0  0  0  0  0
   19.1172   17.0174  109.8366 H   0  0  0  0  0  0
   20.1237   12.8069  109.6233 H   0  0  0  0  0  0
   22.0766   12.6766  108.1551 H   0  0  0  0  0  0
   22.3666   14.2365  106.3019 H   0  0  0  0  0  0
   18.7915   16.2913  107.4858 H   0  0  0  0  0  0
   16.6519   12.2925  110.7258 H   0  0  0  0  0  0
   16.8899   11.5381  113.0070 H   0  0  0  0  0  0
   18.4512   12.6647  114.5541 H   0  0  0  0  0  0
   19.8008   14.5820  113.7720 H   0  0  0  0  0  0
   19.5934   15.3726  111.4618 H   0  0  0  0  0  0
   16.3421   15.3212  106.9904 H   0  0  0  0  0  0
   17.6702   14.4022  106.3271 H   0  0  0  0  0  0
   14.7726   13.4806  106.2061 H   0  0  0  0  0  0
   15.6436   14.2715  104.9004 H   0  0  0  0  0  0
   17.2709   12.4846  105.0094 H   0  0  0  0  0  0
   16.3759   11.7459  106.1643 H   0  0  0  0  0  0
   22.2771   17.3959  104.6418 H   0  0  0  0  0  0
   22.8606   16.1937  105.7693 H   0  0  0  0  0  0
   15.9175   20.5143  109.7603 H   0  0  0  0  0  0
   14.3611   19.7542  110.0224 H   0  0  0  0  0  0
   15.4521   20.0409  111.4020 H   0  0  0  0  0  0
  1  2  1  0  0  0
  1  3  1  0  0  0
  1 14  1  0  0  0
  1 20  1  0  0  0
  2  4  2  0  0  0
  2  8  1  0  0  0
  3  9  2  0  0  0
  3 13  1  0  0  0
  4  5  1  0  0  0
  4 28  1  0  0  0
  5  6  2  0  0  0
  5 29  1  0  0  0
  6  7  1  0  0  0
  6 27  1  0  0  0
  7  8  2  0  0  0
  7 30  1  0  0  0
  8 31  1  0  0  0
  9 10  1  0  0  0
  9 32  1  0  0  0
 10 11  2  0  0  0
 10 33  1  0  0  0
 11 12  1  0  0  0
 11 34  1  0  0  0
 12 13  2  0  0  0
 12 24  1  0  0  0
 13 35  1  0  0  0
 14 15  2  0  0  0
 14 19  1  0  0  0
 15 16  1  0  0  0
 15 36  1  0  0  0
 16 17  2  0  0  0
 16 37  1  0  0  0
 17 18  1  0  0  0
 17 38  1  0  0  0
 18 19  2  0  0  0
 18 39  1  0  0  0
 19 40  1  0  0  0
 20 21  1  0  0  0
 21 22  1  0  0  0
 21 41  1  0  0  0
 21 42  1  0  0  0
 22 23  1  0  0  0
 22 43  1  0  0  0
 22 44  1  0  0  0
 23 45  1  0  0  0
 23 46  1  0  0  0
 24 25  2  0  0  0
 24 26  1  0  0  0
 26 47  1  0  0  0
 26 48  1  0  0  0
 27 49  1  0  0  0
 27 50  1  0  0  0
 27 51  1  0  0  0
M  END
> <s_m_entry_id>
86

> <s_m_entry_name>
dock_pv.85

> <s_m_Source_Path>
/home/csk/Desktop/cluster/DUD-E-result/kif11

> <s_m_Source_File>
dock_pv.maegz

> <i_m_Source_File_Index>
85

> <chembl_id>
CHEMBL2325423

> <chembl_pref_name>
None

> <i_lp_mmshare_version>
53161

> <i_f3d_flags>
0

> <r_lp_tautomer_probability>
1

> <s_lp_Force_Field>
OPLS_2005

> <r_lp_Energy>
25.569269

> <b_lp_Chiralities_Consistent>
1

> <s_lp_Variant>
CHEMBL4581_lig890-1

> <s_i_glide_gridfile>
glide-grid_3cjo

> <i_i_glide_lignum>
1285

> <i_i_glide_rotatable_bonds>
7

> <r_i_docking_score>
-8.66284683860353

> <r_i_glide_ligand_efficiency>
-0.320846179207538

> <r_i_glide_ligand_efficiency_sa>
-0.962538536565158

> <r_i_glide_ligand_efficiency_ln>
-2.01656792583492

> <r_i_glide_gscore>
-8.66284683860353

> <r_i_glide_lipo>
-4.66227478223564

> <r_i_glide_hbond>
-0.428751767139986

> <r_i_glide_metal>
0

> <r_i_glide_rewards>
-1.3984780582333

> <r_i_glide_evdw>
-47.6089859008789

> <r_i_glide_ecoul>
-3.17110562324524

> <r_i_glide_erotb>
0.682772907536131

> <r_i_glide_esite>
0

> <r_i_glide_emodel>
-73.4400769111559

> <r_i_glide_energy>
-50.7800915241241

> <r_i_glide_einternal>
6.36843109130859

> <i_i_glide_confnum>
65

> <i_i_glide_posenum>
335

> <r_i_glide_eff_state_penalty>
0

> <s_user_duplicate_titles>
CHEMBL4581_lig890

> <s_m_subgroup_title>
dock_pv

> <s_m_subgroupid>
dock_pv

> <b_m_subgroup_collapsed>
1

$$$$
CHEMBL4581_lig482
                    3D
 Schrodinger Suite 2021-1.
 51 53  0  0  1  0            999 V2000
   16.6290   13.3403  108.9777 S   0  0  0  0  0  0
   15.9833   14.2656  107.5400 C   0  0  0  0  0  0
   16.7613   13.9556  106.2461 C   0  0  2  0  0  0
   16.7514   15.1614  105.2729 C   0  0  0  0  0  0
   17.8568   15.1621  104.4819 O   0  0  0  0  0  0
   15.8868   16.0358  105.2798 O   0  0  0  0  0  0
   16.2571   12.7616  105.5465 N   0  0  0  0  0  0
   17.7882   14.4939  109.8713 C   0  0  0  0  0  0
   18.1392   13.9402  111.2867 C   0  0  0  0  0  0
   19.0211   14.5337  108.9253 C   0  0  0  0  0  0
   19.1114   14.6007  112.0563 C   0  0  0  0  0  0
   19.3904   14.2052  113.3589 C   0  0  0  0  0  0
   18.7169   13.1172  113.9077 C   0  0  0  0  0  0
   17.7651   12.4289  113.1630 C   0  0  0  0  0  0
   17.4876   12.8306  111.8605 C   0  0  0  0  0  0
   20.0501   13.5879  109.0536 C   0  0  0  0  0  0
   21.1109   13.5640  108.1532 C   0  0  0  0  0  0
   21.1182   14.4515  107.0796 C   0  0  0  0  0  0
   20.1371   15.4311  106.9618 C   0  0  0  0  0  0
   19.1064   15.4754  107.8885 C   0  0  0  0  0  0
   17.1289   15.8866  110.1210 C   0  0  0  0  0  0
   17.9098   17.0495  110.2092 C   0  0  0  0  0  0
   17.3249   18.2943  110.4095 C   0  0  0  0  0  0
   15.9406   18.4157  110.5210 C   0  0  0  0  0  0
   15.1503   17.2621  110.4515 C   0  0  0  0  0  0
   15.7432   16.0205  110.2632 C   0  0  0  0  0  0
   15.4431   19.6875  110.6990 O   0  0  0  0  0  0
   14.0345   19.8827  110.7927 C   0  0  0  0  0  0
   14.9284   14.0190  107.4198 H   0  0  0  0  0  0
   16.0068   15.3295  107.7666 H   0  0  0  0  0  0
   17.7974   13.7674  106.5234 H   0  0  0  0  0  0
   18.3181   14.3095  104.5446 H   0  0  0  0  0  0
   16.9792   12.3621  104.9554 H   0  0  0  0  0  0
   16.0006   12.0398  106.2143 H   0  0  0  0  0  0
   19.6376   15.4507  111.6476 H   0  0  0  0  0  0
   20.1301   14.7354  113.9404 H   0  0  0  0  0  0
   18.9293   12.8016  114.9210 H   0  0  0  0  0  0
   17.2341   11.5903  113.5962 H   0  0  0  0  0  0
   16.7244   12.2754  111.3375 H   0  0  0  0  0  0
   20.0141   12.8349  109.8294 H   0  0  0  0  0  0
   21.8881   12.8177  108.2427 H   0  0  0  0  0  0
   21.9182   14.4065  106.3580 H   0  0  0  0  0  0
   20.1761   16.1435  106.1479 H   0  0  0  0  0  0
   18.3372   16.2241  107.7483 H   0  0  0  0  0  0
   18.9847   17.0029  110.1186 H   0  0  0  0  0  0
   17.9558   19.1640  110.4713 H   0  0  0  0  0  0
   14.0737   17.3172  110.5352 H   0  0  0  0  0  0
   15.1096   15.1504  110.2136 H   0  0  0  0  0  0
   13.8248   20.9431  110.9355 H   0  0  0  0  0  0
   13.5271   19.5664  109.8804 H   0  0  0  0  0  0
   13.6087   19.3473  111.6439 H   0  0  0  0  0  0
  1  8  1  0  0  0
  1  2  1  0  0  0
  2  3  1  0  0  0
  2 29  1  0  0  0
  2 30  1  0  0  0
  3  4  1  0  0  0
  3  7  1  0  0  0
  3 31  1  0  0  0
  4  5  1  0  0  0
  4  6  2  0  0  0
  5 32  1  0  0  0
  7 33  1  0  0  0
  7 34  1  0  0  0
  8  9  1  0  0  0
  8 10  1  0  0  0
  8 21  1  0  0  0
  9 15  1  0  0  0
  9 11  2  0  0  0
 10 16  2  0  0  0
 10 20  1  0  0  0
 11 12  1  0  0  0
 11 35  1  0  0  0
 12 13  2  0  0  0
 12 36  1  0  0  0
 13 14  1  0  0  0
 13 37  1  0  0  0
 14 15  2  0  0  0
 14 38  1  0  0  0
 15 39  1  0  0  0
 16 17  1  0  0  0
 16 40  1  0  0  0
 17 18  2  0  0  0
 17 41  1  0  0  0
 18 19  1  0  0  0
 18 42  1  0  0  0
 19 20  2  0  0  0
 19 43  1  0  0  0
 20 44  1  0  0  0
 21 22  2  0  0  0
 21 26  1  0  0  0
 22 23  1  0  0  0
 22 45  1  0  0  0
 23 24  2  0  0  0
 23 46  1  0  0  0
 24 25  1  0  0  0
 24 27  1  0  0  0
 25 26  2  0  0  0
 25 47  1  0  0  0
 26 48  1  0  0  0
 27 28  1  0  0  0
 28 49  1  0  0  0
 28 50  1  0  0  0
 28 51  1  0  0  0
M  END
> <s_m_entry_id>
87

> <s_m_entry_name>
dock_pv.86

> <s_m_Source_Path>
/home/csk/Desktop/cluster/DUD-E-result/kif11

> <s_m_Source_File>
dock_pv.maegz

> <i_m_Source_File_Index>
86

> <chembl_id>
CHEMBL1818525

> <chembl_pref_name>
None

> <i_lp_mmshare_version>
53161

> <i_f3d_flags>
0

> <r_lp_tautomer_probability>
1

> <s_lp_Force_Field>
OPLS_2005

> <r_lp_Energy>
29.533561

> <b_lp_Chiralities_Consistent>
1

> <s_lp_Variant>
CHEMBL4581_lig482-1

> <s_i_glide_gridfile>
glide-grid_3cjo

> <i_i_glide_lignum>
705

> <i_i_glide_rotatable_bonds>
9

> <r_i_docking_score>
-8.66261118565863

> <r_i_glide_ligand_efficiency>
-0.30937897091638

> <r_i_glide_ligand_efficiency_sa>
-0.939456770171433

> <r_i_glide_ligand_efficiency_ln>
-1.99958500696642

> <r_i_glide_gscore>
-8.66261118565863

> <r_i_glide_lipo>
-4.71781152182395

> <r_i_glide_hbond>
-0.292790977244334

> <r_i_glide_metal>
0

> <r_i_glide_rewards>
-0.851138229202397

> <r_i_glide_evdw>
-42.2782287597656

> <r_i_glide_ecoul>
-8.5763988494873

> <r_i_glide_erotb>
0.618202880760554

> <r_i_glide_esite>
-0.0187020727371239

> <r_i_glide_emodel>
-75.9508984124004

> <r_i_glide_energy>
-50.8546276092529

> <r_i_glide_einternal>
6.57929944992065

> <i_i_glide_confnum>
9

> <i_i_glide_posenum>
366

> <r_i_glide_eff_state_penalty>
0

> <s_user_duplicate_titles>
CHEMBL4581_lig482

> <s_m_subgroup_title>
dock_pv

> <s_m_subgroupid>
dock_pv

> <b_m_subgroup_collapsed>
1

$$$$
CHEMBL4581_lig699
                    3D
 Schrodinger Suite 2021-1.
 54 57  0  0  1  0            999 V2000
   18.3146   17.2896  110.7268 C   0  0  0  0  0  0
   19.2330   16.1764  111.2793 C   0  0  0  0  0  0
   17.4904   14.6277  109.3848 C   0  0  0  0  0  0
   16.8777   16.9988  110.2785 C   0  0  0  0  0  0
   16.4792   15.8068  109.6034 C   0  0  0  0  0  0
   15.1301   15.7310  109.1913 C   0  0  0  0  0  0
   14.2210   16.7599  109.4112 C   0  0  0  0  0  0
   14.6265   17.9086  110.0693 C   0  0  0  0  0  0
   15.9422   18.0213  110.4938 C   0  0  0  0  0  0
   17.7781   14.1150  110.8385 C   0  0  0  0  0  0
   18.6238   14.8502  111.7081 C   0  0  0  0  0  0
   18.9148   14.3613  112.9886 C   0  0  0  0  0  0
   18.3624   13.1758  113.4536 C   0  0  0  0  0  0
   17.5091   12.4604  112.6321 C   0  0  0  0  0  0
   17.2220   12.9229  111.3522 C   0  0  0  0  0  0
   18.7481   14.9891  108.5215 C   0  0  0  0  0  0
   18.7038   16.1167  107.6780 C   0  0  0  0  0  0
   19.6900   16.3607  106.7259 C   0  0  0  0  0  0
   20.7626   15.4925  106.5959 C   0  0  0  0  0  0
   20.8567   14.3940  107.4396 C   0  0  0  0  0  0
   19.8853   14.1466  108.4160 C   0  0  0  0  0  0
   16.7260   13.2615  108.3586 S   0  0  0  0  0  0
   16.8078   13.8570  106.6288 C   0  0  0  0  0  0
   15.9598   13.0516  105.6316 C   0  0  1  0  0  0
   14.4512   13.3005  105.8263 C   0  0  0  0  0  0
   16.3180   13.3987  104.2473 N   0  0  0  0  0  0
   13.9158   12.3619  106.6501 O   0  0  0  0  0  0
   13.8445   14.2552  105.3378 O   0  0  0  0  0  0
   20.0940   12.9051  109.2631 C   0  0  0  0  0  0
   18.2824   18.0784  111.4807 H   0  0  0  0  0  0
   18.8106   17.7820  109.8904 H   0  0  0  0  0  0
   19.7968   16.5968  112.1158 H   0  0  0  0  0  0
   20.0108   15.9479  110.5615 H   0  0  0  0  0  0
   14.7353   14.8629  108.6887 H   0  0  0  0  0  0
   13.1995   16.6604  109.0742 H   0  0  0  0  0  0
   13.9274   18.7140  110.2459 H   0  0  0  0  0  0
   16.2403   18.9327  110.9932 H   0  0  0  0  0  0
   19.5728   14.9137  113.6434 H   0  0  0  0  0  0
   18.5868   12.8199  114.4492 H   0  0  0  0  0  0
   17.0467   11.5547  112.9923 H   0  0  0  0  0  0
   16.5420   12.3191  110.7720 H   0  0  0  0  0  0
   17.8577   16.7850  107.6960 H   0  0  0  0  0  0
   19.6129   17.2171  106.0739 H   0  0  0  0  0  0
   21.5224   15.6713  105.8489 H   0  0  0  0  0  0
   21.7034   13.7313  107.3306 H   0  0  0  0  0  0
   16.5299   14.9117  106.5957 H   0  0  0  0  0  0
   17.8511   13.7939  106.3151 H   0  0  0  0  0  0
   16.1608   11.9886  105.7769 H   0  0  0  0  0  0
   16.2717   14.4004  104.1304 H   0  0  0  0  0  0
   17.3117   13.1623  104.1324 H   0  0  0  0  0  0
   14.5630   11.7103  106.9573 H   0  0  0  0  0  0
   19.1732   12.3672  109.4614 H   0  0  0  0  0  0
   20.7178   12.1918  108.7341 H   0  0  0  0  0  0
   20.5677   13.1643  110.2093 H   0  0  0  0  0  0
  1  4  1  0  0  0
  1  2  1  0  0  0
  1 30  1  0  0  0
  1 31  1  0  0  0
  2 11  1  0  0  0
  2 32  1  0  0  0
  2 33  1  0  0  0
  3 10  1  0  0  0
  3  5  1  0  0  0
  3 16  1  0  0  0
  3 22  1  0  0  0
  4  5  2  0  0  0
  4  9  1  0  0  0
  5  6  1  0  0  0
  6  7  2  0  0  0
  6 34  1  0  0  0
  7  8  1  0  0  0
  7 35  1  0  0  0
  8  9  2  0  0  0
  8 36  1  0  0  0
  9 37  1  0  0  0
 10 11  2  0  0  0
 10 15  1  0  0  0
 11 12  1  0  0  0
 12 13  2  0  0  0
 12 38  1  0  0  0
 13 14  1  0  0  0
 13 39  1  0  0  0
 14 15  2  0  0  0
 14 40  1  0  0  0
 15 41  1  0  0  0
 16 17  2  0  0  0
 16 21  1  0  0  0
 17 18  1  0  0  0
 17 42  1  0  0  0
 18 19  2  0  0  0
 18 43  1  0  0  0
 19 20  1  0  0  0
 19 44  1  0  0  0
 20 21  2  0  0  0
 20 45  1  0  0  0
 21 29  1  0  0  0
 22 23  1  0  0  0
 23 24  1  0  0  0
 23 46  1  0  0  0
 23 47  1  0  0  0
 24 25  1  0  0  0
 24 26  1  0  0  0
 24 48  1  0  0  0
 25 27  1  0  0  0
 25 28  2  0  0  0
 26 49  1  0  0  0
 26 50  1  0  0  0
 27 51  1  0  0  0
 29 52  1  0  0  0
 29 53  1  0  0  0
 29 54  1  0  0  0
M  END
> <s_m_entry_id>
88

> <s_m_entry_name>
dock_pv.87

> <s_m_Source_Path>
/home/csk/Desktop/cluster/DUD-E-result/kif11

> <s_m_Source_File>
dock_pv.maegz

> <i_m_Source_File_Index>
87

> <chembl_id>
CHEMBL3633533

> <chembl_pref_name>
None

> <i_lp_mmshare_version>
53161

> <i_f3d_flags>
0

> <r_lp_tautomer_probability>
1

> <s_lp_Force_Field>
OPLS_2005

> <r_lp_Energy>
42.982691

> <b_lp_Chiralities_Consistent>
1

> <s_lp_Variant>
CHEMBL4581_lig699-1

> <s_i_glide_gridfile>
glide-grid_3cjo

> <i_i_glide_lignum>
1042

> <i_i_glide_rotatable_bonds>
6

> <r_i_docking_score>
-8.66060944885974

> <r_i_glide_ligand_efficiency>
-0.298641705133094

> <r_i_glide_ligand_efficiency_sa>
-0.917521934502061

> <r_i_glide_ligand_efficiency_ln>
-1.98305994968208

> <r_i_glide_gscore>
-8.66060944885974

> <r_i_glide_lipo>
-4.78286171899115

> <r_i_glide_hbond>
-0.152

> <r_i_glide_metal>
0

> <r_i_glide_rewards>
-0.753266573909209

> <r_i_glide_evdw>
-40.7073287963867

> <r_i_glide_ecoul>
-10.2208623886108

> <r_i_glide_erotb>
0.602865415165894

> <r_i_glide_esite>
-0.0068507730143143

> <r_i_glide_emodel>
-76.5756667462077

> <r_i_glide_energy>
-50.9281911849976

> <r_i_glide_einternal>
3.35057926177979

> <i_i_glide_confnum>
147

> <i_i_glide_posenum>
317

> <r_i_glide_eff_state_penalty>
0

> <s_user_duplicate_titles>
CHEMBL4581_lig699

> <s_m_subgroup_title>
dock_pv

> <s_m_subgroupid>
dock_pv

> <b_m_subgroup_collapsed>
1

$$$$
CHEMBL4581_lig706
                    3D
 Schrodinger Suite 2021-1.
 54 57  0  0  1  0            999 V2000
   18.2181   17.2740  110.7638 C   0  0  0  0  0  0
   19.1204   16.1334  111.2850 C   0  0  0  0  0  0
   17.3261   14.6632  109.3685 C   0  0  0  0  0  0
   16.7717   17.0222  110.3197 C   0  0  0  0  0  0
   16.3430   15.8522  109.6268 C   0  0  0  0  0  0
   14.9896   15.8066  109.2272 C   0  0  0  0  0  0
   14.1011   16.8462  109.4751 C   0  0  0  0  0  0
   14.5352   17.9768  110.1468 C   0  0  0  0  0  0
   15.8572   18.0583  110.5588 C   0  0  0  0  0  0
   17.6484   14.0855  110.7894 C   0  0  0  0  0  0
   18.4985   14.7971  111.6771 C   0  0  0  0  0  0
   18.7922   14.2717  112.9434 C   0  0  0  0  0  0
   18.2525   13.0659  113.3700 C   0  0  0  0  0  0
   17.4088   12.3634  112.5247 C   0  0  0  0  0  0
   17.1171   12.8647  111.2593 C   0  0  0  0  0  0
   18.5832   15.0268  108.5387 C   0  0  0  0  0  0
   18.6083   16.1559  107.7051 C   0  0  0  0  0  0
   19.6637   16.3622  106.8231 C   0  0  0  0  0  0
   20.7192   15.4579  106.7793 C   0  0  0  0  0  0
   20.7254   14.3588  107.6350 C   0  0  0  0  0  0
   19.6737   14.1475  108.5180 C   0  0  0  0  0  0
   16.5518   13.3468  108.2898 S   0  0  0  0  0  0
   16.6045   14.0027  106.5780 C   0  0  0  0  0  0
   15.9319   13.0989  105.5279 C   0  0  1  0  0  0
   14.3923   13.1104  105.6147 C   0  0  0  0  0  0
   16.3179   13.4850  104.1572 N   0  0  0  0  0  0
   13.9177   11.9622  106.1726 O   0  0  0  0  0  0
   13.7010   14.0532  105.2257 O   0  0  0  0  0  0
   21.8458   15.6501  105.7794 C   0  0  0  0  0  0
   18.2041   18.0462  111.5349 H   0  0  0  0  0  0
   18.7218   17.7786  109.9389 H   0  0  0  0  0  0
   19.6807   16.5266  112.1364 H   0  0  0  0  0  0
   19.9091   15.9304  110.5678 H   0  0  0  0  0  0
   14.5772   14.9532  108.7139 H   0  0  0  0  0  0
   13.0742   16.7717  109.1490 H   0  0  0  0  0  0
   13.8533   18.7908  110.3436 H   0  0  0  0  0  0
   16.1758   18.9550  111.0725 H   0  0  0  0  0  0
   19.4479   14.8049  113.6160 H   0  0  0  0  0  0
   18.4785   12.6833  114.3553 H   0  0  0  0  0  0
   16.9525   11.4451  112.8585 H   0  0  0  0  0  0
   16.4415   12.2750  110.6598 H   0  0  0  0  0  0
   17.7761   16.8420  107.6843 H   0  0  0  0  0  0
   19.6516   17.2183  106.1649 H   0  0  0  0  0  0
   21.5395   13.6493  107.6010 H   0  0  0  0  0  0
   19.6746   13.2617  109.1381 H   0  0  0  0  0  0
   16.1860   15.0100  106.5597 H   0  0  0  0  0  0
   17.6526   14.0878  106.2929 H   0  0  0  0  0  0
   16.2722   12.0742  105.6933 H   0  0  0  0  0  0
   16.3301   14.4917  104.0826 H   0  0  0  0  0  0
   17.2969   13.1973  104.0347 H   0  0  0  0  0  0
   14.6071   11.3860  106.5310 H   0  0  0  0  0  0
   22.1732   14.6875  105.3816 H   0  0  0  0  0  0
   22.7030   16.1370  106.2454 H   0  0  0  0  0  0
   21.5209   16.2458  104.9247 H   0  0  0  0  0  0
  1  4  1  0  0  0
  1  2  1  0  0  0
  1 30  1  0  0  0
  1 31  1  0  0  0
  2 11  1  0  0  0
  2 32  1  0  0  0
  2 33  1  0  0  0
  3 10  1  0  0  0
  3  5  1  0  0  0
  3 16  1  0  0  0
  3 22  1  0  0  0
  4  5  2  0  0  0
  4  9  1  0  0  0
  5  6  1  0  0  0
  6  7  2  0  0  0
  6 34  1  0  0  0
  7  8  1  0  0  0
  7 35  1  0  0  0
  8  9  2  0  0  0
  8 36  1  0  0  0
  9 37  1  0  0  0
 10 11  2  0  0  0
 10 15  1  0  0  0
 11 12  1  0  0  0
 12 13  2  0  0  0
 12 38  1  0  0  0
 13 14  1  0  0  0
 13 39  1  0  0  0
 14 15  2  0  0  0
 14 40  1  0  0  0
 15 41  1  0  0  0
 16 17  2  0  0  0
 16 21  1  0  0  0
 17 18  1  0  0  0
 17 42  1  0  0  0
 18 19  2  0  0  0
 18 43  1  0  0  0
 19 20  1  0  0  0
 19 29  1  0  0  0
 20 21  2  0  0  0
 20 44  1  0  0  0
 21 45  1  0  0  0
 22 23  1  0  0  0
 23 24  1  0  0  0
 23 46  1  0  0  0
 23 47  1  0  0  0
 24 25  1  0  0  0
 24 26  1  0  0  0
 24 48  1  0  0  0
 25 27  1  0  0  0
 25 28  2  0  0  0
 26 49  1  0  0  0
 26 50  1  0  0  0
 27 51  1  0  0  0
 29 52  1  0  0  0
 29 53  1  0  0  0
 29 54  1  0  0  0
M  END
> <s_m_entry_id>
89

> <s_m_entry_name>
dock_pv.88

> <s_m_Source_Path>
/home/csk/Desktop/cluster/DUD-E-result/kif11

> <s_m_Source_File>
dock_pv.maegz

> <i_m_Source_File_Index>
88

> <chembl_id>
CHEMBL3633526

> <chembl_pref_name>
None

> <i_lp_mmshare_version>
53161

> <i_f3d_flags>
0

> <r_lp_tautomer_probability>
1

> <s_lp_Force_Field>
OPLS_2005

> <r_lp_Energy>
37.170797

> <b_lp_Chiralities_Consistent>
1

> <s_lp_Variant>
CHEMBL4581_lig706-1

> <s_i_glide_gridfile>
glide-grid_3cjo

> <i_i_glide_lignum>
1049

> <i_i_glide_rotatable_bonds>
6

> <r_i_docking_score>
-8.65811062557203

> <r_i_glide_ligand_efficiency>
-0.298555538812829

> <r_i_glide_ligand_efficiency_sa>
-0.917257204266799

> <r_i_glide_ligand_efficiency_ln>
-1.98248778251389

> <r_i_glide_gscore>
-8.65811062557203

> <r_i_glide_lipo>
-4.73127926934091

> <r_i_glide_hbond>
-0.152

> <r_i_glide_metal>
0

> <r_i_glide_rewards>
-0.729074187066719

> <r_i_glide_evdw>
-42.6977920532227

> <r_i_glide_ecoul>
-10.0599384307861

> <r_i_glide_erotb>
0.602865415165894

> <r_i_glide_esite>
-0.00474221705124761

> <r_i_glide_emodel>
-79.2842622677482

> <r_i_glide_energy>
-52.7577304840088

> <r_i_glide_einternal>
1.66891181468964

> <i_i_glide_confnum>
206

> <i_i_glide_posenum>
127

> <r_i_glide_eff_state_penalty>
0

> <s_user_duplicate_titles>
CHEMBL4581_lig706

> <s_m_subgroup_title>
dock_pv

> <s_m_subgroupid>
dock_pv

> <b_m_subgroup_collapsed>
1

$$$$
CHEMBL4581_lig88
                    3D
 Schrodinger Suite 2021-1.
 56 59  0  0  1  0            999 V2000
   22.6033   14.0733  106.0476 C   0  0  0  0  0  0
   22.7191   15.2034  105.2458 C   0  0  0  0  0  0
   21.7917   16.2356  105.3589 C   0  0  0  0  0  0
   20.7320   16.1247  106.2560 C   0  0  0  0  0  0
   20.6131   14.9903  107.0733 C   0  0  0  0  0  0
   21.5619   13.9620  106.9610 C   0  0  0  0  0  0
   21.5202   12.8675  107.7595 F   0  0  0  0  0  0
   21.9060   17.3312  104.5772 F   0  0  0  0  0  0
   19.5062   14.8933  108.0258 C   0  0  0  0  0  0
   19.5863   14.4420  109.2059 N   0  0  0  0  0  0
   18.4142   14.6053  109.8734 N   0  0  0  0  0  0
   17.3161   15.0590  108.9530 C   0  0  2  0  0  0
   18.1206   15.3166  107.6633 C   0  0  0  0  0  0
   16.6190   16.3543  109.4752 C   0  0  0  0  0  0
   17.3568   17.5442  109.5326 C   0  0  0  0  0  0
   16.8096   18.6908  110.0825 C   0  0  0  0  0  0
   15.5044   18.6859  110.5584 C   0  0  0  0  0  0
   14.7481   17.5207  110.5054 C   0  0  0  0  0  0
   15.3088   16.3606  109.9775 C   0  0  0  0  0  0
   18.5216   14.9716  111.1856 C   0  0  0  0  0  0
   17.8828   14.2069  112.1091 N   0  0  0  0  0  0
   19.1749   15.9687  111.5168 O   0  0  0  0  0  0
   16.3248   13.8555  108.7245 C   0  0  0  0  0  0
   15.1503   13.9819  107.7012 C   0  0  0  0  0  0
   15.4582   13.8935  106.1943 C   0  0  0  0  0  0
   16.3180   12.7620  105.9120 N   0  0  0  0  0  0
   18.2131   14.3641  113.5359 C   0  0  0  0  0  0
   18.3496   12.9291  114.0058 C   0  0  0  0  0  0
   17.2909   12.2223  113.2082 C   0  0  0  0  0  0
   17.3428   12.8645  111.8283 C   0  0  0  0  0  0
   23.3117   13.2705  105.9610 H   0  0  0  0  0  0
   23.5180   15.2676  104.5261 H   0  0  0  0  0  0
   20.0298   16.9433  106.3228 H   0  0  0  0  0  0
   17.8099   14.7060  106.8242 H   0  0  0  0  0  0
   18.0885   16.3536  107.3336 H   0  0  0  0  0  0
   18.3865   17.5740  109.2056 H   0  0  0  0  0  0
   17.4274   19.5620  110.1589 H   0  0  0  0  0  0
   15.0877   19.5833  110.9921 H   0  0  0  0  0  0
   13.7396   17.5128  110.8922 H   0  0  0  0  0  0
   14.7171   15.4635  109.9963 H   0  0  0  0  0  0
   16.8986   12.9574  108.4858 H   0  0  0  0  0  0
   15.8539   13.6178  109.6717 H   0  0  0  0  0  0
   14.4495   13.1750  107.9208 H   0  0  0  0  0  0
   14.5849   14.8964  107.8667 H   0  0  0  0  0  0
   14.5294   13.7836  105.6325 H   0  0  0  0  0  0
   15.9217   14.8120  105.8336 H   0  0  0  0  0  0
   15.9172   11.8858  106.2348 H   0  0  0  0  0  0
   16.5427   12.6704  104.9303 H   0  0  0  0  0  0
   19.1422   14.8976  113.7473 H   0  0  0  0  0  0
   17.3490   14.7680  114.0652 H   0  0  0  0  0  0
   19.3399   12.5415  113.7684 H   0  0  0  0  0  0
   18.2054   12.8248  115.0768 H   0  0  0  0  0  0
   16.3180   12.3640  113.6796 H   0  0  0  0  0  0
   17.4477   11.1620  113.1581 H   0  0  0  0  0  0
   16.3174   12.8681  111.4790 H   0  0  0  0  0  0
   18.0142   12.2653  111.2094 H   0  0  0  0  0  0
  1  6  1  0  0  0
  1  2  2  0  0  0
  1 31  1  0  0  0
  2  3  1  0  0  0
  2 32  1  0  0  0
  3  4  2  0  0  0
  3  8  1  0  0  0
  4  5  1  0  0  0
  4 33  1  0  0  0
  5  9  1  0  0  0
  5  6  2  0  0  0
  6  7  1  0  0  0
  9 10  2  0  0  0
  9 13  1  0  0  0
 10 11  1  0  0  0
 11 20  1  0  0  0
 11 12  1  0  0  0
 12 23  1  0  0  0
 12 13  1  0  0  0
 12 14  1  0  0  0
 13 34  1  0  0  0
 13 35  1  0  0  0
 14 15  2  0  0  0
 14 19  1  0  0  0
 15 16  1  0  0  0
 15 36  1  0  0  0
 16 17  2  0  0  0
 16 37  1  0  0  0
 17 18  1  0  0  0
 17 38  1  0  0  0
 18 19  2  0  0  0
 18 39  1  0  0  0
 19 40  1  0  0  0
 20 21  1  0  0  0
 20 22  2  0  0  0
 21 27  1  0  0  0
 21 30  1  0  0  0
 23 24  1  0  0  0
 23 41  1  0  0  0
 23 42  1  0  0  0
 24 25  1  0  0  0
 24 43  1  0  0  0
 24 44  1  0  0  0
 25 26  1  0  0  0
 25 45  1  0  0  0
 25 46  1  0  0  0
 26 47  1  0  0  0
 26 48  1  0  0  0
 27 28  1  0  0  0
 27 49  1  0  0  0
 27 50  1  0  0  0
 28 29  1  0  0  0
 28 51  1  0  0  0
 28 52  1  0  0  0
 29 30  1  0  0  0
 29 53  1  0  0  0
 29 54  1  0  0  0
 30 55  1  0  0  0
 30 56  1  0  0  0
M  END
> <s_m_entry_id>
90

> <s_m_entry_name>
dock_pv.89

> <s_m_Source_Path>
/home/csk/Desktop/cluster/DUD-E-result/kif11

> <s_m_Source_File>
dock_pv.maegz

> <i_m_Source_File_Index>
89

> <chembl_id>
CHEMBL382790

> <chembl_pref_name>
None

> <i_lp_mmshare_version>
53161

> <i_f3d_flags>
0

> <r_lp_tautomer_probability>
1

> <s_lp_Force_Field>
OPLS_2005

> <r_lp_Energy>
75.034532

> <b_lp_Chiralities_Consistent>
1

> <s_lp_Variant>
CHEMBL4581_lig88-1

> <s_i_glide_gridfile>
glide-grid_3cjo

> <i_i_glide_lignum>
140

> <i_i_glide_rotatable_bonds>
7

> <r_i_docking_score>
-8.65703243533693

> <r_i_glide_ligand_efficiency>
-0.288567747844564

> <r_i_glide_ligand_efficiency_sa>
-0.896647085255969

> <r_i_glide_ligand_efficiency_ln>
-1.96697209523185

> <r_i_glide_gscore>
-8.65703243533693

> <r_i_glide_lipo>
-3.93742978871354

> <r_i_glide_hbond>
-0.32

> <r_i_glide_metal>
0

> <r_i_glide_rewards>
-2.46385024599081

> <r_i_glide_evdw>
-44.1070671081543

> <r_i_glide_ecoul>
-2.83878087997437

> <r_i_glide_erotb>
0.69541808677129

> <r_i_glide_esite>
0

> <r_i_glide_emodel>
-68.8363265725776

> <r_i_glide_energy>
-46.9458479881287

> <r_i_glide_einternal>
5.27917718887329

> <i_i_glide_confnum>
111

> <i_i_glide_posenum>
201

> <r_i_glide_eff_state_penalty>
0

> <s_user_duplicate_titles>
CHEMBL4581_lig88,347960

> <s_m_subgroup_title>
dock_pv

> <s_m_subgroupid>
dock_pv

> <b_m_subgroup_collapsed>
1

$$$$
CHEMBL4581_lig732
                    3D
 Schrodinger Suite 2021-1.
 72 75  0  0  1  0            999 V2000
   12.0991   15.9496  108.6618 C   0  0  0  0  0  0
   12.9483   14.8783  107.9550 C   0  0  2  0  0  0
   12.3038   13.6243  108.1514 O   0  0  0  0  0  0
   14.3921   14.8374  108.5325 C   0  0  0  0  0  0
   14.6826   13.9736  109.3649 O   0  0  0  0  0  0
   15.3205   15.7579  108.1518 N   0  0  0  0  0  0
   15.3608   16.3806  106.8079 C   0  0  0  0  0  0
   15.3587   15.4177  105.5779 C   0  0  2  0  0  0
   16.1917   14.1321  105.6723 C   0  0  0  0  0  0
   16.3182   13.6295  104.3080 N   0  0  1  0  0  0
   16.1706   14.7772  103.4157 C   0  0  0  0  0  0
   15.8755   16.0148  104.2698 C   0  0  2  0  0  0
   17.0352   16.6455  104.4700 F   0  0  0  0  0  0
   16.4162   16.1004  109.1079 C   0  0  1  0  0  0
   17.7422   15.5153  108.6673 C   0  0  0  0  0  0
   18.5572   16.0997  107.8031 N   0  0  0  0  0  0
   19.5503   15.2484  107.6568 C   0  0  0  0  0  0
   19.4448   14.1451  108.4194 O   0  0  0  0  0  0
   18.2726   14.2977  109.0530 C   0  0  0  0  0  0
   17.8147   13.1192  109.8633 C   0  0  0  0  0  0
   17.9211   13.2118  111.3733 C   0  0  0  0  0  0
   17.1198   12.3710  112.1490 C   0  0  0  0  0  0
   17.2740   12.3603  113.5303 C   0  0  0  0  0  0
   18.2424   13.1600  114.1222 C   0  0  0  0  0  0
   19.0404   14.0037  113.3572 C   0  0  0  0  0  0
   18.8778   14.0322  111.9777 C   0  0  0  0  0  0
   20.6993   15.3149  106.7197 C   0  0  0  0  0  0
   20.8207   16.4394  105.8943 C   0  0  0  0  0  0
   21.8451   16.5088  104.9601 C   0  0  0  0  0  0
   21.9187   17.5607  104.1178 F   0  0  0  0  0  0
   22.7592   15.4641  104.8687 C   0  0  0  0  0  0
   22.6876   14.3644  105.7105 C   0  0  0  0  0  0
   21.6404   14.2703  106.6151 C   0  0  0  0  0  0
   21.5890   13.1690  107.4055 F   0  0  0  0  0  0
   16.4343   17.5432  109.7427 C   0  0  0  0  0  0
   17.6071   17.6590  110.7510 C   0  0  0  0  0  0
   15.1100   17.7502  110.5198 C   0  0  0  0  0  0
   16.5872   18.6932  108.7229 C   0  0  0  0  0  0
   12.4815   16.9510  108.4693 H   0  0  0  0  0  0
   11.0706   15.9291  108.3022 H   0  0  0  0  0  0
   12.0695   15.8046  109.7436 H   0  0  0  0  0  0
   12.9317   15.0871  106.8916 H   0  0  0  0  0  0
   12.8238   12.9371  107.7291 H   0  0  0  0  0  0
   16.2722   16.9746  106.7451 H   0  0  0  0  0  0
   14.5546   17.1084  106.7158 H   0  0  0  0  0  0
   14.3315   15.1029  105.3984 H   0  0  0  0  0  0
   15.7151   13.3899  106.3214 H   0  0  0  0  0  0
   17.1694   14.3277  106.1193 H   0  0  0  0  0  0
   17.2499   13.2039  104.1913 H   0  0  0  0  0  0
   17.0535   14.9049  102.7866 H   0  0  0  0  0  0
   15.3321   14.5778  102.7465 H   0  0  0  0  0  0
   15.1779   16.7107  103.8044 H   0  0  0  0  0  0
   16.2300   15.5191  110.0138 H   0  0  0  0  0  0
   16.8474   12.7349  109.5402 H   0  0  0  0  0  0
   18.5361   12.3621  109.6176 H   0  0  0  0  0  0
   16.3854   11.7258  111.6846 H   0  0  0  0  0  0
   16.6489   11.7191  114.1345 H   0  0  0  0  0  0
   18.3630   13.1415  115.1936 H   0  0  0  0  0  0
   19.7848   14.6251  113.8294 H   0  0  0  0  0  0
   19.5194   14.6666  111.3828 H   0  0  0  0  0  0
   20.1069   17.2500  105.9507 H   0  0  0  0  0  0
   23.5176   15.4730  104.1116 H   0  0  0  0  0  0
   23.4016   13.5631  105.6235 H   0  0  0  0  0  0
   18.5747   17.6923  110.2489 H   0  0  0  0  0  0
   17.5367   18.5639  111.3615 H   0  0  0  0  0  0
   17.6342   16.8055  111.4264 H   0  0  0  0  0  0
   14.2512   17.7970  109.8497 H   0  0  0  0  0  0
   14.9273   16.9280  111.2168 H   0  0  0  0  0  0
   15.1159   18.6750  111.0996 H   0  0  0  0  0  0
   15.7581   18.7422  108.0200 H   0  0  0  0  0  0
   16.6224   19.6608  109.2263 H   0  0  0  0  0  0
   17.5170   18.6001  108.1649 H   0  0  0  0  0  0
  1  2  1  0  0  0
  1 39  1  0  0  0
  1 40  1  0  0  0
  1 41  1  0  0  0
  2  3  1  0  0  0
  2  4  1  0  0  0
  2 42  1  0  0  0
  3 43  1  0  0  0
  4  5  2  0  0  0
  4  6  1  0  0  0
  6  7  1  0  0  0
  6 14  1  0  0  0
  7  8  1  0  0  0
  7 44  1  0  0  0
  7 45  1  0  0  0
  8  9  1  0  0  0
  8 12  1  0  0  0
  8 46  1  0  0  0
  9 10  1  0  0  0
  9 47  1  0  0  0
  9 48  1  0  0  0
 10 11  1  0  0  0
 10 49  1  0  0  0
 11 12  1  0  0  0
 11 50  1  0  0  0
 11 51  1  0  0  0
 12 13  1  0  0  0
 12 52  1  0  0  0
 14 15  1  0  0  0
 14 35  1  0  0  0
 14 53  1  0  0  0
 15 16  1  0  0  0
 15 19  2  0  0  0
 16 17  2  0  0  0
 17 18  1  0  0  0
 17 27  1  0  0  0
 18 19  1  0  0  0
 19 20  1  0  0  0
 20 21  1  0  0  0
 20 54  1  0  0  0
 20 55  1  0  0  0
 21 22  2  0  0  0
 21 26  1  0  0  0
 22 23  1  0  0  0
 22 56  1  0  0  0
 23 24  2  0  0  0
 23 57  1  0  0  0
 24 25  1  0  0  0
 24 58  1  0  0  0
 25 26  2  0  0  0
 25 59  1  0  0  0
 26 60  1  0  0  0
 27 28  2  0  0  0
 27 33  1  0  0  0
 28 29  1  0  0  0
 28 61  1  0  0  0
 29 30  1  0  0  0
 29 31  2  0  0  0
 31 32  1  0  0  0
 31 62  1  0  0  0
 32 33  2  0  0  0
 32 63  1  0  0  0
 33 34  1  0  0  0
 35 36  1  0  0  0
 35 37  1  0  0  0
 35 38  1  0  0  0
 36 64  1  0  0  0
 36 65  1  0  0  0
 36 66  1  0  0  0
 37 67  1  0  0  0
 37 68  1  0  0  0
 37 69  1  0  0  0
 38 70  1  0  0  0
 38 71  1  0  0  0
 38 72  1  0  0  0
M  END
> <s_m_entry_id>
91

> <s_m_entry_name>
dock_pv.90

> <s_m_Source_Path>
/home/csk/Desktop/cluster/DUD-E-result/kif11

> <s_m_Source_File>
dock_pv.maegz

> <i_m_Source_File_Index>
90

> <chembl_id>
CHEMBL3680849

> <chembl_pref_name>
None

> <i_lp_mmshare_version>
53161

> <i_f3d_flags>
0

> <r_lp_tautomer_probability>
1

> <s_lp_Force_Field>
OPLS_2005

> <r_lp_Energy>
61.34038

> <b_lp_Chiralities_Consistent>
1

> <s_lp_Variant>
CHEMBL4581_lig732-1

> <s_i_glide_gridfile>
glide-grid_3cjo

> <i_i_glide_lignum>
1079

> <i_i_glide_rotatable_bonds>
11

> <r_i_docking_score>
-8.65449590757487

> <r_i_glide_ligand_efficiency>
-0.227749892304602

> <r_i_glide_ligand_efficiency_sa>
-0.765689535900764

> <r_i_glide_ligand_efficiency_ln>
-1.86616390714895

> <r_i_glide_gscore>
-8.65449590757487

> <r_i_glide_lipo>
-5.15796756869997

> <r_i_glide_hbond>
-0.16

> <r_i_glide_metal>
0

> <r_i_glide_rewards>
-0.704474083032227

> <r_i_glide_evdw>
-45.555606842041

> <r_i_glide_ecoul>
-6.28070211410522

> <r_i_glide_erotb>
0.587831403375163

> <r_i_glide_esite>
0

> <r_i_glide_emodel>
-50.8661119076176

> <r_i_glide_energy>
-51.8363089561462

> <r_i_glide_einternal>
10.751802444458

> <i_i_glide_confnum>
196

> <i_i_glide_posenum>
106

> <r_i_glide_eff_state_penalty>
0

> <s_user_duplicate_titles>
CHEMBL4581_lig732

> <s_m_subgroup_title>
dock_pv

> <s_m_subgroupid>
dock_pv

> <b_m_subgroup_collapsed>
1

$$$$
CHEMBL4581_lig42
                    3D
 Schrodinger Suite 2021-1.
 48 50  0  0  1  0            999 V2000
   22.6809   15.4637  105.2769 C   0  0  0  0  0  0
   21.7120   16.4579  105.3590 C   0  0  0  0  0  0
   20.6349   16.3091  106.2308 C   0  0  0  0  0  0
   20.5132   15.1751  107.0516 C   0  0  0  0  0  0
   21.5136   14.1841  106.9590 C   0  0  0  0  0  0
   22.5773   14.3287  106.0707 C   0  0  0  0  0  0
   19.3672   15.0903  107.9988 C   0  0  0  0  0  0
   18.5293   16.2856  108.4153 C   0  0  0  0  0  0
   17.5298   15.7495  109.3280 N   0  0  0  0  0  0
   17.7538   14.3123  109.5247 C   0  0  1  0  0  0
   18.9257   13.9852  108.6284 C   0  0  0  0  0  0
   18.0033   13.8799  110.9734 C   0  0  0  0  0  0
   17.3321   12.7624  111.4791 C   0  0  0  0  0  0
   17.5179   12.3795  112.8047 C   0  0  0  0  0  0
   18.3849   13.1027  113.6196 C   0  0  0  0  0  0
   19.0681   14.2096  113.1205 C   0  0  0  0  0  0
   18.8730   14.6030  111.7993 C   0  0  0  0  0  0
   16.4810   16.4301  109.8595 C   0  0  0  0  0  0
   15.6350   15.8689  110.5591 O   0  0  0  0  0  0
   21.5182   13.1011  107.7680 F   0  0  0  0  0  0
   21.8101   17.5611  104.5843 F   0  0  0  0  0  0
   16.3509   17.9712  109.6313 C   0  0  1  0  0  0
   15.0988   18.2777  108.7381 C   0  0  0  0  0  0
   16.3135   18.6317  110.9558 N   0  0  0  0  0  0
   15.0366   19.7649  108.3387 C   0  0  0  0  0  0
   13.7262   17.8491  109.3104 C   0  0  0  0  0  0
   23.5073   15.5621  104.5926 H   0  0  0  0  0  0
   19.9064   17.1049  106.2694 H   0  0  0  0  0  0
   23.3328   13.5619  106.0089 H   0  0  0  0  0  0
   18.0431   16.7625  107.5634 H   0  0  0  0  0  0
   19.1181   17.0582  108.9091 H   0  0  0  0  0  0
   16.8690   13.7819  109.1666 H   0  0  0  0  0  0
   19.2993   12.9753  108.5589 H   0  0  0  0  0  0
   16.6545   12.1977  110.8542 H   0  0  0  0  0  0
   16.9769   11.5353  113.2038 H   0  0  0  0  0  0
   18.5288   12.7995  114.6473 H   0  0  0  0  0  0
   19.7426   14.7621  113.7578 H   0  0  0  0  0  0
   19.3975   15.4666  111.4162 H   0  0  0  0  0  0
   17.2287   18.3461  109.1056 H   0  0  0  0  0  0
   15.2220   17.7307  107.8011 H   0  0  0  0  0  0
   15.5194   18.3393  111.5088 H   0  0  0  0  0  0
   17.1429   18.4650  111.5082 H   0  0  0  0  0  0
   14.9686   20.4100  109.2154 H   0  0  0  0  0  0
   14.1726   19.9720  107.7069 H   0  0  0  0  0  0
   15.9179   20.0633  107.7758 H   0  0  0  0  0  0
   13.5659   18.2560  110.3091 H   0  0  0  0  0  0
   12.9098   18.2005  108.6792 H   0  0  0  0  0  0
   13.6228   16.7662  109.3667 H   0  0  0  0  0  0
  1  6  1  0  0  0
  1  2  2  0  0  0
  1 27  1  0  0  0
  2 21  1  0  0  0
  2  3  1  0  0  0
  3  4  2  0  0  0
  3 28  1  0  0  0
  4  7  1  0  0  0
  4  5  1  0  0  0
  5  6  2  0  0  0
  5 20  1  0  0  0
  6 29  1  0  0  0
  7  8  1  0  0  0
  7 11  2  0  0  0
  8  9  1  0  0  0
  8 30  1  0  0  0
  8 31  1  0  0  0
  9 10  1  0  0  0
  9 18  1  0  0  0
 10 11  1  0  0  0
 10 12  1  0  0  0
 10 32  1  0  0  0
 11 33  1  0  0  0
 12 13  2  0  0  0
 12 17  1  0  0  0
 13 14  1  0  0  0
 13 34  1  0  0  0
 14 15  2  0  0  0
 14 35  1  0  0  0
 15 16  1  0  0  0
 15 36  1  0  0  0
 16 17  2  0  0  0
 16 37  1  0  0  0
 17 38  1  0  0  0
 18 19  2  0  0  0
 18 22  1  0  0  0
 22 23  1  0  0  0
 22 24  1  0  0  0
 22 39  1  0  0  0
 23 25  1  0  0  0
 23 26  1  0  0  0
 23 40  1  0  0  0
 24 41  1  0  0  0
 24 42  1  0  0  0
 25 43  1  0  0  0
 25 44  1  0  0  0
 25 45  1  0  0  0
 26 46  1  0  0  0
 26 47  1  0  0  0
 26 48  1  0  0  0
M  END
> <s_m_entry_id>
92

> <s_m_entry_name>
dock_pv.91

> <s_m_Source_Path>
/home/csk/Desktop/cluster/DUD-E-result/kif11

> <s_m_Source_File>
dock_pv.maegz

> <i_m_Source_File_Index>
91

> <chembl_id>
CHEMBL204369

> <chembl_pref_name>
None

> <i_lp_mmshare_version>
53161

> <i_f3d_flags>
0

> <r_lp_tautomer_probability>
1

> <s_lp_Force_Field>
OPLS_2005

> <r_lp_Energy>
34.713922

> <b_lp_Chiralities_Consistent>
1

> <s_lp_Variant>
CHEMBL4581_lig42-1

> <s_i_glide_gridfile>
glide-grid_3cjo

> <i_i_glide_lignum>
68

> <i_i_glide_rotatable_bonds>
5

> <r_i_docking_score>
-8.65344396441818

> <r_i_glide_ligand_efficiency>
-0.332824767862238

> <r_i_glide_ligand_efficiency_sa>
-0.985992065189656

> <r_i_glide_ligand_efficiency_ln>
-2.03223292077802

> <r_i_glide_gscore>
-8.65344396441818

> <r_i_glide_lipo>
-4.61616043280482

> <r_i_glide_hbond>
0

> <r_i_glide_metal>
0

> <r_i_glide_rewards>
-2.22947851814158

> <r_i_glide_evdw>
-40.3129653930664

> <r_i_glide_ecoul>
-2.63073229789734

> <r_i_glide_erotb>
0.602453100866144

> <r_i_glide_esite>
0

> <r_i_glide_emodel>
-64.9109753243443

> <r_i_glide_energy>
-42.9436976909637

> <r_i_glide_einternal>
1.45973527431488

> <i_i_glide_confnum>
6

> <i_i_glide_posenum>
267

> <r_i_glide_eff_state_penalty>
0

> <s_user_duplicate_titles>
CHEMBL4581_lig42

> <s_m_subgroup_title>
dock_pv

> <s_m_subgroupid>
dock_pv

> <b_m_subgroup_collapsed>
1

$$$$
CHEMBL4581_lig102
                    3D
 Schrodinger Suite 2021-1.
 54 56  0  0  1  0            999 V2000
   22.5578   14.2817  106.0795 C   0  0  0  0  0  0
   22.7035   15.3823  105.2457 C   0  0  0  0  0  0
   21.7787   16.4188  105.2901 C   0  0  0  0  0  0
   20.6914   16.3403  106.1544 C   0  0  0  0  0  0
   20.5119   15.2234  106.9897 C   0  0  0  0  0  0
   21.4808   14.2001  106.9580 C   0  0  0  0  0  0
   21.4576   13.1616  107.8222 F   0  0  0  0  0  0
   21.9180   17.4865  104.4755 F   0  0  0  0  0  0
   19.3477   15.2087  107.8978 C   0  0  0  0  0  0
   18.7552   16.2518  108.3043 N   0  0  0  0  0  0
   17.6836   15.9523  109.0750 N   0  0  0  0  0  0
   17.5404   14.4837  109.2884 C   0  0  1  0  0  0
   18.6801   13.9566  108.3970 C   0  0  0  0  0  0
   17.8176   14.0428  110.7591 C   0  0  0  0  0  0
   17.2555   12.8640  111.2766 C   0  0  0  0  0  0
   17.5177   12.4608  112.5824 C   0  0  0  0  0  0
   18.3597   13.2207  113.3847 C   0  0  0  0  0  0
   18.9473   14.3794  112.8872 C   0  0  0  0  0  0
   18.6749   14.7901  111.5839 C   0  0  0  0  0  0
   16.8400   16.9561  109.4419 C   0  0  0  0  0  0
   16.2267   16.7753  110.6259 N   0  0  0  0  0  0
   16.7012   17.9878  108.7770 O   0  0  0  0  0  0
   15.1132   17.5767  111.1433 C   0  0  0  0  0  0
   16.1313   13.9685  108.7856 C   0  0  0  0  0  0
   15.3818   19.0919  111.2342 C   0  0  0  0  0  0
   15.4431   14.6199  107.5519 C   0  0  0  0  0  0
   16.0853   14.3833  106.1673 C   0  0  0  0  0  0
   16.1186   12.9166  105.7019 C   0  0  0  0  0  0
   14.8243   12.3615  105.7555 O   0  0  0  0  0  0
   23.2906   13.4928  106.0532 H   0  0  0  0  0  0
   23.5186   15.4218  104.5508 H   0  0  0  0  0  0
   19.9873   17.1611  106.1597 H   0  0  0  0  0  0
   19.3781   13.3354  108.9586 H   0  0  0  0  0  0
   18.3180   13.3645  107.5615 H   0  0  0  0  0  0
   16.6129   12.2354  110.6806 H   0  0  0  0  0  0
   17.0645   11.5622  112.9715 H   0  0  0  0  0  0
   18.5654   12.9019  114.3961 H   0  0  0  0  0  0
   19.6156   14.9576  113.5061 H   0  0  0  0  0  0
   19.1534   15.6856  111.2142 H   0  0  0  0  0  0
   16.5017   15.9719  111.1724 H   0  0  0  0  0  0
   14.2359   17.3955  110.5184 H   0  0  0  0  0  0
   14.8593   17.1988  112.1335 H   0  0  0  0  0  0
   16.1711   12.8905  108.6196 H   0  0  0  0  0  0
   15.4223   14.0955  109.6060 H   0  0  0  0  0  0
   14.5748   19.5976  111.7598 H   0  0  0  0  0  0
   16.3133   19.3020  111.7589 H   0  0  0  0  0  0
   15.4391   19.5608  110.2528 H   0  0  0  0  0  0
   14.4162   14.2490  107.5135 H   0  0  0  0  0  0
   15.3148   15.6919  107.6929 H   0  0  0  0  0  0
   15.5287   14.9593  105.4264 H   0  0  0  0  0  0
   17.0907   14.7990  106.1404 H   0  0  0  0  0  0
   16.5254   12.8217  104.6938 H   0  0  0  0  0  0
   16.7236   12.3140  106.3745 H   0  0  0  0  0  0
   14.8598   11.6157  106.3703 H   0  0  0  0  0  0
  1  6  1  0  0  0
  1  2  2  0  0  0
  1 30  1  0  0  0
  2  3  1  0  0  0
  2 31  1  0  0  0
  3  4  2  0  0  0
  3  8  1  0  0  0
  4  5  1  0  0  0
  4 32  1  0  0  0
  5  9  1  0  0  0
  5  6  2  0  0  0
  6  7  1  0  0  0
  9 10  2  0  0  0
  9 13  1  0  0  0
 10 11  1  0  0  0
 11 20  1  0  0  0
 11 12  1  0  0  0
 12 14  1  0  0  0
 12 24  1  0  0  0
 12 13  1  0  0  0
 13 33  1  0  0  0
 13 34  1  0  0  0
 14 15  2  0  0  0
 14 19  1  0  0  0
 15 16  1  0  0  0
 15 35  1  0  0  0
 16 17  2  0  0  0
 16 36  1  0  0  0
 17 18  1  0  0  0
 17 37  1  0  0  0
 18 19  2  0  0  0
 18 38  1  0  0  0
 19 39  1  0  0  0
 20 21  1  0  0  0
 20 22  2  0  0  0
 21 23  1  0  0  0
 21 40  1  0  0  0
 23 25  1  0  0  0
 23 41  1  0  0  0
 23 42  1  0  0  0
 24 26  1  0  0  0
 24 43  1  0  0  0
 24 44  1  0  0  0
 25 45  1  0  0  0
 25 46  1  0  0  0
 25 47  1  0  0  0
 26 27  1  0  0  0
 26 48  1  0  0  0
 26 49  1  0  0  0
 27 28  1  0  0  0
 27 50  1  0  0  0
 27 51  1  0  0  0
 28 29  1  0  0  0
 28 52  1  0  0  0
 28 53  1  0  0  0
 29 54  1  0  0  0
M  END
> <s_m_entry_id>
93

> <s_m_entry_name>
dock_pv.92

> <s_m_Source_Path>
/home/csk/Desktop/cluster/DUD-E-result/kif11

> <s_m_Source_File>
dock_pv.maegz

> <i_m_Source_File_Index>
92

> <chembl_id>
CHEMBL383402

> <chembl_pref_name>
None

> <i_lp_mmshare_version>
53161

> <i_f3d_flags>
0

> <r_lp_tautomer_probability>
1

> <s_lp_Force_Field>
OPLS_2005

> <r_lp_Energy>
32.020976

> <b_lp_Chiralities_Consistent>
1

> <s_lp_Variant>
CHEMBL4581_lig102-2

> <s_i_glide_gridfile>
glide-grid_3cjo

> <i_i_glide_lignum>
173

> <i_i_glide_rotatable_bonds>
10

> <r_i_docking_score>
-8.63673004731584

> <r_i_glide_ligand_efficiency>
-0.29781827749365

> <r_i_glide_ligand_efficiency_sa>
-0.9149921039135

> <r_i_glide_ligand_efficiency_ln>
-1.9775921722579

> <r_i_glide_gscore>
-8.63673004731584

> <r_i_glide_lipo>
-4.12153962962711

> <r_i_glide_hbond>
-0.32

> <r_i_glide_metal>
0

> <r_i_glide_rewards>
-2.26680679955342

> <r_i_glide_evdw>
-45.584300994873

> <r_i_glide_ecoul>
-4.1520471572876

> <r_i_glide_erotb>
0.973638505201484

> <r_i_glide_esite>
0

> <r_i_glide_emodel>
-72.278002919126

> <r_i_glide_energy>
-49.7363481521606

> <r_i_glide_einternal>
4.33588409423828

> <i_i_glide_confnum>
63

> <i_i_glide_posenum>
359

> <r_i_glide_eff_state_penalty>
0

> <s_user_duplicate_titles>
CHEMBL4581_lig102,347517

> <s_m_subgroup_title>
dock_pv

> <s_m_subgroupid>
dock_pv

> <b_m_subgroup_collapsed>
1

$$$$
CHEMBL4581_lig697
                    3D
 Schrodinger Suite 2021-1.
 53 56  0  0  1  0            999 V2000
   18.5339   17.1291  110.9535 C   0  0  0  0  0  0
   19.1803   16.0911  111.5024 C   0  0  0  0  0  0
   17.3058   14.7480  109.5753 C   0  0  0  0  0  0
   17.1319   17.1597  110.5050 C   0  0  0  0  0  0
   16.4867   16.0489  109.8983 C   0  0  0  0  0  0
   15.1213   16.2136  109.5754 C   0  0  0  0  0  0
   14.4339   17.3975  109.8274 C   0  0  0  0  0  0
   15.0903   18.4661  110.4187 C   0  0  0  0  0  0
   16.4323   18.3418  110.7505 C   0  0  0  0  0  0
   17.6868   14.1117  110.9607 C   0  0  0  0  0  0
   18.6279   14.7627  111.8030 C   0  0  0  0  0  0
   19.0122   14.1979  113.0239 C   0  0  0  0  0  0
   18.4511   13.0076  113.4646 C   0  0  0  0  0  0
   17.5169   12.3622  112.6690 C   0  0  0  0  0  0
   17.1562   12.8947  111.4346 C   0  0  0  0  0  0
   18.5522   15.0314  108.6941 C   0  0  0  0  0  0
   18.5882   16.1409  107.8390 C   0  0  0  0  0  0
   19.6611   16.3471  106.9838 C   0  0  0  0  0  0
   20.7273   15.4416  106.9595 C   0  0  0  0  0  0
   20.7173   14.3600  107.8377 C   0  0  0  0  0  0
   19.6546   14.1618  108.7124 C   0  0  0  0  0  0
   16.2487   13.5625  108.5867 S   0  0  0  0  0  0
   16.9959   13.1643  106.9565 C   0  0  0  0  0  0
   16.2201   13.7683  105.7647 C   0  0  1  0  0  0
   16.7190   15.1775  105.3615 C   0  0  0  0  0  0
   16.3167   12.9040  104.5758 N   0  0  0  0  0  0
   17.9171   15.1633  104.6949 O   0  0  0  0  0  0
   16.0881   16.1922  105.6491 O   0  0  0  0  0  0
   21.8124   15.5496  106.1157 O   0  0  0  0  0  0
   21.8621   16.6397  105.2000 C   0  0  0  0  0  0
   19.0927   18.0409  110.7913 H   0  0  0  0  0  0
   20.2202   16.2303  111.7584 H   0  0  0  0  0  0
   14.5480   15.4261  109.1137 H   0  0  0  0  0  0
   13.3897   17.4839  109.5652 H   0  0  0  0  0  0
   14.5620   19.3860  110.6254 H   0  0  0  0  0  0
   16.9279   19.1618  111.2441 H   0  0  0  0  0  0
   19.7225   14.7031  113.6632 H   0  0  0  0  0  0
   18.7276   12.5947  114.4254 H   0  0  0  0  0  0
   17.0501   11.4535  113.0166 H   0  0  0  0  0  0
   16.4300   12.3337  110.8687 H   0  0  0  0  0  0
   17.7620   16.8352  107.7913 H   0  0  0  0  0  0
   19.6318   17.2032  106.3299 H   0  0  0  0  0  0
   21.5399   13.6596  107.8306 H   0  0  0  0  0  0
   19.6591   13.2945  109.3572 H   0  0  0  0  0  0
   16.9624   12.0775  106.8965 H   0  0  0  0  0  0
   18.0531   13.3881  106.8780 H   0  0  0  0  0  0
   15.1694   13.8622  106.0402 H   0  0  0  0  0  0
   15.9550   13.3576  103.7490 H   0  0  0  0  0  0
   17.2874   12.6373  104.3865 H   0  0  0  0  0  0
   18.2617   14.2613  104.5609 H   0  0  0  0  0  0
   22.7198   16.5211  104.5452 H   0  0  0  0  0  0
   20.9798   16.6831  104.5603 H   0  0  0  0  0  0
   21.9653   17.5876  105.7283 H   0  0  0  0  0  0
  1  4  1  0  0  0
  1  2  2  0  0  0
  1 31  1  0  0  0
  2 11  1  0  0  0
  2 32  1  0  0  0
  3 10  1  0  0  0
  3  5  1  0  0  0
  3 16  1  0  0  0
  3 22  1  0  0  0
  4  5  2  0  0  0
  4  9  1  0  0  0
  5  6  1  0  0  0
  6  7  2  0  0  0
  6 33  1  0  0  0
  7  8  1  0  0  0
  7 34  1  0  0  0
  8  9  2  0  0  0
  8 35  1  0  0  0
  9 36  1  0  0  0
 10 11  2  0  0  0
 10 15  1  0  0  0
 11 12  1  0  0  0
 12 13  2  0  0  0
 12 37  1  0  0  0
 13 14  1  0  0  0
 13 38  1  0  0  0
 14 15  2  0  0  0
 14 39  1  0  0  0
 15 40  1  0  0  0
 16 17  2  0  0  0
 16 21  1  0  0  0
 17 18  1  0  0  0
 17 41  1  0  0  0
 18 19  2  0  0  0
 18 42  1  0  0  0
 19 20  1  0  0  0
 19 29  1  0  0  0
 20 21  2  0  0  0
 20 43  1  0  0  0
 21 44  1  0  0  0
 22 23  1  0  0  0
 23 24  1  0  0  0
 23 45  1  0  0  0
 23 46  1  0  0  0
 24 25  1  0  0  0
 24 26  1  0  0  0
 24 47  1  0  0  0
 25 27  1  0  0  0
 25 28  2  0  0  0
 26 48  1  0  0  0
 26 49  1  0  0  0
 27 50  1  0  0  0
 29 30  1  0  0  0
 30 51  1  0  0  0
 30 52  1  0  0  0
 30 53  1  0  0  0
M  END
> <s_m_entry_id>
94

> <s_m_entry_name>
dock_pv.93

> <s_m_Source_Path>
/home/csk/Desktop/cluster/DUD-E-result/kif11

> <s_m_Source_File>
dock_pv.maegz

> <i_m_Source_File_Index>
93

> <chembl_id>
CHEMBL3633535

> <chembl_pref_name>
None

> <i_lp_mmshare_version>
53161

> <i_f3d_flags>
0

> <r_lp_tautomer_probability>
1

> <s_lp_Force_Field>
OPLS_2005

> <r_lp_Energy>
41.805704

> <b_lp_Chiralities_Consistent>
1

> <s_lp_Variant>
CHEMBL4581_lig697-1

> <s_i_glide_gridfile>
glide-grid_3cjo

> <i_i_glide_lignum>
1040

> <i_i_glide_rotatable_bonds>
7

> <r_i_docking_score>
-8.63590581871031

> <r_i_glide_ligand_efficiency>
-0.287863527290344

> <r_i_glide_ligand_efficiency_sa>
-0.894458908261014

> <r_i_glide_ligand_efficiency_ln>
-1.96217189774135

> <r_i_glide_gscore>
-8.63590581871031

> <r_i_glide_lipo>
-4.8432252342122

> <r_i_glide_hbond>
-0.152

> <r_i_glide_metal>
0

> <r_i_glide_rewards>
-0.670305856856357

> <r_i_glide_evdw>
-43.2841491699219

> <r_i_glide_ecoul>
-9.04879665374756

> <r_i_glide_erotb>
0.566930405713292

> <r_i_glide_esite>
-0.015778176796814

> <r_i_glide_emodel>
-76.9524780298644

> <r_i_glide_energy>
-52.3329458236694

> <r_i_glide_einternal>
10.8514423370361

> <i_i_glide_confnum>
3

> <i_i_glide_posenum>
337

> <r_i_glide_eff_state_penalty>
0

> <s_user_duplicate_titles>
CHEMBL4581_lig697

> <s_m_subgroup_title>
dock_pv

> <s_m_subgroupid>
dock_pv

> <b_m_subgroup_collapsed>
1

$$$$
CHEMBL4581_lig242
                    3D
 Schrodinger Suite 2021-1.
 55 58  0  0  1  0            999 V2000
   22.5715   15.2442  105.4275 C   0  0  0  0  0  0
   21.6492   16.2860  105.3395 C   0  0  0  0  0  0
   20.4855   16.2645  106.1083 C   0  0  0  0  0  0
   22.3475   14.1899  106.3087 C   0  0  0  0  0  0
   21.2081   14.1904  107.1163 C   0  0  0  0  0  0
   20.2403   15.2013  106.9865 C   0  0  0  0  0  0
   20.1367   13.3346  109.0611 C   0  0  0  0  0  0
   21.1182   13.1620  108.0315 O   0  0  0  0  0  0
   18.7838   13.9120  108.5474 C   0  0  2  0  0  0
   19.0456   15.0746  107.7143 N   0  0  0  0  0  0
   18.5708   16.2378  108.3338 N   0  0  0  0  0  0
   17.8339   15.9151  109.3212 C   0  0  0  0  0  0
   17.7246   14.3910  109.5807 C   0  0  1  0  0  0
   16.3066   13.8241  109.1686 C   0  0  0  0  0  0
   17.1400   16.9263  110.1244 C   0  0  0  0  0  0
   16.2841   16.6408  110.9589 O   0  0  0  0  0  0
   18.0666   13.9703  111.0544 C   0  0  0  0  0  0
   17.5189   12.8070  111.6265 C   0  0  0  0  0  0
   17.8054   12.4437  112.9385 C   0  0  0  0  0  0
   18.6700   13.2207  113.6988 C   0  0  0  0  0  0
   19.2505   14.3604  113.1528 C   0  0  0  0  0  0
   18.9550   14.7278  111.8433 C   0  0  0  0  0  0
   15.6840   14.1940  107.7883 C   0  0  0  0  0  0
   14.8775   15.5119  107.7086 C   0  0  0  0  0  0
   17.5255   18.3959  109.9335 C   0  0  0  0  0  0
   21.9170   17.5618  104.2131 Cl  0  0  0  0  0  0
   13.8180   15.6142  108.7204 N   0  0  0  0  0  0
   12.7521   14.6336  108.5177 C   0  0  0  0  0  0
   13.2510   16.9597  108.7167 C   0  0  0  0  0  0
   18.3341   13.1406  107.9210 H   0  0  0  0  0  0
   23.4586   15.2468  104.8112 H   0  0  0  0  0  0
   19.7613   17.0590  106.0038 H   0  0  0  0  0  0
   23.0800   13.3983  106.3894 H   0  0  0  0  0  0
   19.9647   12.3690  109.5337 H   0  0  0  0  0  0
   20.5703   13.9902  109.8097 H   0  0  0  0  0  0
   15.5822   14.0453  109.9541 H   0  0  0  0  0  0
   16.3739   12.7363  109.1432 H   0  0  0  0  0  0
   16.8524   12.1570  111.0820 H   0  0  0  0  0  0
   17.3516   11.5614  113.3602 H   0  0  0  0  0  0
   18.8948   12.9310  114.7150 H   0  0  0  0  0  0
   19.9372   14.9494  113.7410 H   0  0  0  0  0  0
   19.4331   15.6127  111.4502 H   0  0  0  0  0  0
   15.0529   13.3766  107.4355 H   0  0  0  0  0  0
   16.4689   14.2362  107.0340 H   0  0  0  0  0  0
   14.4418   15.6129  106.7122 H   0  0  0  0  0  0
   15.5602   16.3544  107.8178 H   0  0  0  0  0  0
   17.3312   18.7102  108.9069 H   0  0  0  0  0  0
   16.9462   19.0311  110.6047 H   0  0  0  0  0  0
   18.5841   18.5493  110.1486 H   0  0  0  0  0  0
   11.9729   14.7486  109.2737 H   0  0  0  0  0  0
   12.2857   14.7411  107.5370 H   0  0  0  0  0  0
   13.1293   13.6140  108.6038 H   0  0  0  0  0  0
   12.4948   17.0634  109.4970 H   0  0  0  0  0  0
   14.0225   17.7058  108.9173 H   0  0  0  0  0  0
   12.7859   17.2002  107.7597 H   0  0  0  0  0  0
  1  2  2  0  0  0
  1  4  1  0  0  0
  1 31  1  0  0  0
  2  3  1  0  0  0
  2 26  1  0  0  0
  3  6  2  0  0  0
  3 32  1  0  0  0
  4  5  2  0  0  0
  4 33  1  0  0  0
  5  8  1  0  0  0
  5  6  1  0  0  0
  6 10  1  0  0  0
  7  9  1  0  0  0
  7  8  1  0  0  0
  7 34  1  0  0  0
  7 35  1  0  0  0
  9 10  1  0  0  0
  9 13  1  0  0  0
  9 30  1  0  0  0
 10 11  1  0  0  0
 11 12  2  0  0  0
 12 15  1  0  0  0
 12 13  1  0  0  0
 13 14  1  0  0  0
 13 17  1  0  0  0
 14 23  1  0  0  0
 14 36  1  0  0  0
 14 37  1  0  0  0
 15 16  2  0  0  0
 15 25  1  0  0  0
 17 18  2  0  0  0
 17 22  1  0  0  0
 18 19  1  0  0  0
 18 38  1  0  0  0
 19 20  2  0  0  0
 19 39  1  0  0  0
 20 21  1  0  0  0
 20 40  1  0  0  0
 21 22  2  0  0  0
 21 41  1  0  0  0
 22 42  1  0  0  0
 23 24  1  0  0  0
 23 43  1  0  0  0
 23 44  1  0  0  0
 24 27  1  0  0  0
 24 45  1  0  0  0
 24 46  1  0  0  0
 25 47  1  0  0  0
 25 48  1  0  0  0
 25 49  1  0  0  0
 27 28  1  0  0  0
 27 29  1  0  0  0
 28 50  1  0  0  0
 28 51  1  0  0  0
 28 52  1  0  0  0
 29 53  1  0  0  0
 29 54  1  0  0  0
 29 55  1  0  0  0
M  END
> <s_m_entry_id>
95

> <s_m_entry_name>
dock_pv.94

> <s_m_Source_Path>
/home/csk/Desktop/cluster/DUD-E-result/kif11

> <s_m_Source_File>
dock_pv.maegz

> <i_m_Source_File_Index>
94

> <chembl_id>
CHEMBL429553

> <chembl_pref_name>
None

> <i_lp_mmshare_version>
53161

> <i_f3d_flags>
0

> <r_lp_tautomer_probability>
1

> <s_lp_Force_Field>
OPLS_2005

> <r_lp_Energy>
44.041898

> <b_lp_Chiralities_Consistent>
1

> <s_lp_Variant>
CHEMBL4581_lig242-1

> <s_i_glide_gridfile>
glide-grid_3cjo

> <i_i_glide_lignum>
366

> <i_i_glide_rotatable_bonds>
6

> <r_i_docking_score>
-8.63343062004839

> <r_i_glide_ligand_efficiency>
-0.2977045041396

> <r_i_glide_ligand_efficiency_sa>
-0.91464255612393

> <r_i_glide_ligand_efficiency_ln>
-1.97683668707992

> <r_i_glide_gscore>
-8.63343062004839

> <r_i_glide_lipo>
-5.17318926723623

> <r_i_glide_hbond>
0

> <r_i_glide_metal>
0

> <r_i_glide_rewards>
-1.37418056211369

> <r_i_glide_evdw>
-46.7981567382812

> <r_i_glide_ecoul>
-1.4059042930603

> <r_i_glide_erotb>
0.464732690174635

> <r_i_glide_esite>
0

> <r_i_glide_emodel>
-71.879529065721

> <r_i_glide_energy>
-48.2040610313416

> <r_i_glide_einternal>
0.819832563400269

> <i_i_glide_confnum>
19

> <i_i_glide_posenum>
15

> <r_i_glide_eff_state_penalty>
0

> <s_user_duplicate_titles>
CHEMBL4581_lig242,414280

> <s_m_subgroup_title>
dock_pv

> <s_m_subgroupid>
dock_pv

> <b_m_subgroup_collapsed>
1

$$$$
CHEMBL4581_lig361
                    3D
 Schrodinger Suite 2021-1.
 64 67  0  0  1  0            999 V2000
   21.5883   15.4007  106.1361 C   0  0  0  0  0  0
   21.9015   14.1089  106.5623 C   0  0  0  0  0  0
   21.2271   13.5620  107.6471 C   0  0  0  0  0  0
   20.5147   16.0825  106.7242 C   0  0  0  0  0  0
   19.8128   15.5365  107.8073 C   0  0  0  0  0  0
   20.1873   14.2578  108.2605 C   0  0  0  0  0  0
   19.5591   13.6482  109.3595 N   0  0  0  0  0  0
   18.4288   14.2950  110.0293 C   0  0  2  0  0  0
   18.7207   16.3219  108.5345 C   0  0  2  0  0  0
   18.5984   15.8448  110.0008 C   0  0  1  0  0  0
   17.4844   16.6608  110.6967 C   0  0  0  0  0  0
   16.1808   16.7577  109.8857 C   0  0  0  0  0  0
   16.4038   16.9247  108.3553 C   0  0  1  0  0  0
   17.4811   16.1283  107.8496 O   0  0  0  0  0  0
   18.2236   13.6875  111.4133 C   0  0  0  0  0  0
   17.2643   12.6861  111.5845 C   0  0  0  0  0  0
   17.1180   12.0709  112.8234 C   0  0  0  0  0  0
   17.9182   12.4614  113.8912 C   0  0  0  0  0  0
   18.8735   13.4592  113.7308 C   0  0  0  0  0  0
   19.0285   14.0732  112.4922 C   0  0  0  0  0  0
   15.1464   16.8069  107.4521 C   0  0  0  0  0  0
   13.9355   16.1593  108.0384 N   0  0  2  0  0  0
   19.5304   16.1038  110.5018 H   0  0  0  0  0  0
   18.9884   17.3804  108.5252 H   0  0  0  0  0  0
   22.4770   16.0785  105.1054 C   0  0  0  0  0  0
   21.7924   16.8970  104.3076 F   0  0  0  0  0  0
   23.3808   16.8072  105.7590 F   0  0  0  0  0  0
   23.1178   15.1618  104.3734 F   0  0  0  0  0  0
   13.8613   14.3900  108.2483 S   0  0  0  0  0  0
   13.6504   13.7232  106.4992 C   0  0  0  0  0  0
   15.0093   13.3898  105.8493 C   0  0  0  0  0  0
   15.1412   13.9144  108.7815 O   0  0  0  0  0  0
   12.6169   14.0812  108.9593 O   0  0  0  0  0  0
   12.6516   16.8528  107.7823 C   0  0  0  0  0  0
   14.8790   12.5111  104.6011 C   0  0  0  0  0  0
   14.3090   11.2244  104.9590 N   0  0  0  0  0  0
   22.7146   13.5526  106.1176 H   0  0  0  0  0  0
   21.5163   12.5838  108.0020 H   0  0  0  0  0  0
   20.2723   17.0837  106.3943 H   0  0  0  0  0  0
   19.6111   12.6485  109.5003 H   0  0  0  0  0  0
   17.5401   14.0435  109.4499 H   0  0  0  0  0  0
   17.8569   17.6726  110.8703 H   0  0  0  0  0  0
   17.2721   16.2578  111.6867 H   0  0  0  0  0  0
   15.5887   17.5938  110.2599 H   0  0  0  0  0  0
   15.5869   15.8751  110.1024 H   0  0  0  0  0  0
   16.7319   17.9565  108.2078 H   0  0  0  0  0  0
   16.6433   12.3708  110.7569 H   0  0  0  0  0  0
   16.3733   11.2988  112.9594 H   0  0  0  0  0  0
   17.8087   11.9628  114.8455 H   0  0  0  0  0  0
   19.5093   13.7367  114.5571 H   0  0  0  0  0  0
   19.7915   14.8270  112.3684 H   0  0  0  0  0  0
   15.3769   16.3378  106.4970 H   0  0  0  0  0  0
   14.8609   17.8242  107.1788 H   0  0  0  0  0  0
   13.0997   14.4679  105.9257 H   0  0  0  0  0  0
   13.0162   12.8438  106.5980 H   0  0  0  0  0  0
   15.6599   12.8760  106.5597 H   0  0  0  0  0  0
   15.5341   14.3076  105.5870 H   0  0  0  0  0  0
   12.7157   17.8937  108.1015 H   0  0  0  0  0  0
   12.4073   16.8004  106.7211 H   0  0  0  0  0  0
   11.8453   16.3731  108.3377 H   0  0  0  0  0  0
   15.8644   12.3619  104.1582 H   0  0  0  0  0  0
   14.2563   12.9938  103.8466 H   0  0  0  0  0  0
   14.8396   10.8232  105.7268 H   0  0  0  0  0  0
   13.3651   11.3325  105.3023 H   0  0  0  0  0  0
  1  4  1  0  0  0
  1 25  1  0  0  0
  1  2  2  0  0  0
  2  3  1  0  0  0
  2 37  1  0  0  0
  3  6  2  0  0  0
  3 38  1  0  0  0
  4  5  2  0  0  0
  4 39  1  0  0  0
  5  6  1  0  0  0
  5  9  1  0  0  0
  6  7  1  0  0  0
  7  8  1  0  0  0
  7 40  1  0  0  0
  8 10  1  0  0  0
  8 15  1  0  0  0
  8 41  1  0  0  0
  9 10  1  0  0  0
  9 24  1  0  0  0
  9 14  1  0  0  0
 10 23  1  0  0  0
 10 11  1  0  0  0
 11 12  1  0  0  0
 11 42  1  0  0  0
 11 43  1  0  0  0
 12 13  1  0  0  0
 12 44  1  0  0  0
 12 45  1  0  0  0
 13 21  1  0  0  0
 13 14  1  0  0  0
 13 46  1  0  0  0
 15 20  1  0  0  0
 15 16  2  0  0  0
 16 17  1  0  0  0
 16 47  1  0  0  0
 17 18  2  0  0  0
 17 48  1  0  0  0
 18 19  1  0  0  0
 18 49  1  0  0  0
 19 20  2  0  0  0
 19 50  1  0  0  0
 20 51  1  0  0  0
 21 22  1  0  0  0
 21 52  1  0  0  0
 21 53  1  0  0  0
 22 29  1  0  0  0
 22 34  1  0  0  0
 25 26  1  0  0  0
 25 27  1  0  0  0
 25 28  1  0  0  0
 29 30  1  0  0  0
 29 32  2  0  0  0
 29 33  2  0  0  0
 30 31  1  0  0  0
 30 54  1  0  0  0
 30 55  1  0  0  0
 31 35  1  0  0  0
 31 56  1  0  0  0
 31 57  1  0  0  0
 34 58  1  0  0  0
 34 59  1  0  0  0
 34 60  1  0  0  0
 35 36  1  0  0  0
 35 61  1  0  0  0
 35 62  1  0  0  0
 36 63  1  0  0  0
 36 64  1  0  0  0
M  END
> <s_m_entry_id>
96

> <s_m_entry_name>
dock_pv.95

> <s_m_Source_Path>
/home/csk/Desktop/cluster/DUD-E-result/kif11

> <s_m_Source_File>
dock_pv.maegz

> <i_m_Source_File_Index>
95

> <chembl_id>
CHEMBL1084678

> <chembl_pref_name>
None

> <i_lp_mmshare_version>
53161

> <i_f3d_flags>
0

> <r_lp_tautomer_probability>
1

> <s_lp_Force_Field>
OPLS_2005

> <r_lp_Energy>
21.656174

> <b_lp_Chiralities_Consistent>
1

> <s_lp_Variant>
CHEMBL4581_lig361-1

> <s_i_glide_gridfile>
glide-grid_3cjo

> <i_i_glide_lignum>
514

> <i_i_glide_rotatable_bonds>
8

> <r_i_docking_score>
-8.63304560897529

> <r_i_glide_ligand_efficiency>
-0.253913106146332

> <r_i_glide_ligand_efficiency_sa>
-0.822579894203775

> <r_i_glide_ligand_efficiency_ln>
-1.90728192374985

> <r_i_glide_gscore>
-8.63304560897529

> <r_i_glide_lipo>
-4.83756188195141

> <r_i_glide_hbond>
-0.351403652774364

> <r_i_glide_metal>
0

> <r_i_glide_rewards>
-1.18765695315028

> <r_i_glide_evdw>
-40.3656959533691

> <r_i_glide_ecoul>
-4.88350296020508

> <r_i_glide_erotb>
0.494387120599984

> <r_i_glide_esite>
0

> <r_i_glide_emodel>
-59.1658560100765

> <r_i_glide_energy>
-45.2491989135742

> <r_i_glide_einternal>
11.5554885864258

> <i_i_glide_confnum>
31

> <i_i_glide_posenum>
10

> <r_i_glide_eff_state_penalty>
0

> <s_user_duplicate_titles>
CHEMBL4581_lig361,615667

> <s_m_subgroup_title>
dock_pv

> <s_m_subgroupid>
dock_pv

> <b_m_subgroup_collapsed>
1

$$$$
CHEMBL4581_lig219
                    3D
 Schrodinger Suite 2021-1.
 57 60  0  0  1  0            999 V2000
   22.4391   15.0817  105.3825 C   0  0  0  0  0  0
   21.5107   16.1158  105.4288 C   0  0  0  0  0  0
   20.4392   16.0466  106.3167 C   0  0  0  0  0  0
   20.2945   14.9668  107.2055 C   0  0  0  0  0  0
   21.2889   13.9646  107.1996 C   0  0  0  0  0  0
   22.3190   14.0050  106.2594 C   0  0  0  0  0  0
   21.6334   17.1724  104.5948 F   0  0  0  0  0  0
   21.3222   12.9858  108.1372 F   0  0  0  0  0  0
   19.1884   14.9245  108.0761 N   0  0  0  0  0  0
   18.7229   16.1213  108.6597 N   0  0  0  0  0  0
   17.8862   15.8592  109.5806 C   0  0  0  0  0  0
   17.6007   14.3513  109.7663 C   0  0  1  0  0  0
   18.7596   13.8253  108.9196 C   0  0  0  0  0  0
   17.2403   16.9221  110.3545 C   0  0  0  0  0  0
   16.2251   16.7289  111.0205 O   0  0  0  0  0  0
   17.8792   18.3160  110.3557 C   0  0  0  0  0  0
   17.7919   13.8244  111.2237 C   0  0  0  0  0  0
   16.2235   13.8906  109.1557 C   0  0  0  0  0  0
   15.8092   14.4148  107.7539 C   0  0  0  0  0  0
   14.9956   15.7257  107.7526 C   0  0  0  0  0  0
   14.9150   16.3264  106.4211 N   0  0  0  0  0  0
   18.7309   14.4276  112.0820 C   0  0  0  0  0  0
   18.9644   13.9277  113.3557 C   0  0  0  0  0  0
   18.2729   12.8045  113.7941 C   0  0  0  0  0  0
   17.3562   12.1762  112.9601 C   0  0  0  0  0  0
   17.1194   12.6758  111.6815 C   0  0  0  0  0  0
   14.2711   17.6319  106.4478 C   0  0  0  0  0  0
   13.9238   17.9353  104.9886 C   0  0  0  0  0  0
   13.7709   16.5537  104.3478 C   0  0  0  0  0  0
   14.0910   15.5744  105.4806 C   0  0  0  0  0  0
   23.2525   15.1184  104.6742 H   0  0  0  0  0  0
   19.7135   16.8468  106.3121 H   0  0  0  0  0  0
   23.0488   13.2117  106.2401 H   0  0  0  0  0  0
   18.5545   12.9137  108.3570 H   0  0  0  0  0  0
   19.5957   13.5926  109.5830 H   0  0  0  0  0  0
   18.8019   18.3090  110.9359 H   0  0  0  0  0  0
   18.1151   18.6433  109.3417 H   0  0  0  0  0  0
   17.2040   19.0496  110.7961 H   0  0  0  0  0  0
   16.2495   12.8038  109.0581 H   0  0  0  0  0  0
   15.4234   14.0931  109.8696 H   0  0  0  0  0  0
   16.6387   14.4438  107.0467 H   0  0  0  0  0  0
   15.1426   13.6517  107.3495 H   0  0  0  0  0  0
   13.9883   15.5233  108.1248 H   0  0  0  0  0  0
   15.4070   16.4393  108.4588 H   0  0  0  0  0  0
   19.3086   15.2828  111.7645 H   0  0  0  0  0  0
   19.6917   14.4028  113.9975 H   0  0  0  0  0  0
   18.4526   12.4153  114.7851 H   0  0  0  0  0  0
   16.8239   11.2990  113.3042 H   0  0  0  0  0  0
   16.4124   12.1397  111.0694 H   0  0  0  0  0  0
   13.3962   17.6530  107.1026 H   0  0  0  0  0  0
   14.9664   18.3564  106.8776 H   0  0  0  0  0  0
   13.0080   18.5211  104.9176 H   0  0  0  0  0  0
   14.7154   18.5124  104.5089 H   0  0  0  0  0  0
   14.4573   16.4250  103.5094 H   0  0  0  0  0  0
   12.7587   16.3948  103.9726 H   0  0  0  0  0  0
   14.6526   14.7075  105.1265 H   0  0  0  0  0  0
   13.1908   15.1698  105.9508 H   0  0  0  0  0  0
  1  6  1  0  0  0
  1  2  2  0  0  0
  1 31  1  0  0  0
  2  7  1  0  0  0
  2  3  1  0  0  0
  3  4  2  0  0  0
  3 32  1  0  0  0
  4  9  1  0  0  0
  4  5  1  0  0  0
  5  8  1  0  0  0
  5  6  2  0  0  0
  6 33  1  0  0  0
  9 10  1  0  0  0
  9 13  1  0  0  0
 10 11  2  0  0  0
 11 12  1  0  0  0
 11 14  1  0  0  0
 12 17  1  0  0  0
 12 18  1  0  0  0
 12 13  1  0  0  0
 13 34  1  0  0  0
 13 35  1  0  0  0
 14 15  2  0  0  0
 14 16  1  0  0  0
 16 36  1  0  0  0
 16 37  1  0  0  0
 16 38  1  0  0  0
 17 22  2  0  0  0
 17 26  1  0  0  0
 18 19  1  0  0  0
 18 39  1  0  0  0
 18 40  1  0  0  0
 19 20  1  0  0  0
 19 41  1  0  0  0
 19 42  1  0  0  0
 20 21  1  0  0  0
 20 43  1  0  0  0
 20 44  1  0  0  0
 21 27  1  0  0  0
 21 30  1  0  0  0
 22 23  1  0  0  0
 22 45  1  0  0  0
 23 24  2  0  0  0
 23 46  1  0  0  0
 24 25  1  0  0  0
 24 47  1  0  0  0
 25 26  2  0  0  0
 25 48  1  0  0  0
 26 49  1  0  0  0
 27 28  1  0  0  0
 27 50  1  0  0  0
 27 51  1  0  0  0
 28 29  1  0  0  0
 28 52  1  0  0  0
 28 53  1  0  0  0
 29 30  1  0  0  0
 29 54  1  0  0  0
 29 55  1  0  0  0
 30 56  1  0  0  0
 30 57  1  0  0  0
M  END
> <s_m_entry_id>
97

> <s_m_entry_name>
dock_pv.96

> <s_m_Source_Path>
/home/csk/Desktop/cluster/DUD-E-result/kif11

> <s_m_Source_File>
dock_pv.maegz

> <i_m_Source_File_Index>
96

> <chembl_id>
CHEMBL246422

> <chembl_pref_name>
None

> <i_lp_mmshare_version>
53161

> <i_f3d_flags>
0

> <r_lp_tautomer_probability>
1

> <s_lp_Force_Field>
OPLS_2005

> <r_lp_Energy>
55.86892

> <b_lp_Chiralities_Consistent>
1

> <s_lp_Variant>
CHEMBL4581_lig219-1

> <s_i_glide_gridfile>
glide-grid_3cjo

> <i_i_glide_lignum>
332

> <i_i_glide_rotatable_bonds>
7

> <r_i_docking_score>
-8.62912771011776

> <r_i_glide_ligand_efficiency>
-0.287637590337258

> <r_i_glide_ligand_efficiency_sa>
-0.893756869616888

> <r_i_glide_ligand_efficiency_ln>
-1.96063183761572

> <r_i_glide_gscore>
-8.62912771011776

> <r_i_glide_lipo>
-4.55809076132933

> <r_i_glide_hbond>
0

> <r_i_glide_metal>
0

> <r_i_glide_rewards>
-2.28053770828351

> <r_i_glide_evdw>
-43.5487022399902

> <r_i_glide_ecoul>
-1.3006192445755

> <r_i_glide_erotb>
0.582028758180926

> <r_i_glide_esite>
0

> <r_i_glide_emodel>
-62.8354506474162

> <r_i_glide_energy>
-44.8493214845657

> <r_i_glide_einternal>
9.12176895141602

> <i_i_glide_confnum>
68

> <i_i_glide_posenum>
47

> <r_i_glide_eff_state_penalty>
0

> <s_user_duplicate_titles>
CHEMBL4581_lig219,415182

> <s_m_subgroup_title>
dock_pv

> <s_m_subgroupid>
dock_pv

> <b_m_subgroup_collapsed>
1

$$$$
CHEMBL4581_lig228
                    3D
 Schrodinger Suite 2021-1.
 64 67  0  0  1  0            999 V2000
   22.3411   15.1996  105.4282 C   0  0  0  0  0  0
   21.5387   16.3374  105.3604 C   0  0  0  0  0  0
   20.4349   16.4661  106.2085 C   0  0  0  0  0  0
   20.1386   15.4688  107.1526 C   0  0  0  0  0  0
   20.9920   14.3618  107.2465 C   0  0  0  0  0  0
   22.0654   14.2112  106.3675 C   0  0  0  0  0  0
   21.9141   17.5618  104.2070 Cl  0  0  0  0  0  0
   20.8175   13.4382  108.2221 F   0  0  0  0  0  0
   19.0447   15.5659  108.0229 N   0  0  0  0  0  0
   18.7180   16.7633  108.6738 N   0  0  0  0  0  0
   17.6725   16.5782  109.3752 C   0  0  0  0  0  0
   17.0803   15.1553  109.2892 C   0  0  1  0  0  0
   17.8957   14.6963  108.0781 C   0  0  0  0  0  0
   17.1727   17.5988  110.2963 C   0  0  0  0  0  0
   15.9998   17.6641  110.6642 O   0  0  0  0  0  0
   18.2004   18.5357  110.9244 C   0  0  0  0  0  0
   17.3868   14.2645  110.5375 C   0  0  0  0  0  0
   15.5415   15.2005  108.9594 C   0  0  0  0  0  0
   14.9216   14.0385  108.1285 C   0  0  0  0  0  0
   14.1555   14.4596  106.8530 C   0  0  0  0  0  0
   15.0173   15.1619  105.8976 N   0  0  0  0  0  0
   18.2153   14.6925  111.5980 C   0  0  0  0  0  0
   18.4697   13.8749  112.6949 C   0  0  0  0  0  0
   17.9162   12.6034  112.7445 C   0  0  0  0  0  0
   17.1184   12.1485  111.7001 C   0  0  0  0  0  0
   16.8595   12.9670  110.6067 C   0  0  0  0  0  0
   14.2261   15.9846  104.9776 C   0  0  0  0  0  0
   15.1336   16.8388  104.0598 C   0  0  0  0  0  0
   16.1411   15.9767  103.4114 N   0  0  0  0  0  0
   16.8884   15.0521  104.2904 C   0  0  0  0  0  0
   15.8751   14.2446  105.1348 C   0  0  0  0  0  0
   16.3326   15.9467  102.0661 C   0  0  0  0  0  0
   15.6380   16.9781  101.1736 C   0  0  0  0  0  0
   17.1172   15.1625  101.5266 O   0  0  0  0  0  0
   23.1819   15.0883  104.7583 H   0  0  0  0  0  0
   19.8140   17.3460  106.1405 H   0  0  0  0  0  0
   22.7021   13.3412  106.4394 H   0  0  0  0  0  0
   17.3438   14.9115  107.1667 H   0  0  0  0  0  0
   18.1582   13.6381  108.0463 H   0  0  0  0  0  0
   18.9923   17.9712  111.4159 H   0  0  0  0  0  0
   18.6514   19.1606  110.1610 H   0  0  0  0  0  0
   17.7226   19.1616  111.6780 H   0  0  0  0  0  0
   14.9840   15.2986  109.8908 H   0  0  0  0  0  0
   15.3173   16.1231  108.4190 H   0  0  0  0  0  0
   15.6300   13.2465  107.8891 H   0  0  0  0  0  0
   14.1903   13.5619  108.7754 H   0  0  0  0  0  0
   13.6846   13.5967  106.3793 H   0  0  0  0  0  0
   13.3401   15.1178  107.1648 H   0  0  0  0  0  0
   18.6874   15.6610  111.5992 H   0  0  0  0  0  0
   19.1002   14.2252  113.5007 H   0  0  0  0  0  0
   18.1144   11.9650  113.5939 H   0  0  0  0  0  0
   16.6871   11.1624  111.7343 H   0  0  0  0  0  0
   16.2491   12.5651  109.8172 H   0  0  0  0  0  0
   13.6106   15.3226  104.3673 H   0  0  0  0  0  0
   13.5581   16.6407  105.5387 H   0  0  0  0  0  0
   14.5027   17.3881  103.3602 H   0  0  0  0  0  0
   15.6540   17.5656  104.6793 H   0  0  0  0  0  0
   17.5476   15.6152  104.9518 H   0  0  0  0  0  0
   17.5156   14.3605  103.7310 H   0  0  0  0  0  0
   16.4063   13.5496  105.7839 H   0  0  0  0  0  0
   15.2456   13.6435  104.4753 H   0  0  0  0  0  0
   14.5700   16.7742  101.1118 H   0  0  0  0  0  0
   15.7858   17.9877  101.5580 H   0  0  0  0  0  0
   16.0453   16.9466  100.1618 H   0  0  0  0  0  0
  1  6  1  0  0  0
  1  2  2  0  0  0
  1 35  1  0  0  0
  2  3  1  0  0  0
  2  7  1  0  0  0
  3  4  2  0  0  0
  3 36  1  0  0  0
  4  9  1  0  0  0
  4  5  1  0  0  0
  5  8  1  0  0  0
  5  6  2  0  0  0
  6 37  1  0  0  0
  9 10  1  0  0  0
  9 13  1  0  0  0
 10 11  2  0  0  0
 11 12  1  0  0  0
 11 14  1  0  0  0
 12 17  1  0  0  0
 12 18  1  0  0  0
 12 13  1  0  0  0
 13 38  1  0  0  0
 13 39  1  0  0  0
 14 15  2  0  0  0
 14 16  1  0  0  0
 16 40  1  0  0  0
 16 41  1  0  0  0
 16 42  1  0  0  0
 17 22  2  0  0  0
 17 26  1  0  0  0
 18 19  1  0  0  0
 18 43  1  0  0  0
 18 44  1  0  0  0
 19 20  1  0  0  0
 19 45  1  0  0  0
 19 46  1  0  0  0
 20 21  1  0  0  0
 20 47  1  0  0  0
 20 48  1  0  0  0
 21 27  1  0  0  0
 21 31  1  0  0  0
 22 23  1  0  0  0
 22 49  1  0  0  0
 23 24  2  0  0  0
 23 50  1  0  0  0
 24 25  1  0  0  0
 24 51  1  0  0  0
 25 26  2  0  0  0
 25 52  1  0  0  0
 26 53  1  0  0  0
 27 28  1  0  0  0
 27 54  1  0  0  0
 27 55  1  0  0  0
 28 29  1  0  0  0
 28 56  1  0  0  0
 28 57  1  0  0  0
 29 30  1  0  0  0
 29 32  1  0  0  0
 30 31  1  0  0  0
 30 58  1  0  0  0
 30 59  1  0  0  0
 31 60  1  0  0  0
 31 61  1  0  0  0
 32 33  1  0  0  0
 32 34  2  0  0  0
 33 62  1  0  0  0
 33 63  1  0  0  0
 33 64  1  0  0  0
M  END
> <s_m_entry_id>
98

> <s_m_entry_name>
dock_pv.97

> <s_m_Source_Path>
/home/csk/Desktop/cluster/DUD-E-result/kif11

> <s_m_Source_File>
dock_pv.maegz

> <i_m_Source_File_Index>
97

> <chembl_id>
CHEMBL247414

> <chembl_pref_name>
None

> <i_lp_mmshare_version>
53161

> <i_f3d_flags>
0

> <r_lp_tautomer_probability>
1

> <s_lp_Force_Field>
OPLS_2005

> <r_lp_Energy>
68.173735

> <b_lp_Chiralities_Consistent>
1

> <s_lp_Variant>
CHEMBL4581_lig228-1

> <s_i_glide_gridfile>
glide-grid_3cjo

> <i_i_glide_lignum>
350

> <i_i_glide_rotatable_bonds>
8

> <r_i_docking_score>
-8.62852095474409

> <r_i_glide_ligand_efficiency>
-0.253780028080709

> <r_i_glide_ligand_efficiency_sa>
-0.822148772932397

> <r_i_glide_ligand_efficiency_ln>
-1.90628230071793

> <r_i_glide_gscore>
-8.62852095474409

> <r_i_glide_lipo>
-4.41107894443322

> <r_i_glide_hbond>
-0.32

> <r_i_glide_metal>
0

> <r_i_glide_rewards>
-1.36034698921985

> <r_i_glide_evdw>
-49.151123046875

> <r_i_glide_ecoul>
-3.96875429153442

> <r_i_glide_erotb>
0.518120798653775

> <r_i_glide_esite>
-0.0023465236708902

> <r_i_glide_emodel>
-74.980556391605

> <r_i_glide_energy>
-53.1198773384094

> <r_i_glide_einternal>
10.7369832992554

> <i_i_glide_confnum>
11

> <i_i_glide_posenum>
169

> <r_i_glide_eff_state_penalty>
0

> <s_user_duplicate_titles>
CHEMBL4581_lig228,415197

> <s_m_subgroup_title>
dock_pv

> <s_m_subgroupid>
dock_pv

> <b_m_subgroup_collapsed>
1

$$$$
CHEMBL4581_lig790
                    3D
 Schrodinger Suite 2021-1.
 53 55  0  0  1  0            999 V2000
   16.0091   13.1545  105.7283 C   0  0  2  0  0  0
   14.5097   13.4220  105.9716 C   0  0  0  0  0  0
   13.9402   14.4625  105.6422 O   0  0  0  0  0  0
   16.9177   13.9447  106.6884 C   0  0  0  0  0  0
   16.3180   13.4739  104.3228 N   0  0  0  0  0  0
   16.8655   13.3290  108.4073 S   0  0  0  0  0  0
   17.9121   14.4822  109.4311 C   0  0  0  0  0  0
   17.2061   15.8634  109.6115 C   0  0  0  0  0  0
   15.8049   15.9603  109.6595 C   0  0  0  0  0  0
   15.1780   17.1843  109.8745 C   0  0  0  0  0  0
   15.9420   18.3361  110.0565 C   0  0  0  0  0  0
   17.3322   18.2644  110.0104 C   0  0  0  0  0  0
   17.9556   17.0394  109.7907 C   0  0  0  0  0  0
   18.0870   13.9218  110.8817 C   0  0  0  0  0  0
   18.9770   14.5700  111.7537 C   0  0  0  0  0  0
   19.1181   14.1565  113.0745 C   0  0  0  0  0  0
   18.3854   13.0706  113.5422 C   0  0  0  0  0  0
   17.5181   12.3929  112.6945 C   0  0  0  0  0  0
   17.3700   12.8143  111.3752 C   0  0  0  0  0  0
   19.2588   14.5348  108.6443 C   0  0  0  0  0  0
   19.4575   15.4621  107.6062 C   0  0  0  0  0  0
   20.5520   15.3613  106.7536 C   0  0  0  0  0  0
   21.4980   14.3620  106.9586 C   0  0  0  0  0  0
   21.3831   13.5160  108.0591 C   0  0  0  0  0  0
   20.2693   13.5927  108.8916 C   0  0  0  0  0  0
   13.9182   12.3620  106.5897 O   0  0  0  0  0  0
   22.6547   14.2012  105.9890 C   0  0  0  0  0  0
   15.2667   19.6711  110.3062 C   0  0  0  0  0  0
   16.2089   12.0918  105.8837 H   0  0  0  0  0  0
   16.6875   15.0119  106.6675 H   0  0  0  0  0  0
   17.9378   13.8205  106.3293 H   0  0  0  0  0  0
   17.3084   13.2540  104.1589 H   0  0  0  0  0  0
   15.7912   12.8834  103.6963 H   0  0  0  0  0  0
   15.1810   15.0863  109.5518 H   0  0  0  0  0  0
   14.0998   17.2295  109.9127 H   0  0  0  0  0  0
   17.9283   19.1540  110.1595 H   0  0  0  0  0  0
   19.0350   17.0106  109.7874 H   0  0  0  0  0  0
   19.5540   15.4146  111.4103 H   0  0  0  0  0  0
   19.7994   14.6741  113.7339 H   0  0  0  0  0  0
   18.4944   12.7489  114.5685 H   0  0  0  0  0  0
   16.9389   11.5623  113.0632 H   0  0  0  0  0  0
   16.6661   12.2641  110.7695 H   0  0  0  0  0  0
   18.7106   16.2086  107.3813 H   0  0  0  0  0  0
   20.6474   16.0426  105.9212 H   0  0  0  0  0  0
   22.1327   12.7612  108.2346 H   0  0  0  0  0  0
   20.1642   12.8619  109.6805 H   0  0  0  0  0  0
   14.5434   11.6757  106.8592 H   0  0  0  0  0  0
   23.0521   13.1875  106.0198 H   0  0  0  0  0  0
   22.3192   14.3676  104.9640 H   0  0  0  0  0  0
   23.4536   14.9110  106.2052 H   0  0  0  0  0  0
   14.2090   19.6512  110.0438 H   0  0  0  0  0  0
   15.3673   19.9564  111.3541 H   0  0  0  0  0  0
   15.7322   20.4532  109.7051 H   0  0  0  0  0  0
  1  4  1  0  0  0
  1  5  1  0  0  0
  1  2  1  0  0  0
  1 29  1  0  0  0
  2  3  2  0  0  0
  2 26  1  0  0  0
  4  6  1  0  0  0
  4 30  1  0  0  0
  4 31  1  0  0  0
  5 32  1  0  0  0
  5 33  1  0  0  0
  6  7  1  0  0  0
  7  8  1  0  0  0
  7 14  1  0  0  0
  7 20  1  0  0  0
  8  9  2  0  0  0
  8 13  1  0  0  0
  9 10  1  0  0  0
  9 34  1  0  0  0
 10 11  2  0  0  0
 10 35  1  0  0  0
 11 12  1  0  0  0
 11 28  1  0  0  0
 12 13  2  0  0  0
 12 36  1  0  0  0
 13 37  1  0  0  0
 14 15  2  0  0  0
 14 19  1  0  0  0
 15 16  1  0  0  0
 15 38  1  0  0  0
 16 17  2  0  0  0
 16 39  1  0  0  0
 17 18  1  0  0  0
 17 40  1  0  0  0
 18 19  2  0  0  0
 18 41  1  0  0  0
 19 42  1  0  0  0
 20 21  2  0  0  0
 20 25  1  0  0  0
 21 22  1  0  0  0
 21 43  1  0  0  0
 22 23  2  0  0  0
 22 44  1  0  0  0
 23 24  1  0  0  0
 23 27  1  0  0  0
 24 25  2  0  0  0
 24 45  1  0  0  0
 25 46  1  0  0  0
 26 47  1  0  0  0
 27 48  1  0  0  0
 27 49  1  0  0  0
 27 50  1  0  0  0
 28 51  1  0  0  0
 28 52  1  0  0  0
 28 53  1  0  0  0
M  END
> <s_m_entry_id>
99

> <s_m_entry_name>
dock_pv.98

> <s_m_Source_Path>
/home/csk/Desktop/cluster/DUD-E-result/kif11

> <s_m_Source_File>
dock_pv.maegz

> <i_m_Source_File_Index>
98

> <chembl_id>
CHEMBL409295

> <chembl_pref_name>
None

> <i_lp_mmshare_version>
53161

> <i_f3d_flags>
0

> <r_lp_tautomer_probability>
1

> <s_lp_Force_Field>
OPLS_2005

> <r_lp_Energy>
27.983416

> <b_lp_Chiralities_Consistent>
1

> <s_lp_Variant>
CHEMBL4581_lig790-1

> <s_i_glide_gridfile>
glide-grid_3cjo

> <i_i_glide_lignum>
1173

> <i_i_glide_rotatable_bonds>
8

> <r_i_docking_score>
-8.6249191982679

> <r_i_glide_ligand_efficiency>
-0.308032828509568

> <r_i_glide_ligand_efficiency_sa>
-0.935369088988874

> <r_i_glide_ligand_efficiency_ln>
-1.9908845895918

> <r_i_glide_gscore>
-8.6249191982679

> <r_i_glide_lipo>
-4.94560618927806

> <r_i_glide_hbond>
-0.152

> <r_i_glide_metal>
0

> <r_i_glide_rewards>
-0.856256666666665

> <r_i_glide_evdw>
-43.9331665039062

> <r_i_glide_ecoul>
-9.04806232452393

> <r_i_glide_erotb>
0.891159471452689

> <r_i_glide_esite>
-0.00834813990196328

> <r_i_glide_emodel>
-79.8425577808929

> <r_i_glide_energy>
-52.9812288284302

> <r_i_glide_einternal>
2.40250873565674

> <i_i_glide_confnum>
148

> <i_i_glide_posenum>
88

> <r_i_glide_eff_state_penalty>
0

> <s_user_duplicate_titles>
CHEMBL4581_lig790

> <s_m_subgroup_title>
dock_pv

> <s_m_subgroupid>
dock_pv

> <b_m_subgroup_collapsed>
1

$$$$
CHEMBL4581_lig847
                    3D
 Schrodinger Suite 2021-1.
 48 50  0  0  1  0            999 V2000
   15.7530   13.6482  105.7497 C   0  0  0  0  0  0
   16.2994   12.3619  105.3570 N   0  0  0  0  0  0
   16.6703   14.3337  106.7698 C   0  0  0  0  0  0
   16.8064   13.4897  108.3824 S   0  0  0  0  0  0
   17.9066   14.5453  109.4477 C   0  0  0  0  0  0
   19.2484   14.5645  108.6512 C   0  0  0  0  0  0
   17.2499   15.9395  109.6949 C   0  0  0  0  0  0
   18.0720   13.9236  110.8723 C   0  0  0  0  0  0
   20.2107   13.5615  108.8480 C   0  0  0  0  0  0
   21.3241   13.4667  108.0142 C   0  0  0  0  0  0
   21.4978   14.3618  106.9593 C   0  0  0  0  0  0
   20.6199   15.4452  106.8106 C   0  0  0  0  0  0
   19.5029   15.5262  107.6548 C   0  0  0  0  0  0
   18.9912   14.5064  111.7621 C   0  0  0  0  0  0
   19.1180   14.0465  113.0693 C   0  0  0  0  0  0
   18.3418   12.9801  113.5058 C   0  0  0  0  0  0
   17.4458   12.3668  112.6388 C   0  0  0  0  0  0
   17.3095   12.8341  111.3342 C   0  0  0  0  0  0
   18.0445   17.0798  109.8924 C   0  0  0  0  0  0
   17.4761   18.3158  110.1751 C   0  0  0  0  0  0
   16.0926   18.4350  110.2581 C   0  0  0  0  0  0
   15.2780   17.3215  110.0680 C   0  0  0  0  0  0
   15.8547   16.0828  109.7952 C   0  0  0  0  0  0
   20.8426   16.5048  105.7591 C   0  0  0  0  0  0
   19.9179   17.1608  105.2870 O   0  0  0  0  0  0
   22.0989   16.7053  105.3581 N   0  0  0  0  0  0
   14.7512   13.5132  106.1602 H   0  0  0  0  0  0
   15.6553   14.2707  104.8594 H   0  0  0  0  0  0
   17.2568   12.4654  105.0176 H   0  0  0  0  0  0
   16.3340   11.7552  106.1716 H   0  0  0  0  0  0
   16.3208   15.3512  106.9425 H   0  0  0  0  0  0
   17.6554   14.4175  106.3160 H   0  0  0  0  0  0
   20.0668   12.8006  109.6009 H   0  0  0  0  0  0
   22.0291   12.6620  108.1530 H   0  0  0  0  0  0
   22.3513   14.2312  106.3091 H   0  0  0  0  0  0
   18.7855   16.3179  107.4880 H   0  0  0  0  0  0
   19.6035   15.3381  111.4465 H   0  0  0  0  0  0
   19.8206   14.5176  113.7423 H   0  0  0  0  0  0
   18.4388   12.6230  114.5204 H   0  0  0  0  0  0
   16.8294   11.5504  112.9835 H   0  0  0  0  0  0
   16.5784   12.3398  110.7124 H   0  0  0  0  0  0
   19.1178   17.0135  109.8579 H   0  0  0  0  0  0
   18.1185   19.1624  110.3459 H   0  0  0  0  0  0
   15.6489   19.3936  110.4839 H   0  0  0  0  0  0
   14.2036   17.4162  110.1434 H   0  0  0  0  0  0
   15.1978   15.2311  109.6822 H   0  0  0  0  0  0
   22.2778   17.3911  104.6421 H   0  0  0  0  0  0
   22.8569   16.1889  105.7723 H   0  0  0  0  0  0
  1  3  1  0  0  0
  1  2  1  0  0  0
  1 27  1  0  0  0
  1 28  1  0  0  0
  2 29  1  0  0  0
  2 30  1  0  0  0
  3  4  1  0  0  0
  3 31  1  0  0  0
  3 32  1  0  0  0
  4  5  1  0  0  0
  5  7  1  0  0  0
  5  8  1  0  0  0
  5  6  1  0  0  0
  6 13  1  0  0  0
  6  9  2  0  0  0
  7 19  2  0  0  0
  7 23  1  0  0  0
  8 14  2  0  0  0
  8 18  1  0  0  0
  9 10  1  0  0  0
  9 33  1  0  0  0
 10 11  2  0  0  0
 10 34  1  0  0  0
 11 12  1  0  0  0
 11 35  1  0  0  0
 12 24  1  0  0  0
 12 13  2  0  0  0
 13 36  1  0  0  0
 14 15  1  0  0  0
 14 37  1  0  0  0
 15 16  2  0  0  0
 15 38  1  0  0  0
 16 17  1  0  0  0
 16 39  1  0  0  0
 17 18  2  0  0  0
 17 40  1  0  0  0
 18 41  1  0  0  0
 19 20  1  0  0  0
 19 42  1  0  0  0
 20 21  2  0  0  0
 20 43  1  0  0  0
 21 22  1  0  0  0
 21 44  1  0  0  0
 22 23  2  0  0  0
 22 45  1  0  0  0
 23 46  1  0  0  0
 24 25  2  0  0  0
 24 26  1  0  0  0
 26 47  1  0  0  0
 26 48  1  0  0  0
M  END
> <s_m_entry_id>
100

> <s_m_entry_name>
dock_pv.99

> <s_m_Source_Path>
/home/csk/Desktop/cluster/DUD-E-result/kif11

> <s_m_Source_File>
dock_pv.maegz

> <i_m_Source_File_Index>
99

> <chembl_id>
CHEMBL2024125

> <chembl_pref_name>
None

> <i_lp_mmshare_version>
53161

> <i_f3d_flags>
0

> <r_lp_tautomer_probability>
1

> <s_lp_Force_Field>
OPLS_2005

> <r_lp_Energy>
25.203464

> <b_lp_Chiralities_Consistent>
1

> <s_lp_Variant>
CHEMBL4581_lig847-1

> <s_i_glide_gridfile>
glide-grid_3cjo

> <i_i_glide_lignum>
1234

> <i_i_glide_rotatable_bonds>
7

> <r_i_docking_score>
-8.61387584461063

> <r_i_glide_ligand_efficiency>
-0.331302917100409

> <r_i_glide_ligand_efficiency_sa>
-0.981483588295931

> <r_i_glide_ligand_efficiency_ln>
-2.02294047767481

> <r_i_glide_gscore>
-8.61387584461063

> <r_i_glide_lipo>
-4.60732097126595

> <r_i_glide_hbond>
-0.438557944315951

> <r_i_glide_metal>
0

> <r_i_glide_rewards>
-1.49285164269791

> <r_i_glide_evdw>
-46.5016670227051

> <r_i_glide_ecoul>
-3.20509076118469

> <r_i_glide_erotb>
0.730701678982134

> <r_i_glide_esite>
0

> <r_i_glide_emodel>
-72.1676642626186

> <r_i_glide_energy>
-49.7067577838898

> <r_i_glide_einternal>
6.33707571029663

> <i_i_glide_confnum>
17

> <i_i_glide_posenum>
348

> <r_i_glide_eff_state_penalty>
0

> <s_user_duplicate_titles>
CHEMBL4581_lig847

> <s_m_subgroup_title>
dock_pv

> <s_m_subgroupid>
dock_pv

> <b_m_subgroup_collapsed>
1

$$$$
CHEMBL4581_lig709
                    3D
 Schrodinger Suite 2021-1.
 51 54  0  0  1  0            999 V2000
   18.5826   17.1354  110.8897 C   0  0  0  0  0  0
   19.4690   15.9643  111.3541 C   0  0  0  0  0  0
   17.6629   14.5163  109.4588 C   0  0  0  0  0  0
   17.1563   16.9131  110.3656 C   0  0  0  0  0  0
   16.7218   15.7537  109.6545 C   0  0  0  0  0  0
   15.3858   15.7534  109.1955 C   0  0  0  0  0  0
   14.5220   16.8221  109.4009 C   0  0  0  0  0  0
   14.9622   17.9400  110.0881 C   0  0  0  0  0  0
   16.2659   17.9794  110.5587 C   0  0  0  0  0  0
   17.9226   13.9759  110.9068 C   0  0  0  0  0  0
   18.7908   14.6734  111.7861 C   0  0  0  0  0  0
   19.0119   14.1971  113.0840 C   0  0  0  0  0  0
   18.3790   13.0527  113.5514 C   0  0  0  0  0  0
   17.5187   12.3624  112.7129 C   0  0  0  0  0  0
   17.3030   12.8137  111.4146 C   0  0  0  0  0  0
   18.9510   14.7903  108.6356 C   0  0  0  0  0  0
   19.9899   13.8452  108.6430 C   0  0  0  0  0  0
   21.0619   13.9619  107.7631 C   0  0  0  0  0  0
   21.1139   15.0413  106.8867 C   0  0  0  0  0  0
   20.1337   16.0275  106.9155 C   0  0  0  0  0  0
   19.0592   15.9068  107.7903 C   0  0  0  0  0  0
   16.8567   13.1888  108.4187 S   0  0  0  0  0  0
   16.9258   13.8198  106.6997 C   0  0  0  0  0  0
   16.0077   13.0703  105.7176 C   0  0  1  0  0  0
   14.5178   13.3787  105.9633 C   0  0  0  0  0  0
   16.3180   13.4177  104.3206 N   0  0  0  0  0  0
   13.9139   12.3621  106.6332 O   0  0  0  0  0  0
   13.9774   14.4315  105.6230 O   0  0  0  0  0  0
   18.5247   17.8299  111.7326 H   0  0  0  0  0  0
   19.1177   17.6989  110.1250 H   0  0  0  0  0  0
   20.1016   16.3337  112.1603 H   0  0  0  0  0  0
   20.2026   15.7213  110.5962 H   0  0  0  0  0  0
   14.9620   14.9142  108.6689 H   0  0  0  0  0  0
   13.5082   16.7791  109.0302 H   0  0  0  0  0  0
   14.2988   18.7764  110.2526 H   0  0  0  0  0  0
   16.5896   18.8654  111.0865 H   0  0  0  0  0  0
   19.6737   14.7319  113.7495 H   0  0  0  0  0  0
   18.5475   12.7083  114.5621 H   0  0  0  0  0  0
   16.9965   11.4901  113.0729 H   0  0  0  0  0  0
   16.6078   12.2374  110.8244 H   0  0  0  0  0  0
   19.9270   12.9748  109.2810 H   0  0  0  0  0  0
   21.8344   13.2071  107.7437 H   0  0  0  0  0  0
   21.9367   15.1254  106.1911 H   0  0  0  0  0  0
   20.1950   16.8758  106.2496 H   0  0  0  0  0  0
   18.2847   16.6588  107.7598 H   0  0  0  0  0  0
   16.7048   14.8879  106.6937 H   0  0  0  0  0  0
   17.9557   13.7125  106.3585 H   0  0  0  0  0  0
   16.1736   11.9985  105.8414 H   0  0  0  0  0  0
   16.2852   14.4200  104.2065 H   0  0  0  0  0  0
   17.2999   13.1621  104.1586 H   0  0  0  0  0  0
   14.5287   11.6619  106.8915 H   0  0  0  0  0  0
  1  4  1  0  0  0
  1  2  1  0  0  0
  1 29  1  0  0  0
  1 30  1  0  0  0
  2 11  1  0  0  0
  2 31  1  0  0  0
  2 32  1  0  0  0
  3 10  1  0  0  0
  3  5  1  0  0  0
  3 16  1  0  0  0
  3 22  1  0  0  0
  4  5  2  0  0  0
  4  9  1  0  0  0
  5  6  1  0  0  0
  6  7  2  0  0  0
  6 33  1  0  0  0
  7  8  1  0  0  0
  7 34  1  0  0  0
  8  9  2  0  0  0
  8 35  1  0  0  0
  9 36  1  0  0  0
 10 11  2  0  0  0
 10 15  1  0  0  0
 11 12  1  0  0  0
 12 13  2  0  0  0
 12 37  1  0  0  0
 13 14  1  0  0  0
 13 38  1  0  0  0
 14 15  2  0  0  0
 14 39  1  0  0  0
 15 40  1  0  0  0
 16 17  2  0  0  0
 16 21  1  0  0  0
 17 18  1  0  0  0
 17 41  1  0  0  0
 18 19  2  0  0  0
 18 42  1  0  0  0
 19 20  1  0  0  0
 19 43  1  0  0  0
 20 21  2  0  0  0
 20 44  1  0  0  0
 21 45  1  0  0  0
 22 23  1  0  0  0
 23 24  1  0  0  0
 23 46  1  0  0  0
 23 47  1  0  0  0
 24 25  1  0  0  0
 24 26  1  0  0  0
 24 48  1  0  0  0
 25 27  1  0  0  0
 25 28  2  0  0  0
 26 49  1  0  0  0
 26 50  1  0  0  0
 27 51  1  0  0  0
M  END
> <s_m_entry_id>
101

> <s_m_entry_name>
dock_pv.100

> <s_m_Source_Path>
/home/csk/Desktop/cluster/DUD-E-result/kif11

> <s_m_Source_File>
dock_pv.maegz

> <i_m_Source_File_Index>
100

> <chembl_id>
CHEMBL3633364

> <chembl_pref_name>
None

> <i_lp_mmshare_version>
53161

> <i_f3d_flags>
0

> <r_lp_tautomer_probability>
1

> <s_lp_Force_Field>
OPLS_2005

> <r_lp_Energy>
37.601679

> <b_lp_Chiralities_Consistent>
1

> <s_lp_Variant>
CHEMBL4581_lig709-1

> <s_i_glide_gridfile>
glide-grid_3cjo

> <i_i_glide_lignum>
1052

> <i_i_glide_rotatable_bonds>
6

> <r_i_docking_score>
-8.61361671480407

> <r_i_glide_ligand_efficiency>
-0.307629168385859

> <r_i_glide_ligand_efficiency_sa>
-0.934143339110197

> <r_i_glide_ligand_efficiency_ln>
-1.98827564455301

> <r_i_glide_gscore>
-8.61361671480407

> <r_i_glide_lipo>
-4.6662663595441

> <r_i_glide_hbond>
-0.152

> <r_i_glide_metal>
0

> <r_i_glide_rewards>
-0.86709462787003

> <r_i_glide_evdw>
-40.4615898132324

> <r_i_glide_ecoul>
-10.2592287063599

> <r_i_glide_erotb>
0.642471794945295

> <r_i_glide_esite>
-0.00876372571963505

> <r_i_glide_emodel>
-76.7323083251575

> <r_i_glide_energy>
-50.7208185195923

> <r_i_glide_einternal>
2.1601722240448

> <i_i_glide_confnum>
18

> <i_i_glide_posenum>
181

> <r_i_glide_eff_state_penalty>
0

> <s_user_duplicate_titles>
CHEMBL4581_lig709

> <s_m_subgroup_title>
dock_pv

> <s_m_subgroupid>
dock_pv

> <b_m_subgroup_collapsed>
1

$$$$
CHEMBL4581_lig89
                    3D
 Schrodinger Suite 2021-1.
 53 56  0  0  1  0            999 V2000
   22.5362   14.0408  105.9696 C   0  0  0  0  0  0
   22.7170   15.1642  105.1697 C   0  0  0  0  0  0
   21.8956   16.2739  105.3462 C   0  0  0  0  0  0
   20.8939   16.2547  106.3139 C   0  0  0  0  0  0
   20.7149   15.1330  107.1419 C   0  0  0  0  0  0
   21.5591   14.0183  106.9590 C   0  0  0  0  0  0
   21.5179   12.9308  107.7634 F   0  0  0  0  0  0
   22.0495   17.3608  104.5600 F   0  0  0  0  0  0
   19.6709   15.1611  108.1829 C   0  0  0  0  0  0
   19.5781   14.3749  109.1762 N   0  0  0  0  0  0
   18.5100   14.6978  109.9557 N   0  0  0  0  0  0
   17.6113   15.6640  109.2739 C   0  0  1  0  0  0
   18.5784   16.1992  108.2034 C   0  0  0  0  0  0
   16.4042   14.8858  108.6564 C   0  0  0  0  0  0
   15.1117   14.9779  109.1960 C   0  0  0  0  0  0
   14.0283   14.3622  108.5729 C   0  0  0  0  0  0
   14.2249   13.6207  107.4132 C   0  0  0  0  0  0
   15.4992   13.4850  106.8780 C   0  0  0  0  0  0
   16.5777   14.1051  107.4983 C   0  0  0  0  0  0
   18.6466   14.5657  111.3003 C   0  0  0  0  0  0
   17.7637   13.7329  111.8837 N   0  0  0  0  0  0
   19.5165   15.1539  111.9494 O   0  0  0  0  0  0
   17.1733   16.8653  110.1971 C   0  0  0  0  0  0
   16.3381   17.9741  109.5058 C   0  0  0  0  0  0
   15.6083   18.9364  110.4622 C   0  0  0  0  0  0
   14.6953   18.2404  111.3564 N   0  0  0  0  0  0
   17.6638   13.3689  113.3203 C   0  0  0  0  0  0
   17.2939   11.9622  112.8256 C   0  0  0  0  0  0
   17.2003   12.4592  111.3722 C   0  0  0  0  0  0
   23.1360   13.1622  105.8190 H   0  0  0  0  0  0
   23.4742   15.1623  104.4004 H   0  0  0  0  0  0
   20.2805   17.1383  106.4188 H   0  0  0  0  0  0
   18.0942   16.3106  107.2323 H   0  0  0  0  0  0
   19.0137   17.1635  108.4684 H   0  0  0  0  0  0
   14.9171   15.5550  110.0865 H   0  0  0  0  0  0
   13.0366   14.4607  108.9890 H   0  0  0  0  0  0
   13.3873   13.1357  106.9336 H   0  0  0  0  0  0
   15.6562   12.8915  105.9893 H   0  0  0  0  0  0
   17.5498   13.9740  107.0481 H   0  0  0  0  0  0
   16.6247   16.4759  111.0545 H   0  0  0  0  0  0
   18.0549   17.3372  110.6371 H   0  0  0  0  0  0
   16.9903   18.5587  108.8558 H   0  0  0  0  0  0
   15.5954   17.5412  108.8374 H   0  0  0  0  0  0
   16.3179   19.5166  111.0519 H   0  0  0  0  0  0
   15.0307   19.6482  109.8731 H   0  0  0  0  0  0
   15.1323   18.2007  112.2750 H   0  0  0  0  0  0
   13.8704   18.8116  111.4879 H   0  0  0  0  0  0
   18.6527   13.3573  113.7823 H   0  0  0  0  0  0
   16.8530   13.9096  113.8069 H   0  0  0  0  0  0
   16.3172   11.6535  113.2016 H   0  0  0  0  0  0
   18.1315   11.2774  112.9570 H   0  0  0  0  0  0
   16.1836   12.6047  111.0044 H   0  0  0  0  0  0
   17.9347   11.9618  110.7402 H   0  0  0  0  0  0
  1  6  1  0  0  0
  1  2  2  0  0  0
  1 30  1  0  0  0
  2  3  1  0  0  0
  2 31  1  0  0  0
  3  4  2  0  0  0
  3  8  1  0  0  0
  4  5  1  0  0  0
  4 32  1  0  0  0
  5  9  1  0  0  0
  5  6  2  0  0  0
  6  7  1  0  0  0
  9 10  2  0  0  0
  9 13  1  0  0  0
 10 11  1  0  0  0
 11 20  1  0  0  0
 11 12  1  0  0  0
 12 14  1  0  0  0
 12 23  1  0  0  0
 12 13  1  0  0  0
 13 33  1  0  0  0
 13 34  1  0  0  0
 14 15  2  0  0  0
 14 19  1  0  0  0
 15 16  1  0  0  0
 15 35  1  0  0  0
 16 17  2  0  0  0
 16 36  1  0  0  0
 17 18  1  0  0  0
 17 37  1  0  0  0
 18 19  2  0  0  0
 18 38  1  0  0  0
 19 39  1  0  0  0
 20 21  1  0  0  0
 20 22  2  0  0  0
 21 27  1  0  0  0
 21 29  1  0  0  0
 23 24  1  0  0  0
 23 40  1  0  0  0
 23 41  1  0  0  0
 24 25  1  0  0  0
 24 42  1  0  0  0
 24 43  1  0  0  0
 25 26  1  0  0  0
 25 44  1  0  0  0
 25 45  1  0  0  0
 26 46  1  0  0  0
 26 47  1  0  0  0
 27 28  1  0  0  0
 27 48  1  0  0  0
 27 49  1  0  0  0
 28 29  1  0  0  0
 28 50  1  0  0  0
 28 51  1  0  0  0
 29 52  1  0  0  0
 29 53  1  0  0  0
M  END
> <s_m_entry_id>
102

> <s_m_entry_name>
dock_pv.101

> <s_m_Source_Path>
/home/csk/Desktop/cluster/DUD-E-result/kif11

> <s_m_Source_File>
dock_pv.maegz

> <i_m_Source_File_Index>
101

> <chembl_id>
CHEMBL210264

> <chembl_pref_name>
None

> <i_lp_mmshare_version>
53161

> <i_f3d_flags>
0

> <r_lp_tautomer_probability>
1

> <s_lp_Force_Field>
OPLS_2005

> <r_lp_Energy>
54.719432

> <b_lp_Chiralities_Consistent>
1

> <s_lp_Variant>
CHEMBL4581_lig89-2

> <s_i_glide_gridfile>
glide-grid_3cjo

> <i_i_glide_lignum>
143

> <i_i_glide_rotatable_bonds>
7

> <r_i_docking_score>
-8.60283871358692

> <r_i_glide_ligand_efficiency>
-0.296649610813342

> <r_i_glide_ligand_efficiency_sa>
-0.911401589612003

> <r_i_glide_ligand_efficiency_ln>
-1.96983191624405

> <r_i_glide_gscore>
-8.60283871358692

> <r_i_glide_lipo>
-3.74246938791684

> <r_i_glide_hbond>
-0.32

> <r_i_glide_metal>
0

> <r_i_glide_rewards>
-2.49239341363636

> <r_i_glide_evdw>
-42.2837753295898

> <r_i_glide_ecoul>
-4.49296188354492

> <r_i_glide_erotb>
0.740157136977513

> <r_i_glide_esite>
0

> <r_i_glide_emodel>
-68.5054654550133

> <r_i_glide_energy>
-46.7767372131348

> <r_i_glide_einternal>
5.56988716125488

> <i_i_glide_confnum>
47

> <i_i_glide_posenum>
133

> <r_i_glide_eff_state_penalty>
0

> <s_user_duplicate_titles>
CHEMBL4581_lig89,347914

> <s_m_subgroup_title>
dock_pv

> <s_m_subgroupid>
dock_pv

> <b_m_subgroup_collapsed>
1

$$$$
CHEMBL4581_lig825
                    3D
 Schrodinger Suite 2021-1.
 48 50  0  0  1  0            999 V2000
   15.5845   13.6628  105.8422 C   0  0  0  0  0  0
   16.3178   12.5050  105.3594 N   0  0  0  0  0  0
   16.3918   14.4178  106.9077 C   0  0  0  0  0  0
   16.6310   13.5366  108.4916 S   0  0  0  0  0  0
   17.7703   14.5706  109.5410 C   0  0  0  0  0  0
   19.0844   14.6057  108.7094 C   0  0  0  0  0  0
   17.1459   15.9655  109.8406 C   0  0  0  0  0  0
   17.9794   13.9253  110.9479 C   0  0  0  0  0  0
   20.0714   13.6194  108.8734 C   0  0  0  0  0  0
   21.1661   13.5609  108.0113 C   0  0  0  0  0  0
   21.2926   14.4651  106.9590 C   0  0  0  0  0  0
   20.3791   15.5121  106.8469 C   0  0  0  0  0  0
   19.2952   15.5816  107.7187 C   0  0  0  0  0  0
   18.9475   14.4745  111.8075 C   0  0  0  0  0  0
   19.1182   13.9919  113.1026 C   0  0  0  0  0  0
   18.3325   12.9366  113.5547 C   0  0  0  0  0  0
   17.3871   12.3607  112.7143 C   0  0  0  0  0  0
   17.2129   12.8452  111.4227 C   0  0  0  0  0  0
   15.7569   16.1219  109.9858 C   0  0  0  0  0  0
   15.2084   17.3589  110.3191 C   0  0  0  0  0  0
   16.0440   18.4513  110.5234 C   0  0  0  0  0  0
   17.4211   18.3209  110.3840 C   0  0  0  0  0  0
   17.9649   17.0899  110.0429 C   0  0  0  0  0  0
   20.5460   16.7615  105.6115 S   0  0  0  0  0  0
   22.1951   16.6320  104.8702 C   0  0  0  0  0  0
   14.6193   13.3474  106.2432 H   0  0  0  0  0  0
   15.3813   14.3198  104.9962 H   0  0  0  0  0  0
   17.2530   12.7603  105.0348 H   0  0  0  0  0  0
   16.4460   11.8534  106.1250 H   0  0  0  0  0  0
   15.9018   15.3676  107.1265 H   0  0  0  0  0  0
   17.3499   14.6624  106.4578 H   0  0  0  0  0  0
   19.9624   12.8498  109.6249 H   0  0  0  0  0  0
   21.8940   12.7711  108.1263 H   0  0  0  0  0  0
   22.1287   14.3707  106.2827 H   0  0  0  0  0  0
   18.5752   16.3743  107.5698 H   0  0  0  0  0  0
   19.5627   15.3000  111.4800 H   0  0  0  0  0  0
   19.8575   14.4343  113.7540 H   0  0  0  0  0  0
   18.4611   12.5636  114.5589 H   0  0  0  0  0  0
   16.7676   11.5521  113.0743 H   0  0  0  0  0  0
   16.4488   12.3744  110.8235 H   0  0  0  0  0  0
   15.0911   15.2826  109.8633 H   0  0  0  0  0  0
   14.1401   17.4660  110.4284 H   0  0  0  0  0  0
   15.6224   19.4071  110.7969 H   0  0  0  0  0  0
   18.0736   19.1622  110.5543 H   0  0  0  0  0  0
   19.0407   17.0124  109.9702 H   0  0  0  0  0  0
   22.3259   17.4354  104.1454 H   0  0  0  0  0  0
   22.9683   16.7255  105.6336 H   0  0  0  0  0  0
   22.3183   15.6804  104.3539 H   0  0  0  0  0  0
  1  3  1  0  0  0
  1  2  1  0  0  0
  1 26  1  0  0  0
  1 27  1  0  0  0
  2 28  1  0  0  0
  2 29  1  0  0  0
  3  4  1  0  0  0
  3 30  1  0  0  0
  3 31  1  0  0  0
  4  5  1  0  0  0
  5  7  1  0  0  0
  5  8  1  0  0  0
  5  6  1  0  0  0
  6 13  1  0  0  0
  6  9  2  0  0  0
  7 19  2  0  0  0
  7 23  1  0  0  0
  8 14  2  0  0  0
  8 18  1  0  0  0
  9 10  1  0  0  0
  9 32  1  0  0  0
 10 11  2  0  0  0
 10 33  1  0  0  0
 11 12  1  0  0  0
 11 34  1  0  0  0
 12 13  2  0  0  0
 12 24  1  0  0  0
 13 35  1  0  0  0
 14 15  1  0  0  0
 14 36  1  0  0  0
 15 16  2  0  0  0
 15 37  1  0  0  0
 16 17  1  0  0  0
 16 38  1  0  0  0
 17 18  2  0  0  0
 17 39  1  0  0  0
 18 40  1  0  0  0
 19 20  1  0  0  0
 19 41  1  0  0  0
 20 21  2  0  0  0
 20 42  1  0  0  0
 21 22  1  0  0  0
 21 43  1  0  0  0
 22 23  2  0  0  0
 22 44  1  0  0  0
 23 45  1  0  0  0
 24 25  1  0  0  0
 25 46  1  0  0  0
 25 47  1  0  0  0
 25 48  1  0  0  0
M  END
> <s_m_entry_id>
103

> <s_m_entry_name>
dock_pv.102

> <s_m_Source_Path>
/home/csk/Desktop/cluster/DUD-E-result/kif11

> <s_m_Source_File>
dock_pv.maegz

> <i_m_Source_File_Index>
102

> <chembl_id>
CHEMBL2022987

> <chembl_pref_name>
None

> <i_lp_mmshare_version>
53161

> <i_f3d_flags>
0

> <r_lp_tautomer_probability>
1

> <s_lp_Force_Field>
OPLS_2005

> <r_lp_Energy>
25.693034

> <b_lp_Chiralities_Consistent>
1

> <s_lp_Variant>
CHEMBL4581_lig825-1

> <s_i_glide_gridfile>
glide-grid_3cjo

> <i_i_glide_lignum>
1212

> <i_i_glide_rotatable_bonds>
7

> <r_i_docking_score>
-8.60232838387781

> <r_i_glide_ligand_efficiency>
-0.344093135355112

> <r_i_glide_ligand_efficiency_sa>
-1.00613443029609

> <r_i_glide_ligand_efficiency_ln>
-2.03900961795825

> <r_i_glide_gscore>
-8.60232838387781

> <r_i_glide_lipo>
-5.21478692186925

> <r_i_glide_hbond>
-0.341286781883232

> <r_i_glide_metal>
0

> <r_i_glide_rewards>
-0.983325393939393

> <r_i_glide_evdw>
-46.3648643493652

> <r_i_glide_ecoul>
-3.09653925895691

> <r_i_glide_erotb>
0.719794820125866

> <r_i_glide_esite>
0

> <r_i_glide_emodel>
-73.9503666465983

> <r_i_glide_energy>
-49.4614036083221

> <r_i_glide_einternal>
2.66871643066406

> <i_i_glide_confnum>
29

> <i_i_glide_posenum>
253

> <r_i_glide_eff_state_penalty>
0

> <s_user_duplicate_titles>
CHEMBL4581_lig825

> <s_m_subgroup_title>
dock_pv

> <s_m_subgroupid>
dock_pv

> <b_m_subgroup_collapsed>
1

$$$$
CHEMBL4581_lig213
                    3D
 Schrodinger Suite 2021-1.
 58 61  0  0  1  0            999 V2000
   22.7086   15.3528  105.1910 C   0  0  0  0  0  0
   21.8038   16.4081  105.2557 C   0  0  0  0  0  0
   20.7486   16.3636  106.1619 C   0  0  0  0  0  0
   20.5839   15.2671  107.0245 C   0  0  0  0  0  0
   21.5178   14.2113  106.9587 C   0  0  0  0  0  0
   22.5621   14.2615  106.0389 C   0  0  0  0  0  0
   21.9285   17.4642  104.4222 F   0  0  0  0  0  0
   21.4991   13.1626  107.8143 F   0  0  0  0  0  0
   19.4818   15.3019  108.0051 C   0  0  0  0  0  0
   18.9659   16.3551  108.4902 N   0  0  0  0  0  0
   17.9896   16.0626  109.3869 N   0  0  0  0  0  0
   17.7287   14.5984  109.4707 C   0  0  1  0  0  0
   18.7978   14.0682  108.4993 C   0  0  0  0  0  0
   17.3726   17.0403  110.1159 C   0  0  0  0  0  0
   16.5074   16.7933  110.9591 O   0  0  0  0  0  0
   17.9779   14.0298  110.9062 C   0  0  0  0  0  0
   16.2655   14.3951  108.9140 C   0  0  0  0  0  0
   18.9073   14.6508  111.7611 C   0  0  0  0  0  0
   19.1181   14.1859  113.0545 C   0  0  0  0  0  0
   18.4160   13.0761  113.5102 C   0  0  0  0  0  0
   17.5181   12.4240  112.6735 C   0  0  0  0  0  0
   17.3035   12.8958  111.3813 C   0  0  0  0  0  0
   15.8467   13.0429  108.2815 C   0  0  0  0  0  0
   14.6858   13.1621  107.2617 C   0  0  0  0  0  0
   15.0244   13.9575  106.0747 N   0  0  0  0  0  0
   17.7451   18.5120  109.8917 C   0  0  0  0  0  0
   13.8118   14.2921  105.3140 C   0  0  0  0  0  0
   14.1426   15.0838  104.0296 C   0  0  0  0  0  0
   15.0751   14.3603  103.2327 O   0  0  0  0  0  0
   16.2949   14.1174  103.9266 C   0  0  0  0  0  0
   16.0369   13.3121  105.2203 C   0  0  0  0  0  0
   23.5177   15.3660  104.4795 H   0  0  0  0  0  0
   20.0629   17.1996  106.1894 H   0  0  0  0  0  0
   23.2662   13.4488  105.9911 H   0  0  0  0  0  0
   18.3977   13.5581  107.6304 H   0  0  0  0  0  0
   19.4919   13.3973  109.0048 H   0  0  0  0  0  0
   15.5415   14.6532  109.6884 H   0  0  0  0  0  0
   16.1013   15.1477  108.1395 H   0  0  0  0  0  0
   19.4764   15.5076  111.4316 H   0  0  0  0  0  0
   19.8269   14.6830  113.7006 H   0  0  0  0  0  0
   18.5764   12.7125  114.5157 H   0  0  0  0  0  0
   16.9734   11.5621  113.0290 H   0  0  0  0  0  0
   16.6046   12.3537  110.7741 H   0  0  0  0  0  0
   16.6654   12.4886  107.8319 H   0  0  0  0  0  0
   15.5181   12.3707  109.0652 H   0  0  0  0  0  0
   14.3182   12.1795  106.9586 H   0  0  0  0  0  0
   13.8544   13.6497  107.7734 H   0  0  0  0  0  0
   18.7108   18.7468  110.3434 H   0  0  0  0  0  0
   17.7896   18.7470  108.8280 H   0  0  0  0  0  0
   16.9966   19.1620  110.3444 H   0  0  0  0  0  0
   13.2745   13.3777  105.0548 H   0  0  0  0  0  0
   13.1354   14.8736  105.9415 H   0  0  0  0  0  0
   14.5321   16.0749  104.2721 H   0  0  0  0  0  0
   13.2353   15.2435  103.4469 H   0  0  0  0  0  0
   16.8019   15.0578  104.1521 H   0  0  0  0  0  0
   16.9548   13.5624  103.2613 H   0  0  0  0  0  0
   16.9745   13.1927  105.7619 H   0  0  0  0  0  0
   15.7104   12.3028  104.9646 H   0  0  0  0  0  0
  1  6  1  0  0  0
  1  2  2  0  0  0
  1 32  1  0  0  0
  2  3  1  0  0  0
  2  7  1  0  0  0
  3  4  2  0  0  0
  3 33  1  0  0  0
  4  9  1  0  0  0
  4  5  1  0  0  0
  5  8  1  0  0  0
  5  6  2  0  0  0
  6 34  1  0  0  0
  9 10  2  0  0  0
  9 13  1  0  0  0
 10 11  1  0  0  0
 11 12  1  0  0  0
 11 14  1  0  0  0
 12 16  1  0  0  0
 12 17  1  0  0  0
 12 13  1  0  0  0
 13 35  1  0  0  0
 13 36  1  0  0  0
 14 15  2  0  0  0
 14 26  1  0  0  0
 16 18  2  0  0  0
 16 22  1  0  0  0
 17 23  1  0  0  0
 17 37  1  0  0  0
 17 38  1  0  0  0
 18 19  1  0  0  0
 18 39  1  0  0  0
 19 20  2  0  0  0
 19 40  1  0  0  0
 20 21  1  0  0  0
 20 41  1  0  0  0
 21 22  2  0  0  0
 21 42  1  0  0  0
 22 43  1  0  0  0
 23 24  1  0  0  0
 23 44  1  0  0  0
 23 45  1  0  0  0
 24 25  1  0  0  0
 24 46  1  0  0  0
 24 47  1  0  0  0
 25 27  1  0  0  0
 25 31  1  0  0  0
 26 48  1  0  0  0
 26 49  1  0  0  0
 26 50  1  0  0  0
 27 28  1  0  0  0
 27 51  1  0  0  0
 27 52  1  0  0  0
 28 29  1  0  0  0
 28 53  1  0  0  0
 28 54  1  0  0  0
 29 30  1  0  0  0
 30 31  1  0  0  0
 30 55  1  0  0  0
 30 56  1  0  0  0
 31 57  1  0  0  0
 31 58  1  0  0  0
M  END
> <s_m_entry_id>
104

> <s_m_entry_name>
dock_pv.103

> <s_m_Source_Path>
/home/csk/Desktop/cluster/DUD-E-result/kif11

> <s_m_Source_File>
dock_pv.maegz

> <i_m_Source_File_Index>
103

> <chembl_id>
CHEMBL239415

> <chembl_pref_name>
None

> <i_lp_mmshare_version>
53161

> <i_f3d_flags>
0

> <r_lp_tautomer_probability>
1

> <s_lp_Force_Field>
OPLS_2005

> <r_lp_Energy>
49.756799

> <b_lp_Chiralities_Consistent>
1

> <s_lp_Variant>
CHEMBL4581_lig213-1

> <s_i_glide_gridfile>
glide-grid_3cjo

> <i_i_glide_lignum>
321

> <i_i_glide_rotatable_bonds>
7

> <r_i_docking_score>
-8.57802682944198

> <r_i_glide_ligand_efficiency>
-0.276710542885225

> <r_i_glide_ligand_efficiency_sa>
-0.869253144737364

> <r_i_glide_ligand_efficiency_ln>
-1.9346079349902

> <r_i_glide_gscore>
-8.57802682944198

> <r_i_glide_lipo>
-4.23266990193538

> <r_i_glide_hbond>
0

> <r_i_glide_metal>
0

> <r_i_glide_rewards>
-2.27242287588644

> <r_i_glide_evdw>
-45.1618461608887

> <r_i_glide_ecoul>
-2.38729405403137

> <r_i_glide_erotb>
0.543252364528981

> <r_i_glide_esite>
0

> <r_i_glide_emodel>
-65.3815217097565

> <r_i_glide_energy>
-47.54914021492

> <r_i_glide_einternal>
9.35546684265137

> <i_i_glide_confnum>
62

> <i_i_glide_posenum>
394

> <r_i_glide_eff_state_penalty>
0

> <s_user_duplicate_titles>
CHEMBL4581_lig213,402089

> <s_m_subgroup_title>
dock_pv

> <s_m_subgroupid>
dock_pv

> <b_m_subgroup_collapsed>
1

$$$$
CHEMBL4581_lig221
                    3D
 Schrodinger Suite 2021-1.
 58 61  0  0  1  0            999 V2000
   22.4234   15.4708  105.3364 C   0  0  0  0  0  0
   21.4551   16.4667  105.4084 C   0  0  0  0  0  0
   20.3858   16.3305  106.2903 C   0  0  0  0  0  0
   20.2709   15.2083  107.1293 C   0  0  0  0  0  0
   21.2748   14.2219  107.0538 C   0  0  0  0  0  0
   22.3307   14.3502  106.1538 C   0  0  0  0  0  0
   21.5435   17.5559  104.6135 F   0  0  0  0  0  0
   21.3032   13.1633  107.8973 F   0  0  0  0  0  0
   19.1933   15.1151  108.0311 N   0  0  0  0  0  0
   18.7181   16.2855  108.6540 N   0  0  0  0  0  0
   17.8680   15.9832  109.5529 C   0  0  0  0  0  0
   17.6188   14.4651  109.7103 C   0  0  1  0  0  0
   18.7858   13.9847  108.8462 C   0  0  0  0  0  0
   17.1411   17.0121  110.3012 C   0  0  0  0  0  0
   16.2287   16.7474  111.0823 O   0  0  0  0  0  0
   17.5269   18.4783  110.0864 C   0  0  0  0  0  0
   17.8298   13.9140  111.1579 C   0  0  0  0  0  0
   16.2246   14.0118  109.1212 C   0  0  0  0  0  0
   15.6529   14.7407  107.8746 C   0  0  0  0  0  0
   16.2703   14.3312  106.5185 C   0  0  0  0  0  0
   16.2094   15.4164  105.5353 N   0  0  0  0  0  0
   18.7401   14.5259  112.0400 C   0  0  0  0  0  0
   18.9623   14.0148  113.3146 C   0  0  0  0  0  0
   18.2793   12.8784  113.7316 C   0  0  0  0  0  0
   17.3949   12.2391  112.8703 C   0  0  0  0  0  0
   17.1859   12.7409  111.5885 C   0  0  0  0  0  0
   17.0756   15.1219  104.3878 C   0  0  0  0  0  0
   17.0035   16.2372  103.3234 C   0  0  0  0  0  0
   15.6560   16.4677  102.9301 O   0  0  0  0  0  0
   14.8263   16.8410  104.0274 C   0  0  0  0  0  0
   14.8377   15.7416  105.1136 C   0  0  0  0  0  0
   23.2397   15.5573  104.6369 H   0  0  0  0  0  0
   19.6430   17.1142  106.3250 H   0  0  0  0  0  0
   23.0894   13.5832  106.1032 H   0  0  0  0  0  0
   18.6039   13.0794  108.2673 H   0  0  0  0  0  0
   19.6326   13.7563  109.4975 H   0  0  0  0  0  0
   18.5814   18.6352  110.3165 H   0  0  0  0  0  0
   17.3514   18.7655  109.0494 H   0  0  0  0  0  0
   16.9369   19.1364  110.7264 H   0  0  0  0  0  0
   16.2467   12.9426  108.9018 H   0  0  0  0  0  0
   15.4777   14.1223  109.9102 H   0  0  0  0  0  0
   14.6018   14.4532  107.8210 H   0  0  0  0  0  0
   15.6093   15.8236  107.9983 H   0  0  0  0  0  0
   17.2995   14.0077  106.6547 H   0  0  0  0  0  0
   15.7492   13.4556  106.1250 H   0  0  0  0  0  0
   19.2972   15.4010  111.7416 H   0  0  0  0  0  0
   19.6663   14.4979  113.9756 H   0  0  0  0  0  0
   18.4454   12.4841  114.7244 H   0  0  0  0  0  0
   16.8686   11.3496  113.1916 H   0  0  0  0  0  0
   16.5081   12.1975  110.9489 H   0  0  0  0  0  0
   18.1021   15.0050  104.7361 H   0  0  0  0  0  0
   16.7933   14.1647  103.9471 H   0  0  0  0  0  0
   17.5638   15.9414  102.4382 H   0  0  0  0  0  0
   17.4629   17.1553  103.6924 H   0  0  0  0  0  0
   13.8104   16.9884  103.6598 H   0  0  0  0  0  0
   15.1448   17.8008  104.4402 H   0  0  0  0  0  0
   14.3483   14.8418  104.7349 H   0  0  0  0  0  0
   14.2493   16.0666  105.9727 H   0  0  0  0  0  0
  1  6  1  0  0  0
  1  2  2  0  0  0
  1 32  1  0  0  0
  2  3  1  0  0  0
  2  7  1  0  0  0
  3  4  2  0  0  0
  3 33  1  0  0  0
  4  9  1  0  0  0
  4  5  1  0  0  0
  5  8  1  0  0  0
  5  6  2  0  0  0
  6 34  1  0  0  0
  9 10  1  0  0  0
  9 13  1  0  0  0
 10 11  2  0  0  0
 11 12  1  0  0  0
 11 14  1  0  0  0
 12 17  1  0  0  0
 12 18  1  0  0  0
 12 13  1  0  0  0
 13 35  1  0  0  0
 13 36  1  0  0  0
 14 15  2  0  0  0
 14 16  1  0  0  0
 16 37  1  0  0  0
 16 38  1  0  0  0
 16 39  1  0  0  0
 17 22  2  0  0  0
 17 26  1  0  0  0
 18 19  1  0  0  0
 18 40  1  0  0  0
 18 41  1  0  0  0
 19 20  1  0  0  0
 19 42  1  0  0  0
 19 43  1  0  0  0
 20 21  1  0  0  0
 20 44  1  0  0  0
 20 45  1  0  0  0
 21 27  1  0  0  0
 21 31  1  0  0  0
 22 23  1  0  0  0
 22 46  1  0  0  0
 23 24  2  0  0  0
 23 47  1  0  0  0
 24 25  1  0  0  0
 24 48  1  0  0  0
 25 26  2  0  0  0
 25 49  1  0  0  0
 26 50  1  0  0  0
 27 28  1  0  0  0
 27 51  1  0  0  0
 27 52  1  0  0  0
 28 29  1  0  0  0
 28 53  1  0  0  0
 28 54  1  0  0  0
 29 30  1  0  0  0
 30 31  1  0  0  0
 30 55  1  0  0  0
 30 56  1  0  0  0
 31 57  1  0  0  0
 31 58  1  0  0  0
M  END
> <s_m_entry_id>
105

> <s_m_entry_name>
dock_pv.104

> <s_m_Source_Path>
/home/csk/Desktop/cluster/DUD-E-result/kif11

> <s_m_Source_File>
dock_pv.maegz

> <i_m_Source_File_Index>
104

> <chembl_id>
CHEMBL246001

> <chembl_pref_name>
None

> <i_lp_mmshare_version>
53161

> <i_f3d_flags>
0

> <r_lp_tautomer_probability>
1

> <s_lp_Force_Field>
OPLS_2005

> <r_lp_Energy>
53.126051

> <b_lp_Chiralities_Consistent>
1

> <s_lp_Variant>
CHEMBL4581_lig221-1

> <s_i_glide_gridfile>
glide-grid_3cjo

> <i_i_glide_lignum>
336

> <i_i_glide_rotatable_bonds>
7

> <r_i_docking_score>
-8.56134094564231

> <r_i_glide_ligand_efficiency>
-0.276172288569107

> <r_i_glide_ligand_efficiency_sa>
-0.867562283044579

> <r_i_glide_ligand_efficiency_ln>
-1.93084475683245

> <r_i_glide_gscore>
-8.56134094564231

> <r_i_glide_lipo>
-4.47941716083133

> <r_i_glide_hbond>
0

> <r_i_glide_metal>
0

> <r_i_glide_rewards>
-2.10879635188131

> <r_i_glide_evdw>
-46.1612205505371

> <r_i_glide_ecoul>
-1.38879179954529

> <r_i_glide_erotb>
0.543252364528981

> <r_i_glide_esite>
0

> <r_i_glide_emodel>
-66.5649054068996

> <r_i_glide_energy>
-47.5500123500824

> <r_i_glide_einternal>
7.11085987091064

> <i_i_glide_confnum>
4

> <i_i_glide_posenum>
205

> <r_i_glide_eff_state_penalty>
0

> <s_user_duplicate_titles>
CHEMBL4581_lig221,415178

> <s_m_subgroup_title>
dock_pv

> <s_m_subgroupid>
dock_pv

> <b_m_subgroup_collapsed>
1

$$$$
CHEMBL4581_lig459
                    3D
 Schrodinger Suite 2021-1.
 50 52  0  0  1  0            999 V2000
   16.0016   13.2096  105.7346 C   0  0  2  0  0  0
   14.4928   13.4408  105.9645 C   0  0  0  0  0  0
   13.9046   14.4723  105.6402 O   0  0  0  0  0  0
   16.8804   13.9972  106.7242 C   0  0  0  0  0  0
   16.3180   13.5593  104.3365 N   0  0  0  0  0  0
   16.7814   13.3906  108.4476 S   0  0  0  0  0  0
   17.8414   14.5217  109.4856 C   0  0  0  0  0  0
   17.1412   15.8990  109.6988 C   0  0  0  0  0  0
   17.9030   17.0619  109.9081 C   0  0  0  0  0  0
   17.2924   18.2863  110.1518 C   0  0  0  0  0  0
   15.9051   18.3704  110.1823 C   0  0  0  0  0  0
   15.1265   17.2359  109.9767 C   0  0  0  0  0  0
   15.7407   16.0087  109.7413 C   0  0  0  0  0  0
   18.0413   13.9349  110.9212 C   0  0  0  0  0  0
   18.9477   14.5659  111.7905 C   0  0  0  0  0  0
   19.1180   14.1236  113.0990 C   0  0  0  0  0  0
   18.3997   13.0246  113.5559 C   0  0  0  0  0  0
   17.5179   12.3644  112.7092 C   0  0  0  0  0  0
   17.3370   12.8153  111.4043 C   0  0  0  0  0  0
   19.1774   14.5909  108.6873 C   0  0  0  0  0  0
   19.3677   15.5447  107.6703 C   0  0  0  0  0  0
   20.4472   15.4537  106.7983 C   0  0  0  0  0  0
   21.3790   14.4320  106.9588 C   0  0  0  0  0  0
   21.2724   13.5605  108.0391 C   0  0  0  0  0  0
   20.1781   13.6306  108.8950 C   0  0  0  0  0  0
   13.9181   12.3620  106.5643 O   0  0  0  0  0  0
   22.5133   14.2720  105.9620 C   0  0  0  0  0  0
   16.2166   12.1479  105.8710 H   0  0  0  0  0  0
   16.6489   15.0630  106.6947 H   0  0  0  0  0  0
   17.9098   13.8769  106.3902 H   0  0  0  0  0  0
   17.3019   13.3282  104.1592 H   0  0  0  0  0  0
   15.7781   12.9983  103.6952 H   0  0  0  0  0  0
   18.9817   17.0251  109.9051 H   0  0  0  0  0  0
   17.8988   19.1620  110.3254 H   0  0  0  0  0  0
   15.4311   19.3218  110.3753 H   0  0  0  0  0  0
   14.0490   17.3058  110.0076 H   0  0  0  0  0  0
   15.1092   15.1433  109.6105 H   0  0  0  0  0  0
   19.5191   15.4190  111.4576 H   0  0  0  0  0  0
   19.8099   14.6303  113.7561 H   0  0  0  0  0  0
   18.5279   12.6808  114.5727 H   0  0  0  0  0  0
   16.9459   11.5240  113.0717 H   0  0  0  0  0  0
   16.6223   12.2796  110.7990 H   0  0  0  0  0  0
   18.6252   16.3039  107.4758 H   0  0  0  0  0  0
   20.5349   16.1549  105.9813 H   0  0  0  0  0  0
   22.0058   12.7795  108.1743 H   0  0  0  0  0  0
   20.0747   12.8797  109.6649 H   0  0  0  0  0  0
   14.5542   11.6845  106.8309 H   0  0  0  0  0  0
   23.4244   14.7498  106.3219 H   0  0  0  0  0  0
   22.7189   13.2144  105.7897 H   0  0  0  0  0  0
   22.2510   14.6950  104.9914 H   0  0  0  0  0  0
  1  4  1  0  0  0
  1  5  1  0  0  0
  1  2  1  0  0  0
  1 28  1  0  0  0
  2  3  2  0  0  0
  2 26  1  0  0  0
  4  6  1  0  0  0
  4 29  1  0  0  0
  4 30  1  0  0  0
  5 31  1  0  0  0
  5 32  1  0  0  0
  6  7  1  0  0  0
  7  8  1  0  0  0
  7 14  1  0  0  0
  7 20  1  0  0  0
  8  9  2  0  0  0
  8 13  1  0  0  0
  9 10  1  0  0  0
  9 33  1  0  0  0
 10 11  2  0  0  0
 10 34  1  0  0  0
 11 12  1  0  0  0
 11 35  1  0  0  0
 12 13  2  0  0  0
 12 36  1  0  0  0
 13 37  1  0  0  0
 14 15  2  0  0  0
 14 19  1  0  0  0
 15 16  1  0  0  0
 15 38  1  0  0  0
 16 17  2  0  0  0
 16 39  1  0  0  0
 17 18  1  0  0  0
 17 40  1  0  0  0
 18 19  2  0  0  0
 18 41  1  0  0  0
 19 42  1  0  0  0
 20 21  2  0  0  0
 20 25  1  0  0  0
 21 22  1  0  0  0
 21 43  1  0  0  0
 22 23  2  0  0  0
 22 44  1  0  0  0
 23 24  1  0  0  0
 23 27  1  0  0  0
 24 25  2  0  0  0
 24 45  1  0  0  0
 25 46  1  0  0  0
 26 47  1  0  0  0
 27 48  1  0  0  0
 27 49  1  0  0  0
 27 50  1  0  0  0
M  END
> <s_m_entry_id>
106

> <s_m_entry_name>
dock_pv.105

> <s_m_Source_Path>
/home/csk/Desktop/cluster/DUD-E-result/kif11

> <s_m_Source_File>
dock_pv.maegz

> <i_m_Source_File_Index>
105

> <chembl_id>
CHEMBL429597

> <chembl_pref_name>
None

> <i_lp_mmshare_version>
53161

> <i_f3d_flags>
0

> <r_lp_tautomer_probability>
1

> <s_lp_Force_Field>
OPLS_2005

> <r_lp_Energy>
26.114983

> <b_lp_Chiralities_Consistent>
1

> <s_lp_Variant>
CHEMBL4581_lig459-1

> <s_i_glide_gridfile>
glide-grid_3cjo

> <i_i_glide_lignum>
682

> <i_i_glide_rotatable_bonds>
8

> <r_i_docking_score>
-8.5584473137764

> <r_i_glide_ligand_efficiency>
-0.316979530139867

> <r_i_glide_ligand_efficiency_sa>
-0.950938589374888

> <r_i_glide_ligand_efficiency_ln>
-1.99226543761585

> <r_i_glide_gscore>
-8.5584473137764

> <r_i_glide_lipo>
-4.90272454618113

> <r_i_glide_hbond>
-0.152

> <r_i_glide_metal>
0

> <r_i_glide_rewards>
-0.951892439393938

> <r_i_glide_evdw>
-43.5647087097168

> <r_i_glide_ecoul>
-8.78066158294678

> <r_i_glide_erotb>
0.951422328143484

> <r_i_glide_esite>
-0.00791798341696591

> <r_i_glide_emodel>
-77.8556664412066

> <r_i_glide_energy>
-52.3453702926636

> <r_i_glide_einternal>
3.12107443809509

> <i_i_glide_confnum>
137

> <i_i_glide_posenum>
303

> <r_i_glide_eff_state_penalty>
0

> <s_user_duplicate_titles>
CHEMBL4581_lig459

> <s_m_subgroup_title>
dock_pv

> <s_m_subgroupid>
dock_pv

> <b_m_subgroup_collapsed>
1

$$$$
CHEMBL4581_lig701
                    3D
 Schrodinger Suite 2021-1.
 54 57  0  0  1  0            999 V2000
   19.5176   15.8143  111.1599 C   0  0  0  0  0  0
   18.7882   17.1102  110.7894 C   0  0  0  0  0  0
   17.7832   14.6650  109.0240 C   0  0  0  0  0  0
   18.6693   14.5925  111.4635 C   0  0  0  0  0  0
   17.8121   14.0496  110.4735 C   0  0  0  0  0  0
   17.0354   12.9324  110.8619 C   0  0  0  0  0  0
   17.1181   12.3626  112.1287 C   0  0  0  0  0  0
   17.9673   12.9108  113.0761 C   0  0  0  0  0  0
   18.7295   14.0231  112.7432 C   0  0  0  0  0  0
   17.0315   16.0409  109.1331 C   0  0  0  0  0  0
   17.5156   17.1185  109.9371 C   0  0  0  0  0  0
   16.8155   18.3335  109.9692 C   0  0  0  0  0  0
   15.6272   18.5145  109.2794 C   0  0  0  0  0  0
   15.1048   17.4634  108.5481 C   0  0  0  0  0  0
   15.7902   16.2567  108.4925 C   0  0  0  0  0  0
   19.1706   14.7120  108.3179 C   0  0  0  0  0  0
   20.0881   13.6770  108.5603 C   0  0  0  0  0  0
   21.2550   13.5615  107.8167 C   0  0  0  0  0  0
   21.5179   14.4594  106.7939 C   0  0  0  0  0  0
   20.6925   15.5665  106.5951 C   0  0  0  0  0  0
   19.5191   15.6923  107.3646 C   0  0  0  0  0  0
   16.9087   13.4659  107.8952 S   0  0  0  0  0  0
   16.9324   14.1598  106.1991 C   0  0  0  0  0  0
   15.8482   13.5439  105.2787 C   0  0  1  0  0  0
   14.4004   13.7262  105.8095 C   0  0  0  0  0  0
   15.9181   14.1036  103.9128 N   0  0  0  0  0  0
   14.0624   12.7620  106.7157 O   0  0  0  0  0  0
   13.6634   14.6472  105.4560 O   0  0  0  0  0  0
   21.1005   16.6115  105.5543 C   0  0  0  0  0  0
   21.7916   17.5625  106.1590 F   0  0  0  0  0  0
   21.9180   16.1157  104.6244 F   0  0  0  0  0  0
   20.0388   17.1565  104.9589 F   0  0  0  0  0  0
   20.2509   15.5619  110.4049 H   0  0  0  0  0  0
   20.1393   16.0369  112.0288 H   0  0  0  0  0  0
   19.4988   17.7773  110.3035 H   0  0  0  0  0  0
   18.5453   17.5999  111.7387 H   0  0  0  0  0  0
   16.3385   12.4610  110.1882 H   0  0  0  0  0  0
   16.5039   11.5126  112.3811 H   0  0  0  0  0  0
   18.0304   12.4818  114.0665 H   0  0  0  0  0  0
   19.3819   14.4442  113.4946 H   0  0  0  0  0  0
   17.1958   19.1582  110.5554 H   0  0  0  0  0  0
   15.1047   19.4581  109.3286 H   0  0  0  0  0  0
   14.1655   17.5772  108.0270 H   0  0  0  0  0  0
   15.2997   15.4867  107.9248 H   0  0  0  0  0  0
   19.8673   12.9086  109.2871 H   0  0  0  0  0  0
   21.9275   12.7350  107.9920 H   0  0  0  0  0  0
   22.4157   14.3282  106.2076 H   0  0  0  0  0  0
   18.8538   16.5245  107.1836 H   0  0  0  0  0  0
   17.9159   13.9619  105.7714 H   0  0  0  0  0  0
   16.8364   15.2443  106.2296 H   0  0  0  0  0  0
   16.0278   12.4691  105.2163 H   0  0  0  0  0  0
   15.0468   13.9570  103.4234 H   0  0  0  0  0  0
   16.0712   15.1009  103.9427 H   0  0  0  0  0  0
   14.7721   12.1409  106.9171 H   0  0  0  0  0  0
  1  4  1  0  0  0
  1  2  1  0  0  0
  1 33  1  0  0  0
  1 34  1  0  0  0
  2 11  1  0  0  0
  2 35  1  0  0  0
  2 36  1  0  0  0
  3 10  1  0  0  0
  3  5  1  0  0  0
  3 16  1  0  0  0
  3 22  1  0  0  0
  4  5  2  0  0  0
  4  9  1  0  0  0
  5  6  1  0  0  0
  6  7  2  0  0  0
  6 37  1  0  0  0
  7  8  1  0  0  0
  7 38  1  0  0  0
  8  9  2  0  0  0
  8 39  1  0  0  0
  9 40  1  0  0  0
 10 11  2  0  0  0
 10 15  1  0  0  0
 11 12  1  0  0  0
 12 13  2  0  0  0
 12 41  1  0  0  0
 13 14  1  0  0  0
 13 42  1  0  0  0
 14 15  2  0  0  0
 14 43  1  0  0  0
 15 44  1  0  0  0
 16 17  2  0  0  0
 16 21  1  0  0  0
 17 18  1  0  0  0
 17 45  1  0  0  0
 18 19  2  0  0  0
 18 46  1  0  0  0
 19 20  1  0  0  0
 19 47  1  0  0  0
 20 21  2  0  0  0
 20 29  1  0  0  0
 21 48  1  0  0  0
 22 23  1  0  0  0
 23 24  1  0  0  0
 23 49  1  0  0  0
 23 50  1  0  0  0
 24 25  1  0  0  0
 24 26  1  0  0  0
 24 51  1  0  0  0
 25 27  1  0  0  0
 25 28  2  0  0  0
 26 52  1  0  0  0
 26 53  1  0  0  0
 27 54  1  0  0  0
 29 30  1  0  0  0
 29 31  1  0  0  0
 29 32  1  0  0  0
M  END
> <s_m_entry_id>
107

> <s_m_entry_name>
dock_pv.106

> <s_m_Source_Path>
/home/csk/Desktop/cluster/DUD-E-result/kif11

> <s_m_Source_File>
dock_pv.maegz

> <i_m_Source_File_Index>
106

> <chembl_id>
CHEMBL3633531

> <chembl_pref_name>
None

> <i_lp_mmshare_version>
53161

> <i_f3d_flags>
0

> <r_lp_tautomer_probability>
1

> <s_lp_Force_Field>
OPLS_2005

> <r_lp_Energy>
33.965156

> <b_lp_Chiralities_Consistent>
1

> <s_lp_Variant>
CHEMBL4581_lig701-1

> <s_i_glide_gridfile>
glide-grid_3cjo

> <i_i_glide_lignum>
1044

> <i_i_glide_rotatable_bonds>
7

> <r_i_docking_score>
-8.55795955791737

> <r_i_glide_ligand_efficiency>
-0.267436236184918

> <r_i_glide_ligand_efficiency_sa>
-0.849057124327839

> <r_i_glide_ligand_efficiency_ln>
-1.91636042618465

> <r_i_glide_gscore>
-8.55795955791737

> <r_i_glide_lipo>
-4.9599832218716

> <r_i_glide_hbond>
0

> <r_i_glide_metal>
0

> <r_i_glide_rewards>
-1.43554166441863

> <r_i_glide_evdw>
-42.7951011657715

> <r_i_glide_ecoul>
-3.33169531822205

> <r_i_glide_erotb>
0.480269222229366

> <r_i_glide_esite>
-0.00319453783462239

> <r_i_glide_emodel>
-61.4589651002329

> <r_i_glide_energy>
-46.1267964839935

> <r_i_glide_einternal>
5.98603343963623

> <i_i_glide_confnum>
21

> <i_i_glide_posenum>
10

> <r_i_glide_eff_state_penalty>
0

> <s_user_duplicate_titles>
CHEMBL4581_lig701

> <s_m_subgroup_title>
dock_pv

> <s_m_subgroupid>
dock_pv

> <b_m_subgroup_collapsed>
1

$$$$
CHEMBL4581_lig100
                    3D
 Schrodinger Suite 2021-1.
 52 54  0  0  1  0            999 V2000
   22.5803   14.3352  106.0749 C   0  0  0  0  0  0
   22.7006   15.4522  105.2557 C   0  0  0  0  0  0
   21.7551   16.4688  105.3213 C   0  0  0  0  0  0
   20.6686   16.3506  106.1819 C   0  0  0  0  0  0
   20.5176   15.2191  107.0054 C   0  0  0  0  0  0
   21.5104   14.2176  106.9589 C   0  0  0  0  0  0
   21.5170   13.1610  107.8026 F   0  0  0  0  0  0
   21.8819   17.5606  104.5358 F   0  0  0  0  0  0
   19.3504   15.1782  107.9148 C   0  0  0  0  0  0
   18.7508   16.2122  108.3437 N   0  0  0  0  0  0
   17.6730   15.8935  109.0985 N   0  0  0  0  0  0
   17.5209   14.4197  109.2604 C   0  0  1  0  0  0
   18.6847   13.9116  108.3875 C   0  0  0  0  0  0
   17.7256   13.9525  110.7348 C   0  0  0  0  0  0
   18.5558   14.6783  111.6095 C   0  0  0  0  0  0
   18.7528   14.2623  112.9249 C   0  0  0  0  0  0
   18.1321   13.1031  113.3788 C   0  0  0  0  0  0
   17.3196   12.3620  112.5278 C   0  0  0  0  0  0
   17.1180   12.7813  111.2159 C   0  0  0  0  0  0
   16.7771   16.8690  109.4181 C   0  0  0  0  0  0
   16.2310   16.7477  110.6427 N   0  0  0  0  0  0
   16.5380   17.8307  108.6794 O   0  0  0  0  0  0
   15.1174   17.5459  111.1585 C   0  0  0  0  0  0
   16.1454   13.9378  108.6507 C   0  0  0  0  0  0
   15.3914   19.0572  111.2334 C   0  0  0  0  0  0
   15.7601   14.4986  107.2502 C   0  0  0  0  0  0
   14.3465   14.1171  106.7839 C   0  0  0  0  0  0
   14.3193   12.7617  106.2772 N   0  0  0  0  0  0
   23.3293   13.5609  106.0343 H   0  0  0  0  0  0
   23.5179   15.5259  104.5625 H   0  0  0  0  0  0
   19.9472   17.1574  106.2016 H   0  0  0  0  0  0
   19.3759   13.2883  108.9590 H   0  0  0  0  0  0
   18.3182   13.3284  107.5411 H   0  0  0  0  0  0
   19.0668   15.5687  111.2707 H   0  0  0  0  0  0
   19.3908   14.8317  113.5853 H   0  0  0  0  0  0
   18.2788   12.7805  114.3994 H   0  0  0  0  0  0
   16.8246   11.4742  112.8927 H   0  0  0  0  0  0
   16.4851   12.1709  110.5892 H   0  0  0  0  0  0
   16.5790   16.0126  111.2405 H   0  0  0  0  0  0
   14.2351   17.3609  110.5441 H   0  0  0  0  0  0
   14.8726   17.1799  112.1554 H   0  0  0  0  0  0
   16.1357   12.8490  108.5753 H   0  0  0  0  0  0
   15.3445   14.1925  109.3491 H   0  0  0  0  0  0
   14.5869   19.5699  111.7585 H   0  0  0  0  0  0
   16.3218   19.2592  111.7591 H   0  0  0  0  0  0
   15.4598   19.5123  110.2462 H   0  0  0  0  0  0
   15.7919   15.5872  107.2542 H   0  0  0  0  0  0
   16.4973   14.2031  106.4997 H   0  0  0  0  0  0
   13.6200   14.2330  107.5883 H   0  0  0  0  0  0
   14.0354   14.7790  105.9745 H   0  0  0  0  0  0
   14.9296   12.6782  105.4777 H   0  0  0  0  0  0
   14.6765   12.1019  106.9594 H   0  0  0  0  0  0
  1  2  2  0  0  0
  1  6  1  0  0  0
  1 29  1  0  0  0
  2  3  1  0  0  0
  2 30  1  0  0  0
  3  4  2  0  0  0
  3  8  1  0  0  0
  4  5  1  0  0  0
  4 31  1  0  0  0
  5  9  1  0  0  0
  5  6  2  0  0  0
  6  7  1  0  0  0
  9 10  2  0  0  0
  9 13  1  0  0  0
 10 11  1  0  0  0
 11 20  1  0  0  0
 11 12  1  0  0  0
 12 14  1  0  0  0
 12 24  1  0  0  0
 12 13  1  0  0  0
 13 32  1  0  0  0
 13 33  1  0  0  0
 14 15  2  0  0  0
 14 19  1  0  0  0
 15 16  1  0  0  0
 15 34  1  0  0  0
 16 17  2  0  0  0
 16 35  1  0  0  0
 17 18  1  0  0  0
 17 36  1  0  0  0
 18 19  2  0  0  0
 18 37  1  0  0  0
 19 38  1  0  0  0
 20 21  1  0  0  0
 20 22  2  0  0  0
 21 23  1  0  0  0
 21 39  1  0  0  0
 23 25  1  0  0  0
 23 40  1  0  0  0
 23 41  1  0  0  0
 24 26  1  0  0  0
 24 42  1  0  0  0
 24 43  1  0  0  0
 25 44  1  0  0  0
 25 45  1  0  0  0
 25 46  1  0  0  0
 26 27  1  0  0  0
 26 47  1  0  0  0
 26 48  1  0  0  0
 27 28  1  0  0  0
 27 49  1  0  0  0
 27 50  1  0  0  0
 28 51  1  0  0  0
 28 52  1  0  0  0
M  END
> <s_m_entry_id>
108

> <s_m_entry_name>
dock_pv.107

> <s_m_Source_Path>
/home/csk/Desktop/cluster/DUD-E-result/kif11

> <s_m_Source_File>
dock_pv.maegz

> <i_m_Source_File_Index>
107

> <chembl_id>
CHEMBL207006

> <chembl_pref_name>
None

> <i_lp_mmshare_version>
53161

> <i_f3d_flags>
0

> <r_lp_tautomer_probability>
1

> <s_lp_Force_Field>
OPLS_2005

> <r_lp_Energy>
31.246203

> <b_lp_Chiralities_Consistent>
1

> <s_lp_Variant>
CHEMBL4581_lig100-2

> <s_i_glide_gridfile>
glide-grid_3cjo

> <i_i_glide_lignum>
169

> <i_i_glide_rotatable_bonds>
8

> <r_i_docking_score>
-8.55310309220924

> <r_i_glide_ligand_efficiency>
-0.305467967578901

> <r_i_glide_ligand_efficiency_sa>
-0.927580660581068

> <r_i_glide_ligand_efficiency_ln>
-1.97430732370096

> <r_i_glide_gscore>
-8.55310309220924

> <r_i_glide_lipo>
-4.12278002077617

> <r_i_glide_hbond>
-0.32

> <r_i_glide_metal>
0

> <r_i_glide_rewards>
-2.29704060800368

> <r_i_glide_evdw>
-43.8923454284668

> <r_i_glide_ecoul>
-2.67113399505615

> <r_i_glide_erotb>
0.782004907252377

> <r_i_glide_esite>
0

> <r_i_glide_emodel>
-66.8828001082635

> <r_i_glide_energy>
-46.5634794235229

> <r_i_glide_einternal>
5.8801965713501

> <i_i_glide_confnum>
82

> <i_i_glide_posenum>
313

> <r_i_glide_eff_state_penalty>
0

> <s_user_duplicate_titles>
CHEMBL4581_lig100,347629

> <s_m_subgroup_title>
dock_pv

> <s_m_subgroupid>
dock_pv

> <b_m_subgroup_collapsed>
1

$$$$
CHEMBL4581_lig859
                    3D
 Schrodinger Suite 2021-1.
 50 52  0  0  1  0            999 V2000
   17.6455   14.5381  109.4776 C   0  0  2  0  0  0
   17.0458   15.9629  109.7070 C   0  0  0  0  0  0
   17.9341   14.0091  110.9167 C   0  0  0  0  0  0
   15.6604   16.1581  109.8463 C   0  0  0  0  0  0
   15.1321   17.4255  110.0672 C   0  0  0  0  0  0
   15.9821   18.5231  110.1728 C   0  0  0  0  0  0
   17.3598   18.3456  110.0610 C   0  0  0  0  0  0
   17.8837   17.0822  109.8232 C   0  0  0  0  0  0
   18.9039   14.6500  111.7122 C   0  0  0  0  0  0
   19.1514   14.2483  113.0228 C   0  0  0  0  0  0
   18.4339   13.1909  113.5700 C   0  0  0  0  0  0
   17.4791   12.5407  112.7989 C   0  0  0  0  0  0
   17.2461   12.9223  111.4805 C   0  0  0  0  0  0
   18.9489   14.5263  108.6155 C   0  0  0  0  0  0
   19.0871   15.3821  107.5096 C   0  0  0  0  0  0
   20.2005   15.3060  106.6798 C   0  0  0  0  0  0
   21.2001   14.3812  106.9560 C   0  0  0  0  0  0
   21.1179   13.5620  108.0777 C   0  0  0  0  0  0
   19.9903   13.6208  108.8915 C   0  0  0  0  0  0
   16.6222   13.6207  108.6883 C   0  0  0  0  0  0
   16.0816   14.1653  107.3333 C   0  0  0  0  0  0
   16.7175   13.5438  106.0797 C   0  0  0  0  0  0
   15.9897   12.3621  105.6686 N   0  0  0  0  0  0
   16.7163   11.5622  113.3608 O   0  0  0  0  0  0
   15.4038   19.9091  110.3882 C   0  0  0  0  0  0
   14.9651   15.3374  109.7851 H   0  0  0  0  0  0
   14.0631   17.5511  110.1573 H   0  0  0  0  0  0
   18.0430   19.1698  110.1613 H   0  0  0  0  0  0
   18.9552   16.9840  109.7396 H   0  0  0  0  0  0
   19.4778   15.4744  111.3178 H   0  0  0  0  0  0
   19.8964   14.7596  113.6143 H   0  0  0  0  0  0
   18.6057   12.8860  114.5927 H   0  0  0  0  0  0
   16.4994   12.3728  110.9320 H   0  0  0  0  0  0
   18.3144   16.0949  107.2646 H   0  0  0  0  0  0
   20.2806   15.9519  105.8181 H   0  0  0  0  0  0
   22.0593   14.3118  106.3047 H   0  0  0  0  0  0
   21.9065   12.8552  108.2873 H   0  0  0  0  0  0
   19.9253   12.9289  109.7179 H   0  0  0  0  0  0
   17.0569   12.6299  108.5361 H   0  0  0  0  0  0
   15.7414   13.4261  109.2969 H   0  0  0  0  0  0
   14.9975   14.0414  107.2920 H   0  0  0  0  0  0
   16.2139   15.2445  107.2778 H   0  0  0  0  0  0
   16.6952   14.2548  105.2525 H   0  0  0  0  0  0
   17.7653   13.2927  106.2484 H   0  0  0  0  0  0
   16.5329   11.8994  104.9529 H   0  0  0  0  0  0
   15.9180   11.6981  106.4396 H   0  0  0  0  0  0
   16.0088   11.2248  112.7970 H   0  0  0  0  0  0
   15.5172   20.2144  111.4287 H   0  0  0  0  0  0
   15.9169   20.6372  109.7588 H   0  0  0  0  0  0
   14.3482   19.9514  110.1191 H   0  0  0  0  0  0
  1  2  1  0  0  0
  1  3  1  0  0  0
  1 14  1  0  0  0
  1 20  1  0  0  0
  2  4  2  0  0  0
  2  8  1  0  0  0
  3  9  2  0  0  0
  3 13  1  0  0  0
  4  5  1  0  0  0
  4 26  1  0  0  0
  5  6  2  0  0  0
  5 27  1  0  0  0
  6  7  1  0  0  0
  6 25  1  0  0  0
  7  8  2  0  0  0
  7 28  1  0  0  0
  8 29  1  0  0  0
  9 10  1  0  0  0
  9 30  1  0  0  0
 10 11  2  0  0  0
 10 31  1  0  0  0
 11 12  1  0  0  0
 11 32  1  0  0  0
 12 13  2  0  0  0
 12 24  1  0  0  0
 13 33  1  0  0  0
 14 15  2  0  0  0
 14 19  1  0  0  0
 15 16  1  0  0  0
 15 34  1  0  0  0
 16 17  2  0  0  0
 16 35  1  0  0  0
 17 18  1  0  0  0
 17 36  1  0  0  0
 18 19  2  0  0  0
 18 37  1  0  0  0
 19 38  1  0  0  0
 20 21  1  0  0  0
 20 39  1  0  0  0
 20 40  1  0  0  0
 21 22  1  0  0  0
 21 41  1  0  0  0
 21 42  1  0  0  0
 22 23  1  0  0  0
 22 43  1  0  0  0
 22 44  1  0  0  0
 23 45  1  0  0  0
 23 46  1  0  0  0
 24 47  1  0  0  0
 25 48  1  0  0  0
 25 49  1  0  0  0
 25 50  1  0  0  0
M  END
> <s_m_entry_id>
109

> <s_m_entry_name>
dock_pv.108

> <s_m_Source_Path>
/home/csk/Desktop/cluster/DUD-E-result/kif11

> <s_m_Source_File>
dock_pv.maegz

> <i_m_Source_File_Index>
108

> <chembl_id>
CHEMBL2325425

> <chembl_pref_name>
None

> <i_lp_mmshare_version>
53161

> <i_f3d_flags>
0

> <r_lp_tautomer_probability>
0.999999999997365

> <s_lp_Force_Field>
OPLS_2005

> <r_lp_Energy>
28.963161

> <b_lp_Chiralities_Consistent>
1

> <s_lp_Variant>
CHEMBL4581_lig859-1

> <s_i_glide_gridfile>
glide-grid_3cjo

> <i_i_glide_lignum>
1246

> <i_i_glide_rotatable_bonds>
7

> <r_i_docking_score>
-8.54263586399594

> <r_i_glide_ligand_efficiency>
-0.341705434559838

> <r_i_glide_ligand_efficiency_sa>
-0.999152750824651

> <r_i_glide_ligand_efficiency_ln>
-2.02486070190578

> <r_i_glide_gscore>
-8.54263586399594

> <r_i_glide_lipo>
-4.60283414590904

> <r_i_glide_hbond>
-0.608

> <r_i_glide_metal>
0

> <r_i_glide_rewards>
-1.25753310606061

> <r_i_glide_evdw>
-37.4831428527832

> <r_i_glide_ecoul>
-7.04484701156616

> <r_i_glide_erotb>
0.856615582347791

> <r_i_glide_esite>
0

> <r_i_glide_emodel>
-64.857575605204

> <r_i_glide_energy>
-44.5279898643494

> <r_i_glide_einternal>
5.24746322631836

> <i_i_glide_confnum>
126

> <i_i_glide_posenum>
133

> <r_i_glide_eff_state_penalty>
0

> <s_user_duplicate_titles>
CHEMBL4581_lig859

> <s_m_subgroup_title>
dock_pv

> <s_m_subgroupid>
dock_pv

> <b_m_subgroup_collapsed>
1

$$$$
CHEMBL4581_lig826
                    3D
 Schrodinger Suite 2021-1.
 48 50  0  0  1  0            999 V2000
   16.7216   14.0391  105.9243 C   0  0  0  0  0  0
   16.2459   12.7332  105.5149 N   0  0  0  0  0  0
   16.0438   14.5061  107.2227 C   0  0  0  0  0  0
   16.4859   13.5620  108.7205 S   0  0  0  0  0  0
   17.7356   14.5701  109.6636 C   0  0  0  0  0  0
   19.0026   14.5541  108.7551 C   0  0  0  0  0  0
   17.1828   15.9967  109.9520 C   0  0  0  0  0  0
   18.0005   13.9419  111.0741 C   0  0  0  0  0  0
   20.0287   13.6216  108.9656 C   0  0  0  0  0  0
   21.1182   13.5472  108.1018 C   0  0  0  0  0  0
   21.1799   14.3621  106.9750 C   0  0  0  0  0  0
   20.2066   15.3412  106.7627 C   0  0  0  0  0  0
   19.1436   15.4393  107.6660 C   0  0  0  0  0  0
   18.9278   14.5646  111.9273 C   0  0  0  0  0  0
   19.1307   14.1128  113.2290 C   0  0  0  0  0  0
   18.4198   13.0162  113.6986 C   0  0  0  0  0  0
   17.5181   12.3620  112.8668 C   0  0  0  0  0  0
   17.3171   12.8126  111.5648 C   0  0  0  0  0  0
   18.0519   17.0965  110.0227 C   0  0  0  0  0  0
   17.5736   18.3620  110.3284 C   0  0  0  0  0  0
   16.2154   18.5556  110.5571 C   0  0  0  0  0  0
   15.3319   17.4829  110.4929 C   0  0  0  0  0  0
   15.8153   16.2110  110.1946 C   0  0  0  0  0  0
   20.1918   16.1636  105.6551 O   0  0  0  0  0  0
   21.4088   16.7738  105.2216 C   0  0  0  0  0  0
   21.9217   17.5596  106.1589 F   0  0  0  0  0  0
   22.3211   15.8908  104.8241 F   0  0  0  0  0  0
   21.1208   17.5459  104.1735 F   0  0  0  0  0  0
   16.5347   14.7448  105.1150 H   0  0  0  0  0  0
   17.8002   13.9806  106.0510 H   0  0  0  0  0  0
   16.9340   12.3637  104.8670 H   0  0  0  0  0  0
   16.2543   12.1049  106.3112 H   0  0  0  0  0  0
   14.9601   14.4709  107.1083 H   0  0  0  0  0  0
   16.2804   15.5568  107.3867 H   0  0  0  0  0  0
   19.9706   12.9109  109.7756 H   0  0  0  0  0  0
   21.8802   12.7969  108.2607 H   0  0  0  0  0  0
   21.9903   14.2074  106.2822 H   0  0  0  0  0  0
   18.3894   16.1853  107.4712 H   0  0  0  0  0  0
   19.4910   15.4209  111.5901 H   0  0  0  0  0  0
   19.8392   14.6162  113.8709 H   0  0  0  0  0  0
   18.5741   12.6643  114.7095 H   0  0  0  0  0  0
   16.9556   11.5185  113.2404 H   0  0  0  0  0  0
   16.5934   12.2738  110.9740 H   0  0  0  0  0  0
   19.1154   16.9796  109.8737 H   0  0  0  0  0  0
   18.2707   19.1816  110.3996 H   0  0  0  0  0  0
   15.8439   19.5437  110.7965 H   0  0  0  0  0  0
   14.2785   17.6336  110.6783 H   0  0  0  0  0  0
   15.1159   15.3911  110.1653 H   0  0  0  0  0  0
  1  3  1  0  0  0
  1  2  1  0  0  0
  1 29  1  0  0  0
  1 30  1  0  0  0
  2 31  1  0  0  0
  2 32  1  0  0  0
  3  4  1  0  0  0
  3 33  1  0  0  0
  3 34  1  0  0  0
  4  5  1  0  0  0
  5  8  1  0  0  0
  5  6  1  0  0  0
  5  7  1  0  0  0
  6  9  2  0  0  0
  6 13  1  0  0  0
  7 19  2  0  0  0
  7 23  1  0  0  0
  8 14  2  0  0  0
  8 18  1  0  0  0
  9 10  1  0  0  0
  9 35  1  0  0  0
 10 11  2  0  0  0
 10 36  1  0  0  0
 11 12  1  0  0  0
 11 37  1  0  0  0
 12 24  1  0  0  0
 12 13  2  0  0  0
 13 38  1  0  0  0
 14 15  1  0  0  0
 14 39  1  0  0  0
 15 16  2  0  0  0
 15 40  1  0  0  0
 16 17  1  0  0  0
 16 41  1  0  0  0
 17 18  2  0  0  0
 17 42  1  0  0  0
 18 43  1  0  0  0
 19 20  1  0  0  0
 19 44  1  0  0  0
 20 21  2  0  0  0
 20 45  1  0  0  0
 21 22  1  0  0  0
 21 46  1  0  0  0
 22 23  2  0  0  0
 22 47  1  0  0  0
 23 48  1  0  0  0
 24 25  1  0  0  0
 25 26  1  0  0  0
 25 27  1  0  0  0
 25 28  1  0  0  0
M  END
> <s_m_entry_id>
110

> <s_m_entry_name>
dock_pv.109

> <s_m_Source_Path>
/home/csk/Desktop/cluster/DUD-E-result/kif11

> <s_m_Source_File>
dock_pv.maegz

> <i_m_Source_File_Index>
109

> <chembl_id>
CHEMBL2022988

> <chembl_pref_name>
None

> <i_lp_mmshare_version>
53161

> <i_f3d_flags>
0

> <r_lp_tautomer_probability>
1

> <s_lp_Force_Field>
OPLS_2005

> <r_lp_Energy>
24.431779

> <b_lp_Chiralities_Consistent>
1

> <s_lp_Variant>
CHEMBL4581_lig826-1

> <s_i_glide_gridfile>
glide-grid_3cjo

> <i_i_glide_lignum>
1213

> <i_i_glide_rotatable_bonds>
8

> <r_i_docking_score>
-8.53706312410628

> <r_i_glide_ligand_efficiency>
-0.304895111575224

> <r_i_glide_ligand_efficiency_sa>
-0.925841132359762

> <r_i_glide_ligand_efficiency_ln>
-1.97060482810887

> <r_i_glide_gscore>
-8.53706312410628

> <r_i_glide_lipo>
-5.03628004937822

> <r_i_glide_hbond>
-0.264390752318504

> <r_i_glide_metal>
0

> <r_i_glide_rewards>
-1.3326969706955

> <r_i_glide_evdw>
-45.7814331054688

> <r_i_glide_ecoul>
-2.25538444519043

> <r_i_glide_erotb>
0.723683970337948

> <r_i_glide_esite>
0

> <r_i_glide_emodel>
-68.226962016293

> <r_i_glide_energy>
-48.0368175506592

> <r_i_glide_einternal>
7.75591135025024

> <i_i_glide_confnum>
138

> <i_i_glide_posenum>
385

> <r_i_glide_eff_state_penalty>
0

> <s_user_duplicate_titles>
CHEMBL4581_lig826

> <s_m_subgroup_title>
dock_pv

> <s_m_subgroupid>
dock_pv

> <b_m_subgroup_collapsed>
1

$$$$
CHEMBL4581_lig870
                    3D
 Schrodinger Suite 2021-1.
 51 53  0  0  1  0            999 V2000
   17.6973   14.5214  109.5186 C   0  0  0  0  0  0
   17.0731   15.9267  109.7788 C   0  0  0  0  0  0
   18.9961   14.5374  108.6607 C   0  0  0  0  0  0
   15.6915   16.0803  109.9759 C   0  0  0  0  0  0
   15.1423   17.3284  110.2574 C   0  0  0  0  0  0
   15.9711   18.4407  110.3535 C   0  0  0  0  0  0
   17.3429   18.3129  110.1658 C   0  0  0  0  0  0
   17.8864   17.0687  109.8776 C   0  0  0  0  0  0
   20.0191   13.6033  108.8831 C   0  0  0  0  0  0
   21.1284   13.5620  108.0449 C   0  0  0  0  0  0
   21.2431   14.4278  106.9590 C   0  0  0  0  0  0
   20.2334   15.3699  106.7373 C   0  0  0  0  0  0
   19.1453   15.4430  107.5987 C   0  0  0  0  0  0
   17.9578   13.9326  110.9445 C   0  0  0  0  0  0
   18.8915   14.5704  111.7805 C   0  0  0  0  0  0
   19.1177   14.1295  113.0802 C   0  0  0  0  0  0
   18.4227   13.0280  113.5644 C   0  0  0  0  0  0
   17.5138   12.3631  112.7517 C   0  0  0  0  0  0
   17.2839   12.8059  111.4510 C   0  0  0  0  0  0
   16.5322   13.4496  108.5367 S   0  0  0  0  0  0
   16.2364   14.2913  106.9379 C   0  0  0  0  0  0
   15.3018   13.5757  105.9487 C   0  0  0  0  0  0
   15.9173   12.3625  105.4357 N   0  0  0  0  0  0
   22.3885   14.3153  106.1895 O   0  0  0  0  0  0
   22.6990   15.2838  105.1859 C   0  0  0  0  0  0
   22.9931   16.6951  105.7276 C   0  0  0  0  0  0
   15.0322   15.2291  109.9296 H   0  0  0  0  0  0
   14.0780   17.4317  110.4099 H   0  0  0  0  0  0
   15.5506   19.4074  110.5877 H   0  0  0  0  0  0
   17.9939   19.1679  110.2612 H   0  0  0  0  0  0
   18.9569   16.9996  109.7644 H   0  0  0  0  0  0
   19.9457   12.8735  109.6762 H   0  0  0  0  0  0
   21.9029   12.8308  108.2178 H   0  0  0  0  0  0
   20.2707   16.0511  105.9036 H   0  0  0  0  0  0
   18.3830   16.1786  107.3909 H   0  0  0  0  0  0
   19.4432   15.4293  111.4287 H   0  0  0  0  0  0
   19.8307   14.6400  113.7103 H   0  0  0  0  0  0
   18.5932   12.6851  114.5745 H   0  0  0  0  0  0
   16.9631   11.5194  113.1372 H   0  0  0  0  0  0
   16.5553   12.2630  110.8696 H   0  0  0  0  0  0
   15.8404   15.2851  107.1490 H   0  0  0  0  0  0
   17.1805   14.4356  106.4195 H   0  0  0  0  0  0
   14.3472   13.3373  106.4186 H   0  0  0  0  0  0
   15.0880   14.2337  105.1052 H   0  0  0  0  0  0
   16.8634   12.5488  105.1165 H   0  0  0  0  0  0
   15.9965   11.6970  106.2027 H   0  0  0  0  0  0
   23.5749   14.9196  104.6506 H   0  0  0  0  0  0
   21.9178   15.3226  104.4387 H   0  0  0  0  0  0
   23.1177   17.4140  104.9178 H   0  0  0  0  0  0
   22.2193   17.0887  106.3862 H   0  0  0  0  0  0
   23.9197   16.6862  106.2840 H   0  0  0  0  0  0
  1  2  1  0  0  0
  1  3  1  0  0  0
  1 14  1  0  0  0
  1 20  1  0  0  0
  2  4  2  0  0  0
  2  8  1  0  0  0
  3  9  2  0  0  0
  3 13  1  0  0  0
  4  5  1  0  0  0
  4 27  1  0  0  0
  5  6  2  0  0  0
  5 28  1  0  0  0
  6  7  1  0  0  0
  6 29  1  0  0  0
  7  8  2  0  0  0
  7 30  1  0  0  0
  8 31  1  0  0  0
  9 10  1  0  0  0
  9 32  1  0  0  0
 10 11  2  0  0  0
 10 33  1  0  0  0
 11 12  1  0  0  0
 11 24  1  0  0  0
 12 13  2  0  0  0
 12 34  1  0  0  0
 13 35  1  0  0  0
 14 15  2  0  0  0
 14 19  1  0  0  0
 15 16  1  0  0  0
 15 36  1  0  0  0
 16 17  2  0  0  0
 16 37  1  0  0  0
 17 18  1  0  0  0
 17 38  1  0  0  0
 18 19  2  0  0  0
 18 39  1  0  0  0
 19 40  1  0  0  0
 20 21  1  0  0  0
 21 22  1  0  0  0
 21 41  1  0  0  0
 21 42  1  0  0  0
 22 23  1  0  0  0
 22 43  1  0  0  0
 22 44  1  0  0  0
 23 45  1  0  0  0
 23 46  1  0  0  0
 24 25  1  0  0  0
 25 26  1  0  0  0
 25 47  1  0  0  0
 25 48  1  0  0  0
 26 49  1  0  0  0
 26 50  1  0  0  0
 26 51  1  0  0  0
M  END
> <s_m_entry_id>
111

> <s_m_entry_name>
dock_pv.110

> <s_m_Source_Path>
/home/csk/Desktop/cluster/DUD-E-result/kif11

> <s_m_Source_File>
dock_pv.maegz

> <i_m_Source_File_Index>
110

> <chembl_id>
CHEMBL2325430

> <chembl_pref_name>
None

> <i_lp_mmshare_version>
53161

> <i_f3d_flags>
0

> <r_lp_tautomer_probability>
1

> <s_lp_Force_Field>
OPLS_2005

> <r_lp_Energy>
29.300739

> <b_lp_Chiralities_Consistent>
1

> <s_lp_Variant>
CHEMBL4581_lig870-1

> <s_i_glide_gridfile>
glide-grid_3cjo

> <i_i_glide_lignum>
1261

> <i_i_glide_rotatable_bonds>
8

> <r_i_docking_score>
-8.53622102003803

> <r_i_glide_ligand_efficiency>
-0.328316193078386

> <r_i_glide_ligand_efficiency_sa>
-0.97263543013288

> <r_i_glide_ligand_efficiency_ln>
-2.0047034969302

> <r_i_glide_gscore>
-8.53622102003803

> <r_i_glide_lipo>
-5.1933439159197

> <r_i_glide_hbond>
-0.351286893429901

> <r_i_glide_metal>
0

> <r_i_glide_rewards>
-1.03771466465562

> <r_i_glide_evdw>
-45.5562973022461

> <r_i_glide_ecoul>
-3.65656423568726

> <r_i_glide_erotb>
0.872423954432572

> <r_i_glide_esite>
0

> <r_i_glide_emodel>
-73.6966043813243

> <r_i_glide_energy>
-49.2128615379333

> <r_i_glide_einternal>
2.04662609100342

> <i_i_glide_confnum>
84

> <i_i_glide_posenum>
55

> <r_i_glide_eff_state_penalty>
0

> <s_user_duplicate_titles>
CHEMBL4581_lig870

> <s_m_subgroup_title>
dock_pv

> <s_m_subgroupid>
dock_pv

> <b_m_subgroup_collapsed>
1

$$$$
CHEMBL4581_lig25
                    3D
 Schrodinger Suite 2021-1.
 36 38  0  0  1  0            999 V2000
   17.7162   15.8065  109.5335 N   0  0  0  0  0  0
   18.7183   16.1532  108.6907 N   0  0  0  0  0  0
   19.2788   15.1267  108.1826 C   0  0  0  0  0  0
   17.6378   14.3520  109.7069 C   0  0  1  0  0  0
   18.6379   13.8513  108.6771 C   0  0  0  0  0  0
   16.8059   16.7048  109.9924 C   0  0  0  0  0  0
   20.3573   15.1892  107.1606 C   0  0  0  0  0  0
   21.3534   14.2001  106.9589 C   0  0  0  0  0  0
   17.9398   13.8952  111.1445 C   0  0  0  0  0  0
   15.7870   16.3623  110.5935 O   0  0  0  0  0  0
   21.5204   12.7638  107.9122 Cl  0  0  0  0  0  0
   20.4249   16.3584  106.3770 C   0  0  0  0  0  0
   17.0549   18.2029  109.7760 C   0  0  0  0  0  0
   22.3331   14.3840  105.9809 C   0  0  0  0  0  0
   18.8720   14.5720  111.9432 C   0  0  0  0  0  0
   17.2784   12.7770  111.6559 C   0  0  0  0  0  0
   21.4192   16.5396  105.4196 C   0  0  0  0  0  0
   19.1161   14.1505  113.2476 C   0  0  0  0  0  0
   17.5164   12.3628  112.9622 C   0  0  0  0  0  0
   22.3659   15.5445  105.2166 C   0  0  0  0  0  0
   18.4300   13.0509  113.7556 C   0  0  0  0  0  0
   16.6206   14.0374  109.4559 H   0  0  0  0  0  0
   19.3442   13.1767  109.1540 H   0  0  0  0  0  0
   18.1427   13.3358  107.8539 H   0  0  0  0  0  0
   19.7063   17.1566  106.5097 H   0  0  0  0  0  0
   17.1511   18.4278  108.7129 H   0  0  0  0  0  0
   16.2325   18.7993  110.1763 H   0  0  0  0  0  0
   17.9726   18.5109  110.2815 H   0  0  0  0  0  0
   23.0832   13.6236  105.8184 H   0  0  0  0  0  0
   19.4110   15.4266  111.5575 H   0  0  0  0  0  0
   16.5659   12.2352  111.0520 H   0  0  0  0  0  0
   21.4419   17.4413  104.8243 H   0  0  0  0  0  0
   19.8356   14.6734  113.8609 H   0  0  0  0  0  0
   16.9815   11.5153  113.3620 H   0  0  0  0  0  0
   23.1182   15.6643  104.4541 H   0  0  0  0  0  0
   18.6133   12.7253  114.7693 H   0  0  0  0  0  0
  1  2  1  0  0  0
  1  4  1  0  0  0
  1  6  1  0  0  0
  2  3  2  0  0  0
  3  7  1  0  0  0
  3  5  1  0  0  0
  4  5  1  0  0  0
  4  9  1  0  0  0
  4 22  1  0  0  0
  5 23  1  0  0  0
  5 24  1  0  0  0
  6 10  2  0  0  0
  6 13  1  0  0  0
  7  8  2  0  0  0
  7 12  1  0  0  0
  8 11  1  0  0  0
  8 14  1  0  0  0
  9 15  2  0  0  0
  9 16  1  0  0  0
 12 17  2  0  0  0
 12 25  1  0  0  0
 13 26  1  0  0  0
 13 27  1  0  0  0
 13 28  1  0  0  0
 14 20  2  0  0  0
 14 29  1  0  0  0
 15 18  1  0  0  0
 15 30  1  0  0  0
 16 19  2  0  0  0
 16 31  1  0  0  0
 17 20  1  0  0  0
 17 32  1  0  0  0
 18 21  2  0  0  0
 18 33  1  0  0  0
 19 21  1  0  0  0
 19 34  1  0  0  0
 20 35  1  0  0  0
 21 36  1  0  0  0
M  END
> <s_m_entry_id>
112

> <s_m_entry_name>
dock_pv.111

> <s_m_Source_Path>
/home/csk/Desktop/cluster/DUD-E-result/kif11

> <s_m_Source_File>
dock_pv.maegz

> <i_m_Source_File_Index>
111

> <chembl_id>
CHEMBL195760

> <chembl_pref_name>
None

> <i_lp_mmshare_version>
53161

> <i_f3d_flags>
0

> <r_lp_tautomer_probability>
1

> <s_lp_Force_Field>
OPLS_2005

> <r_lp_Energy>
25.946454

> <b_lp_Chiralities_Consistent>
1

> <s_lp_Variant>
CHEMBL4581_lig25-2

> <s_i_glide_gridfile>
glide-grid_3cjo

> <i_i_glide_lignum>
37

> <i_i_glide_rotatable_bonds>
3

> <r_i_docking_score>
-8.53399470589955

> <r_i_glide_ligand_efficiency>
-0.406380700280931

> <r_i_glide_ligand_efficiency_sa>
-1.12117353768194

> <r_i_glide_ligand_efficiency_ln>
-2.11001294647364

> <r_i_glide_gscore>
-8.53399470589955

> <r_i_glide_lipo>
-4.44038465501618

> <r_i_glide_hbond>
0

> <r_i_glide_metal>
0

> <r_i_glide_rewards>
-2.13841287056256

> <r_i_glide_evdw>
-41.3623390197754

> <r_i_glide_ecoul>
-1.98911821842194

> <r_i_glide_erotb>
0.41128750343125

> <r_i_glide_esite>
0

> <r_i_glide_emodel>
-62.1257905031494

> <r_i_glide_energy>
-43.3514572381973

> <r_i_glide_einternal>
5.63207054138184

> <i_i_glide_confnum>
14

> <i_i_glide_posenum>
113

> <r_i_glide_eff_state_penalty>
0

> <s_user_duplicate_titles>
CHEMBL4581_lig25

> <s_m_subgroup_title>
dock_pv

> <s_m_subgroupid>
dock_pv

> <b_m_subgroup_collapsed>
1

$$$$
CHEMBL4581_lig356
                    3D
 Schrodinger Suite 2021-1.
 47 50  0  0  1  0            999 V2000
   21.2814   15.6038  106.1599 C   0  0  0  0  0  0
   21.7368   14.3458  106.5591 C   0  0  0  0  0  0
   21.1454   13.7065  107.6441 C   0  0  0  0  0  0
   20.1430   16.1463  106.7670 C   0  0  0  0  0  0
   19.5152   15.5016  107.8393 C   0  0  0  0  0  0
   20.0631   14.2882  108.2989 C   0  0  0  0  0  0
   19.5342   13.6038  109.4077 N   0  0  0  0  0  0
   18.2897   14.0497  110.0354 C   0  0  2  0  0  0
   18.2548   16.0632  108.4814 C   0  0  2  0  0  0
   18.1513   15.6005  109.9474 C   0  0  1  0  0  0
   16.8453   16.1794  110.5259 C   0  0  0  0  0  0
   15.6284   15.6933  109.7241 C   0  0  0  0  0  0
   15.8252   15.8048  108.1846 C   0  0  1  0  0  0
   17.1587   15.5534  107.7178 O   0  0  0  0  0  0
   18.1541   13.4980  111.4493 C   0  0  0  0  0  0
   18.9767   13.9750  112.4772 C   0  0  0  0  0  0
   18.8688   13.4440  113.7584 C   0  0  0  0  0  0
   17.9361   12.4438  114.0086 C   0  0  0  0  0  0
   17.1186   11.9621  112.9915 C   0  0  0  0  0  0
   17.2241   12.4885  111.7095 C   0  0  0  0  0  0
   14.8085   14.9951  107.3514 C   0  0  0  0  0  0
   14.9360   13.5659  107.5969 N   0  0  0  0  0  0
   18.9797   16.0590  110.4913 H   0  0  0  0  0  0
   18.2603   17.1552  108.4419 H   0  0  0  0  0  0
   22.0549   16.3876  105.1129 C   0  0  0  0  0  0
   22.7180   15.5576  104.3112 F   0  0  0  0  0  0
   21.2568   17.1629  104.3810 F   0  0  0  0  0  0
   22.9403   17.1604  105.7395 F   0  0  0  0  0  0
   22.5951   13.8887  106.0869 H   0  0  0  0  0  0
   21.5460   12.7607  107.9798 H   0  0  0  0  0  0
   19.7640   17.1037  106.4365 H   0  0  0  0  0  0
   19.7630   12.6333  109.5725 H   0  0  0  0  0  0
   17.4845   13.6007  109.4503 H   0  0  0  0  0  0
   16.7217   15.8827  111.5679 H   0  0  0  0  0  0
   16.8805   17.2707  110.5119 H   0  0  0  0  0  0
   14.7418   16.2526  110.0260 H   0  0  0  0  0  0
   15.4254   14.6556  109.9930 H   0  0  0  0  0  0
   15.6437   16.8526  107.9394 H   0  0  0  0  0  0
   19.7120   14.7409  112.2790 H   0  0  0  0  0  0
   19.5171   13.7879  114.5511 H   0  0  0  0  0  0
   17.8550   12.0192  114.9985 H   0  0  0  0  0  0
   16.4024   11.1800  113.1990 H   0  0  0  0  0  0
   16.5897   12.1034  110.9233 H   0  0  0  0  0  0
   14.9721   15.1842  106.2890 H   0  0  0  0  0  0
   13.7895   15.3093  107.5796 H   0  0  0  0  0  0
   14.3682   13.0320  106.9539 H   0  0  0  0  0  0
   15.8915   13.2840  107.4183 H   0  0  0  0  0  0
  1  2  2  0  0  0
  1  4  1  0  0  0
  1 25  1  0  0  0
  2  3  1  0  0  0
  2 29  1  0  0  0
  3  6  2  0  0  0
  3 30  1  0  0  0
  4  5  2  0  0  0
  4 31  1  0  0  0
  5  9  1  0  0  0
  5  6  1  0  0  0
  6  7  1  0  0  0
  7  8  1  0  0  0
  7 32  1  0  0  0
  8 10  1  0  0  0
  8 15  1  0  0  0
  8 33  1  0  0  0
  9 10  1  0  0  0
  9 24  1  0  0  0
  9 14  1  0  0  0
 10 23  1  0  0  0
 10 11  1  0  0  0
 11 12  1  0  0  0
 11 34  1  0  0  0
 11 35  1  0  0  0
 12 13  1  0  0  0
 12 36  1  0  0  0
 12 37  1  0  0  0
 13 14  1  0  0  0
 13 21  1  0  0  0
 13 38  1  0  0  0
 15 16  2  0  0  0
 15 20  1  0  0  0
 16 17  1  0  0  0
 16 39  1  0  0  0
 17 18  2  0  0  0
 17 40  1  0  0  0
 18 19  1  0  0  0
 18 41  1  0  0  0
 19 20  2  0  0  0
 19 42  1  0  0  0
 20 43  1  0  0  0
 21 22  1  0  0  0
 21 44  1  0  0  0
 21 45  1  0  0  0
 22 46  1  0  0  0
 22 47  1  0  0  0
 25 26  1  0  0  0
 25 27  1  0  0  0
 25 28  1  0  0  0
M  END
> <s_m_entry_id>
113

> <s_m_entry_name>
dock_pv.112

> <s_m_Source_Path>
/home/csk/Desktop/cluster/DUD-E-result/kif11

> <s_m_Source_File>
dock_pv.maegz

> <i_m_Source_File_Index>
112

> <chembl_id>
CHEMBL1085666

> <chembl_pref_name>
None

> <i_lp_mmshare_version>
53161

> <i_f3d_flags>
0

> <r_lp_tautomer_probability>
1

> <s_lp_Force_Field>
OPLS_2005

> <r_lp_Energy>
28.551085

> <b_lp_Chiralities_Consistent>
1

> <s_lp_Variant>
CHEMBL4581_lig356-1

> <s_i_glide_gridfile>
glide-grid_3cjo

> <i_i_glide_lignum>
509

> <i_i_glide_rotatable_bonds>
3

> <r_i_docking_score>
-8.5143818128633

> <r_i_glide_ligand_efficiency>
-0.327476223571665

> <r_i_glide_ligand_efficiency_sa>
-0.970147023774341

> <r_i_glide_ligand_efficiency_ln>
-1.99957463078549

> <r_i_glide_gscore>
-8.5143818128633

> <r_i_glide_lipo>
-4.66524562515797

> <r_i_glide_hbond>
0

> <r_i_glide_metal>
0

> <r_i_glide_rewards>
-2.06341828517092

> <r_i_glide_evdw>
-33.987491607666

> <r_i_glide_ecoul>
-1.55037128925323

> <r_i_glide_erotb>
0.146212371236883

> <r_i_glide_esite>
0

> <r_i_glide_emodel>
-50.6646554550867

> <r_i_glide_energy>
-35.5378628969193

> <r_i_glide_einternal>
1.84253704547882

> <i_i_glide_confnum>
2

> <i_i_glide_posenum>
49

> <r_i_glide_eff_state_penalty>
0

> <s_user_duplicate_titles>
CHEMBL4581_lig356,615591

> <s_m_subgroup_title>
dock_pv

> <s_m_subgroupid>
dock_pv

> <b_m_subgroup_collapsed>
1

$$$$
CHEMBL4581_lig86
                    3D
 Schrodinger Suite 2021-1.
 57 60  0  0  1  0            999 V2000
   22.5821   14.3432  106.0673 C   0  0  0  0  0  0
   22.7046   15.4590  105.2531 C   0  0  0  0  0  0
   21.7692   16.4820  105.3230 C   0  0  0  0  0  0
   20.6945   16.3793  106.1990 C   0  0  0  0  0  0
   20.5427   15.2550  107.0269 C   0  0  0  0  0  0
   21.5168   14.2350  106.9580 C   0  0  0  0  0  0
   21.5124   13.1624  107.7833 F   0  0  0  0  0  0
   21.8917   17.5615  104.5208 F   0  0  0  0  0  0
   19.3764   15.2011  107.9334 C   0  0  0  0  0  0
   18.6673   16.1972  108.2876 N   0  0  0  0  0  0
   17.5460   15.8070  108.9622 N   0  0  0  0  0  0
   17.5312   14.3232  109.1597 C   0  0  1  0  0  0
   18.8643   13.9234  108.5210 C   0  0  0  0  0  0
   17.5840   13.9220  110.6610 C   0  0  0  0  0  0
   16.9579   12.7606  111.1426 C   0  0  0  0  0  0
   17.1257   12.3617  112.4672 C   0  0  0  0  0  0
   17.9143   13.1207  113.3289 C   0  0  0  0  0  0
   18.5345   14.2790  112.8755 C   0  0  0  0  0  0
   18.3677   14.6765  111.5522 C   0  0  0  0  0  0
   16.4206   16.5764  108.8527 C   0  0  0  0  0  0
   15.6915   16.7528  109.9874 N   0  0  0  0  0  0
   16.0665   17.0682  107.7747 O   0  0  0  0  0  0
   16.3575   13.6321  108.3462 C   0  0  0  0  0  0
   16.3004   13.9231  106.8140 C   0  0  0  0  0  0
   14.9162   13.7367  106.1673 C   0  0  0  0  0  0
   14.7133   12.3616  105.7591 N   0  0  0  0  0  0
   14.2417   17.0167  109.8661 C   0  0  0  0  0  0
   14.0346   18.5356  109.6688 C   0  0  0  0  0  0
   14.6222   19.2239  110.7684 O   0  0  0  0  0  0
   16.0215   18.9816  110.9079 C   0  0  0  0  0  0
   16.2996   17.4697  111.1230 C   0  0  0  0  0  0
   23.3225   13.5612  106.0168 H   0  0  0  0  0  0
   23.5175   15.5280  104.5555 H   0  0  0  0  0  0
   19.9779   17.1898  106.2212 H   0  0  0  0  0  0
   19.5810   13.5213  109.2400 H   0  0  0  0  0  0
   18.7180   13.1678  107.7591 H   0  0  0  0  0  0
   16.3570   12.1280  110.5099 H   0  0  0  0  0  0
   16.6362   11.4707  112.8287 H   0  0  0  0  0  0
   18.0426   12.8080  114.3543 H   0  0  0  0  0  0
   19.1579   14.8575  113.5426 H   0  0  0  0  0  0
   18.8955   15.5546  111.2088 H   0  0  0  0  0  0
   16.4250   12.5497  108.4427 H   0  0  0  0  0  0
   15.4067   13.9018  108.8060 H   0  0  0  0  0  0
   16.6052   14.9422  106.6033 H   0  0  0  0  0  0
   17.0450   13.3272  106.2836 H   0  0  0  0  0  0
   14.1178   14.0560  106.8393 H   0  0  0  0  0  0
   14.8375   14.3620  105.2766 H   0  0  0  0  0  0
   15.4068   12.1188  105.0640 H   0  0  0  0  0  0
   14.8855   11.7320  106.5407 H   0  0  0  0  0  0
   13.7232   16.3685  109.1567 H   0  0  0  0  0  0
   13.8321   16.7597  110.8423 H   0  0  0  0  0  0
   12.9699   18.7628  109.6234 H   0  0  0  0  0  0
   14.4564   18.8878  108.7258 H   0  0  0  0  0  0
   16.3690   19.5589  111.7593 H   0  0  0  0  0  0
   16.5620   19.3623  110.0381 H   0  0  0  0  0  0
   15.7422   17.1311  111.9949 H   0  0  0  0  0  0
   17.3397   17.2179  111.3209 H   0  0  0  0  0  0
  1  6  1  0  0  0
  1  2  2  0  0  0
  1 32  1  0  0  0
  2  3  1  0  0  0
  2 33  1  0  0  0
  3  4  2  0  0  0
  3  8  1  0  0  0
  4  5  1  0  0  0
  4 34  1  0  0  0
  5  9  1  0  0  0
  5  6  2  0  0  0
  6  7  1  0  0  0
  9 10  2  0  0  0
  9 13  1  0  0  0
 10 11  1  0  0  0
 11 20  1  0  0  0
 11 12  1  0  0  0
 12 23  1  0  0  0
 12 13  1  0  0  0
 12 14  1  0  0  0
 13 35  1  0  0  0
 13 36  1  0  0  0
 14 15  2  0  0  0
 14 19  1  0  0  0
 15 16  1  0  0  0
 15 37  1  0  0  0
 16 17  2  0  0  0
 16 38  1  0  0  0
 17 18  1  0  0  0
 17 39  1  0  0  0
 18 19  2  0  0  0
 18 40  1  0  0  0
 19 41  1  0  0  0
 20 21  1  0  0  0
 20 22  2  0  0  0
 21 27  1  0  0  0
 21 31  1  0  0  0
 23 24  1  0  0  0
 23 42  1  0  0  0
 23 43  1  0  0  0
 24 25  1  0  0  0
 24 44  1  0  0  0
 24 45  1  0  0  0
 25 26  1  0  0  0
 25 46  1  0  0  0
 25 47  1  0  0  0
 26 48  1  0  0  0
 26 49  1  0  0  0
 27 28  1  0  0  0
 27 50  1  0  0  0
 27 51  1  0  0  0
 28 29  1  0  0  0
 28 52  1  0  0  0
 28 53  1  0  0  0
 29 30  1  0  0  0
 30 31  1  0  0  0
 30 54  1  0  0  0
 30 55  1  0  0  0
 31 56  1  0  0  0
 31 57  1  0  0  0
M  END
> <s_m_entry_id>
114

> <s_m_entry_name>
dock_pv.113

> <s_m_Source_Path>
/home/csk/Desktop/cluster/DUD-E-result/kif11

> <s_m_Source_File>
dock_pv.maegz

> <i_m_Source_File_Index>
113

> <chembl_id>
CHEMBL210741

> <chembl_pref_name>
None

> <i_lp_mmshare_version>
53161

> <i_f3d_flags>
0

> <r_lp_tautomer_probability>
1

> <s_lp_Force_Field>
OPLS_2005

> <r_lp_Energy>
64.096772

> <b_lp_Chiralities_Consistent>
1

> <s_lp_Variant>
CHEMBL4581_lig86-2

> <s_i_glide_gridfile>
glide-grid_3cjo

> <i_i_glide_lignum>
137

> <i_i_glide_rotatable_bonds>
7

> <r_i_docking_score>
-8.51121910690092

> <r_i_glide_ligand_efficiency>
-0.27455545506132

> <r_i_glide_ligand_efficiency_sa>
-0.862483193550893

> <r_i_glide_ligand_efficiency_ln>
-1.91954074614638

> <r_i_glide_gscore>
-8.51121910690092

> <r_i_glide_lipo>
-4.06941397042185

> <r_i_glide_hbond>
-0.32

> <r_i_glide_metal>
0

> <r_i_glide_rewards>
-2.08078348270241

> <r_i_glide_evdw>
-42.9086418151855

> <r_i_glide_ecoul>
-3.63182067871094

> <r_i_glide_erotb>
0.649183538789259

> <r_i_glide_esite>
0

> <r_i_glide_emodel>
-65.2218719687509

> <r_i_glide_energy>
-46.5404624938965

> <r_i_glide_einternal>
5.83499336242676

> <i_i_glide_confnum>
79

> <i_i_glide_posenum>
238

> <r_i_glide_eff_state_penalty>
0

> <s_user_duplicate_titles>
CHEMBL4581_lig86

> <s_m_subgroup_title>
dock_pv

> <s_m_subgroupid>
dock_pv

> <b_m_subgroup_collapsed>
1

$$$$
CHEMBL4581_lig120
                    3D
 Schrodinger Suite 2021-1.
 65 69  0  0  1  0            999 V2000
   20.9227   16.2138  105.7342 C   0  0  0  0  0  0
   21.8841   14.3677  106.5585 C   0  0  0  0  0  0
   22.0180   15.3740  105.6089 C   0  0  0  0  0  0
   20.7172   14.6277  107.2638 C   0  0  0  0  0  0
   20.1234   15.7691  106.7655 N   0  0  0  0  0  0
   18.9354   16.3244  107.2219 N   0  0  0  0  0  0
   18.3194   15.6647  108.1486 C   0  0  0  0  0  0
   18.8468   14.4784  108.6734 N   0  0  0  0  0  0
   20.1043   13.9639  108.3861 C   0  0  0  0  0  0
   20.6265   13.0183  108.9678 O   0  0  0  0  0  0
   16.9864   16.2295  108.7263 C   0  0  2  0  0  0
   15.8313   15.9236  107.8138 N   0  0  0  0  0  0
   14.9067   14.9992  108.2071 C   0  0  0  0  0  0
   15.5493   16.8443  106.6790 C   0  0  0  0  0  0
   14.0480   14.3355  107.1733 C   0  0  0  0  0  0
   14.8082   14.5843  109.3599 O   0  0  0  0  0  0
   17.1238   17.7282  109.1186 C   0  0  0  0  0  0
   16.1958   18.3183  110.1522 C   0  0  0  0  0  0
   17.6573   18.0902  110.4861 C   0  0  0  0  0  0
   20.5035   17.5613  104.7736 Cl  0  0  0  0  0  0
   15.5556   16.3533  105.2045 C   0  0  0  0  0  0
   16.8393   15.6833  104.7222 C   0  0  0  0  0  0
   17.1153   14.4761  105.2012 N   0  0  0  0  0  0
   14.5053   13.1567  106.5809 C   0  0  0  0  0  0
   13.7228   12.4967  105.6419 C   0  0  0  0  0  0
   12.4723   13.0091  105.3018 C   0  0  0  0  0  0
   12.0092   14.1877  105.8943 C   0  0  0  0  0  0
   12.7933   14.8512  106.8364 C   0  0  0  0  0  0
   11.6195   12.2767  104.2846 C   0  0  0  0  0  0
   17.5636   16.2393  103.9006 O   0  0  0  0  0  0
   18.0191   13.5652  109.5029 C   0  0  0  0  0  0
   18.2292   13.5723  111.0153 C   0  0  0  0  0  0
   17.5196   12.6355  111.7696 C   0  0  0  0  0  0
   17.7240   12.5493  113.1423 C   0  0  0  0  0  0
   18.6499   13.3869  113.7544 C   0  0  0  0  0  0
   19.3274   14.3613  113.0214 C   0  0  0  0  0  0
   19.1128   14.4562  111.6485 C   0  0  0  0  0  0
   22.5633   13.5417  106.7215 H   0  0  0  0  0  0
   22.8121   15.4682  104.8824 H   0  0  0  0  0  0
   16.8241   15.7494  109.6929 H   0  0  0  0  0  0
   14.6511   17.4299  106.8801 H   0  0  0  0  0  0
   16.3300   17.5873  106.7036 H   0  0  0  0  0  0
   17.4433   18.3735  108.2994 H   0  0  0  0  0  0
   15.8391   19.3380  110.0066 H   0  0  0  0  0  0
   15.4384   17.6745  110.6048 H   0  0  0  0  0  0
   17.9266   17.2901  111.1766 H   0  0  0  0  0  0
   18.3227   18.9486  110.5742 H   0  0  0  0  0  0
   14.7991   15.5863  105.0653 H   0  0  0  0  0  0
   15.2396   17.1535  104.5337 H   0  0  0  0  0  0
   17.9283   13.9639  104.8565 H   0  0  0  0  0  0
   16.5089   14.0509  105.8824 H   0  0  0  0  0  0
   15.4606   12.7326  106.8575 H   0  0  0  0  0  0
   14.0826   11.5791  105.1980 H   0  0  0  0  0  0
   11.0381   14.5813  105.6347 H   0  0  0  0  0  0
   12.4224   15.7543  107.3012 H   0  0  0  0  0  0
   11.0120   11.5176  104.7747 H   0  0  0  0  0  0
   10.9714   12.9667  103.7449 H   0  0  0  0  0  0
   12.2416   11.7851  103.5361 H   0  0  0  0  0  0
   16.9653   13.6915  109.2941 H   0  0  0  0  0  0
   18.1970   12.5376  109.1773 H   0  0  0  0  0  0
   16.8234   11.9609  111.2903 H   0  0  0  0  0  0
   17.1808   11.8265  113.7290 H   0  0  0  0  0  0
   18.8410   13.2606  114.8090 H   0  0  0  0  0  0
   20.0334   15.0197  113.5073 H   0  0  0  0  0  0
   19.6586   15.1975  111.0840 H   0  0  0  0  0  0
  1 20  1  0  0  0
  1  5  1  0  0  0
  1  3  2  0  0  0
  2  4  2  0  0  0
  2  3  1  0  0  0
  2 38  1  0  0  0
  3 39  1  0  0  0
  4  5  1  0  0  0
  4  9  1  0  0  0
  5  6  1  0  0  0
  6  7  2  0  0  0
  7  8  1  0  0  0
  7 11  1  0  0  0
  8  9  1  0  0  0
  8 31  1  0  0  0
  9 10  2  0  0  0
 11 12  1  0  0  0
 11 17  1  0  0  0
 11 40  1  0  0  0
 12 13  1  0  0  0
 12 14  1  0  0  0
 13 15  1  0  0  0
 13 16  2  0  0  0
 14 21  1  0  0  0
 14 41  1  0  0  0
 14 42  1  0  0  0
 15 24  2  0  0  0
 15 28  1  0  0  0
 17 18  1  0  0  0
 17 19  1  0  0  0
 17 43  1  0  0  0
 18 19  1  0  0  0
 18 44  1  0  0  0
 18 45  1  0  0  0
 19 46  1  0  0  0
 19 47  1  0  0  0
 21 22  1  0  0  0
 21 48  1  0  0  0
 21 49  1  0  0  0
 22 23  1  0  0  0
 22 30  2  0  0  0
 23 50  1  0  0  0
 23 51  1  0  0  0
 24 25  1  0  0  0
 24 52  1  0  0  0
 25 26  2  0  0  0
 25 53  1  0  0  0
 26 27  1  0  0  0
 26 29  1  0  0  0
 27 28  2  0  0  0
 27 54  1  0  0  0
 28 55  1  0  0  0
 29 56  1  0  0  0
 29 57  1  0  0  0
 29 58  1  0  0  0
 31 32  1  0  0  0
 31 59  1  0  0  0
 31 60  1  0  0  0
 32 33  2  0  0  0
 32 37  1  0  0  0
 33 34  1  0  0  0
 33 61  1  0  0  0
 34 35  2  0  0  0
 34 62  1  0  0  0
 35 36  1  0  0  0
 35 63  1  0  0  0
 36 37  2  0  0  0
 36 64  1  0  0  0
 37 65  1  0  0  0
M  END
> <s_m_entry_id>
115

> <s_m_entry_name>
dock_pv.114

> <s_m_Source_Path>
/home/csk/Desktop/cluster/DUD-E-result/kif11

> <s_m_Source_File>
dock_pv.maegz

> <i_m_Source_File_Index>
114

> <chembl_id>
CHEMBL380186

> <chembl_pref_name>
None

> <i_lp_mmshare_version>
53161

> <i_f3d_flags>
0

> <r_lp_tautomer_probability>
1

> <s_lp_Force_Field>
OPLS_2005

> <r_lp_Energy>
59.162254

> <b_lp_Chiralities_Consistent>
1

> <s_lp_Variant>
CHEMBL4581_lig120-1

> <s_i_glide_gridfile>
glide-grid_3cjo

> <i_i_glide_lignum>
207

> <i_i_glide_rotatable_bonds>
10

> <r_i_docking_score>
-8.51032503489104

> <r_i_glide_ligand_efficiency>
-0.230008784726785

> <r_i_glide_ligand_efficiency_sa>
-0.766440297614605

> <r_i_glide_ligand_efficiency_ln>
-1.84568998974233

> <r_i_glide_gscore>
-8.51032503489104

> <r_i_glide_lipo>
-4.51517628597144

> <r_i_glide_hbond>
-0.228929156152934

> <r_i_glide_metal>
0

> <r_i_glide_rewards>
-0.928207801661989

> <r_i_glide_evdw>
-48.7905082702637

> <r_i_glide_ecoul>
-6.80657958984375

> <r_i_glide_erotb>
0.68878014413686

> <r_i_glide_esite>
-0.0662795832517894

> <r_i_glide_emodel>
-67.4546870071196

> <r_i_glide_energy>
-55.5970878601074

> <r_i_glide_einternal>
13.7421569824219

> <i_i_glide_confnum>
34

> <i_i_glide_posenum>
32

> <r_i_glide_eff_state_penalty>
0

> <s_user_duplicate_titles>
CHEMBL4581_lig120,355051

> <s_m_subgroup_title>
dock_pv

> <s_m_subgroupid>
dock_pv

> <b_m_subgroup_collapsed>
1

$$$$
CHEMBL4581_lig891
                    3D
 Schrodinger Suite 2021-1.
 53 55  0  0  1  0            999 V2000
   17.6983   14.6590  109.0087 C   0  0  1  0  0  0
   19.0030   14.9126  108.1888 C   0  0  0  0  0  0
   18.0254   14.1866  110.4644 C   0  0  0  0  0  0
   19.1373   16.0079  107.3171 C   0  0  0  0  0  0
   20.2401   16.1242  106.4779 C   0  0  0  0  0  0
   21.2250   15.1400  106.4899 C   0  0  0  0  0  0
   21.1180   14.0578  107.3618 C   0  0  0  0  0  0
   20.0314   13.9620  108.2219 C   0  0  0  0  0  0
   19.1003   14.7540  111.1747 C   0  0  0  0  0  0
   19.3697   14.3970  112.4957 C   0  0  0  0  0  0
   18.5768   13.4502  113.1348 C   0  0  0  0  0  0
   17.5180   12.8621  112.4514 C   0  0  0  0  0  0
   17.2465   13.2201  111.1299 C   0  0  0  0  0  0
   16.8321   15.9448  109.2027 C   0  0  0  0  0  0
   17.4393   17.1282  109.6604 C   0  0  0  0  0  0
   16.6984   18.2840  109.8775 C   0  0  0  0  0  0
   15.3287   18.2759  109.6445 C   0  0  0  0  0  0
   14.6976   17.1174  109.2037 C   0  0  0  0  0  0
   15.4429   15.9607  108.9883 C   0  0  0  0  0  0
   16.9443   13.5133  108.2061 C   0  0  0  0  0  0
   16.7780   13.6480  106.6543 C   0  0  0  0  0  0
   15.3350   13.8153  106.1130 C   0  0  2  0  0  0
   14.4041   12.7620  106.5591 N   0  0  0  0  0  0
   16.7188   11.9618  113.1028 O   0  0  0  0  0  0
   22.4097   15.2330  105.5448 C   0  0  0  0  0  0
   15.2063   13.9380  104.5699 C   0  0  0  0  0  0
   16.3179   13.5601  103.8680 O   0  0  0  0  0  0
   14.1664   14.3380  104.0495 O   0  0  0  0  0  0
   18.3650   16.7575  107.2388 H   0  0  0  0  0  0
   20.3107   16.9674  105.8055 H   0  0  0  0  0  0
   21.8776   13.2896  107.3723 H   0  0  0  0  0  0
   19.9567   13.1002  108.8705 H   0  0  0  0  0  0
   19.7300   15.4979  110.7104 H   0  0  0  0  0  0
   20.1935   14.8566  113.0220 H   0  0  0  0  0  0
   18.7783   13.1756  114.1606 H   0  0  0  0  0  0
   16.4004   12.7563  110.6506 H   0  0  0  0  0  0
   18.5017   17.1646  109.8482 H   0  0  0  0  0  0
   17.1897   19.1778  110.2291 H   0  0  0  0  0  0
   14.7508   19.1738  109.8123 H   0  0  0  0  0  0
   13.6310   17.1143  109.0320 H   0  0  0  0  0  0
   14.9037   15.0858  108.6676 H   0  0  0  0  0  0
   17.4997   12.5863  108.3678 H   0  0  0  0  0  0
   15.9751   13.2876  108.6466 H   0  0  0  0  0  0
   17.3629   14.4766  106.2665 H   0  0  0  0  0  0
   17.2259   12.7617  106.2048 H   0  0  0  0  0  0
   14.9662   14.7736  106.4775 H   0  0  0  0  0  0
   13.6501   12.6130  105.9013 H   0  0  0  0  0  0
   14.8582   11.8661  106.7372 H   0  0  0  0  0  0
   16.0281   11.5619  112.5607 H   0  0  0  0  0  0
   22.6867   14.2426  105.1794 H   0  0  0  0  0  0
   22.1731   15.8362  104.6664 H   0  0  0  0  0  0
   23.2723   15.6648  106.0527 H   0  0  0  0  0  0
   17.0644   13.2461  104.3915 H   0  0  0  0  0  0
  1  2  1  0  0  0
  1  3  1  0  0  0
  1 14  1  0  0  0
  1 20  1  0  0  0
  2  4  2  0  0  0
  2  8  1  0  0  0
  3  9  2  0  0  0
  3 13  1  0  0  0
  4  5  1  0  0  0
  4 29  1  0  0  0
  5  6  2  0  0  0
  5 30  1  0  0  0
  6  7  1  0  0  0
  6 25  1  0  0  0
  7  8  2  0  0  0
  7 31  1  0  0  0
  8 32  1  0  0  0
  9 10  1  0  0  0
  9 33  1  0  0  0
 10 11  2  0  0  0
 10 34  1  0  0  0
 11 12  1  0  0  0
 11 35  1  0  0  0
 12 13  2  0  0  0
 12 24  1  0  0  0
 13 36  1  0  0  0
 14 15  2  0  0  0
 14 19  1  0  0  0
 15 16  1  0  0  0
 15 37  1  0  0  0
 16 17  2  0  0  0
 16 38  1  0  0  0
 17 18  1  0  0  0
 17 39  1  0  0  0
 18 19  2  0  0  0
 18 40  1  0  0  0
 19 41  1  0  0  0
 20 21  1  0  0  0
 20 42  1  0  0  0
 20 43  1  0  0  0
 21 22  1  0  0  0
 21 44  1  0  0  0
 21 45  1  0  0  0
 22 23  1  0  0  0
 22 26  1  0  0  0
 22 46  1  0  0  0
 23 47  1  0  0  0
 23 48  1  0  0  0
 24 49  1  0  0  0
 25 50  1  0  0  0
 25 51  1  0  0  0
 25 52  1  0  0  0
 26 27  1  0  0  0
 26 28  2  0  0  0
 27 53  1  0  0  0
M  END
> <s_m_entry_id>
116

> <s_m_entry_name>
dock_pv.115

> <s_m_Source_Path>
/home/csk/Desktop/cluster/DUD-E-result/kif11

> <s_m_Source_File>
dock_pv.maegz

> <i_m_Source_File_Index>
115

> <chembl_id>
CHEMBL2325424

> <chembl_pref_name>
None

> <i_lp_mmshare_version>
53161

> <i_f3d_flags>
0

> <r_lp_tautomer_probability>
0.999999999997365

> <s_lp_Force_Field>
OPLS_2005

> <r_lp_Energy>
31.091852

> <b_lp_Chiralities_Consistent>
1

> <s_lp_Variant>
CHEMBL4581_lig891-2

> <s_i_glide_gridfile>
glide-grid_3cjo

> <i_i_glide_lignum>
1288

> <i_i_glide_rotatable_bonds>
9

> <r_i_docking_score>
-8.50887220544544

> <r_i_glide_ligand_efficiency>
-0.303888293051623

> <r_i_glide_ligand_efficiency_sa>
-0.922783838337709

> <r_i_glide_ligand_efficiency_ln>
-1.96409753636061

> <r_i_glide_gscore>
-8.50887220544544

> <r_i_glide_lipo>
-4.52659836596068

> <r_i_glide_hbond>
-0.583203234210155

> <r_i_glide_metal>
0

> <r_i_glide_rewards>
-0.907468333333332

> <r_i_glide_evdw>
-40.0646133422852

> <r_i_glide_ecoul>
-9.65569114685059

> <r_i_glide_erotb>
0.960696146124403

> <r_i_glide_esite>
-0.000714078923828436

> <r_i_glide_emodel>
-71.1717026282245

> <r_i_glide_energy>
-49.7203044891357

> <r_i_glide_einternal>
7.85860013961792

> <i_i_glide_confnum>
123

> <i_i_glide_posenum>
124

> <r_i_glide_eff_state_penalty>
0

> <s_user_duplicate_titles>
CHEMBL4581_lig891

> <s_m_subgroup_title>
dock_pv

> <s_m_subgroupid>
dock_pv

> <b_m_subgroup_collapsed>
1

$$$$
CHEMBL4581_lig36
                    3D
 Schrodinger Suite 2021-1.
 36 38  0  0  1  0            999 V2000
   17.4720   15.8480  109.4699 N   0  0  0  0  0  0
   18.4223   16.2653  108.5918 N   0  0  0  0  0  0
   19.0572   15.2741  108.1119 C   0  0  0  0  0  0
   17.5023   14.3873  109.6496 C   0  0  1  0  0  0
   18.5364   13.9557  108.6223 C   0  0  0  0  0  0
   16.5084   16.6811  109.9442 C   0  0  0  0  0  0
   20.1463   15.3588  107.1279 C   0  0  0  0  0  0
   20.2511   16.4581  106.2636 C   0  0  0  0  0  0
   21.1174   14.3539  107.0526 C   0  0  0  0  0  0
   21.3072   16.5475  105.3591 C   0  0  0  0  0  0
   22.1767   14.4675  106.1590 C   0  0  0  0  0  0
   17.8349   13.9359  111.0804 C   0  0  0  0  0  0
   22.2832   15.5639  105.3210 C   0  0  0  0  0  0
   15.5228   16.2718  110.5592 O   0  0  0  0  0  0
   21.3722   17.5620  104.4793 F   0  0  0  0  0  0
   23.1180   13.5188  106.1137 F   0  0  0  0  0  0
   16.6471   18.1934  109.7256 C   0  0  0  0  0  0
   18.7548   14.6431  111.8663 C   0  0  0  0  0  0
   17.2282   12.7843  111.5932 C   0  0  0  0  0  0
   17.5150   12.3630  112.8894 C   0  0  0  0  0  0
   19.0461   14.2150  113.1582 C   0  0  0  0  0  0
   18.4182   13.0813  113.6682 C   0  0  0  0  0  0
   16.5103   14.0039  109.3957 H   0  0  0  0  0  0
   19.3262   13.3551  109.0763 H   0  0  0  0  0  0
   18.0778   13.3926  107.8075 H   0  0  0  0  0  0
   19.5185   17.2497  106.2865 H   0  0  0  0  0  0
   21.0903   13.4892  107.6978 H   0  0  0  0  0  0
   23.0976   15.6297  104.6169 H   0  0  0  0  0  0
   16.3754   18.4537  108.7027 H   0  0  0  0  0  0
   15.9951   18.7405  110.4064 H   0  0  0  0  0  0
   17.6707   18.5237  109.9076 H   0  0  0  0  0  0
   19.2478   15.5227  111.4772 H   0  0  0  0  0  0
   16.5257   12.2199  110.9966 H   0  0  0  0  0  0
   17.0204   11.4933  113.2941 H   0  0  0  0  0  0
   19.7543   14.7621  113.7630 H   0  0  0  0  0  0
   18.6363   12.7537  114.6749 H   0  0  0  0  0  0
  1  2  1  0  0  0
  1  4  1  0  0  0
  1  6  1  0  0  0
  2  3  2  0  0  0
  3  7  1  0  0  0
  3  5  1  0  0  0
  4  5  1  0  0  0
  4 12  1  0  0  0
  4 23  1  0  0  0
  5 24  1  0  0  0
  5 25  1  0  0  0
  6 14  2  0  0  0
  6 17  1  0  0  0
  7  8  1  0  0  0
  7  9  2  0  0  0
  8 10  2  0  0  0
  8 26  1  0  0  0
  9 11  1  0  0  0
  9 27  1  0  0  0
 10 15  1  0  0  0
 10 13  1  0  0  0
 11 13  2  0  0  0
 11 16  1  0  0  0
 12 18  2  0  0  0
 12 19  1  0  0  0
 13 28  1  0  0  0
 17 29  1  0  0  0
 17 30  1  0  0  0
 17 31  1  0  0  0
 18 21  1  0  0  0
 18 32  1  0  0  0
 19 20  2  0  0  0
 19 33  1  0  0  0
 20 22  1  0  0  0
 20 34  1  0  0  0
 21 22  2  0  0  0
 21 35  1  0  0  0
 22 36  1  0  0  0
M  END
> <s_m_entry_id>
117

> <s_m_entry_name>
dock_pv.116

> <s_m_Source_Path>
/home/csk/Desktop/cluster/DUD-E-result/kif11

> <s_m_Source_File>
dock_pv.maegz

> <i_m_Source_File_Index>
116

> <chembl_id>
CHEMBL440385

> <chembl_pref_name>
None

> <i_lp_mmshare_version>
53161

> <i_f3d_flags>
0

> <r_lp_tautomer_probability>
1

> <s_lp_Force_Field>
OPLS_2005

> <r_lp_Energy>
21.202022

> <b_lp_Chiralities_Consistent>
1

> <s_lp_Variant>
CHEMBL4581_lig36-2

> <s_i_glide_gridfile>
glide-grid_3cjo

> <i_i_glide_lignum>
57

> <i_i_glide_rotatable_bonds>
3

> <r_i_docking_score>
-8.50853886031373

> <r_i_glide_ligand_efficiency>
-0.386751766377897

> <r_i_glide_ligand_efficiency_sa>
-1.08369365947473

> <r_i_glide_ligand_efficiency_ln>
-2.07979725395641

> <r_i_glide_gscore>
-8.50853886031373

> <r_i_glide_lipo>
-4.15094394161929

> <r_i_glide_hbond>
0

> <r_i_glide_metal>
0

> <r_i_glide_rewards>
-2.62345775198529

> <r_i_glide_evdw>
-38.4767799377441

> <r_i_glide_ecoul>
-1.45274353027344

> <r_i_glide_erotb>
0.407613359719077

> <r_i_glide_esite>
0

> <r_i_glide_emodel>
-59.2817941980458

> <r_i_glide_energy>
-39.9295234680176

> <r_i_glide_einternal>
0.81894451379776

> <i_i_glide_confnum>
3

> <i_i_glide_posenum>
219

> <r_i_glide_eff_state_penalty>
0

> <s_user_duplicate_titles>
CHEMBL4581_lig36

> <s_m_subgroup_title>
dock_pv

> <s_m_subgroupid>
dock_pv

> <b_m_subgroup_collapsed>
1

$$$$
CHEMBL4581_lig28
                    3D
 Schrodinger Suite 2021-1.
 38 40  0  0  1  0            999 V2000
   17.9447   15.8070  109.4960 N   0  0  0  0  0  0
   18.8852   16.0761  108.5550 N   0  0  0  0  0  0
   19.4773   15.0217  108.1625 C   0  0  0  0  0  0
   17.8546   14.3564  109.7484 C   0  0  1  0  0  0
   17.1826   16.8081  110.0219 C   0  0  0  0  0  0
   18.9218   13.7884  108.8296 C   0  0  0  0  0  0
   20.5713   15.0032  107.1652 C   0  0  0  0  0  0
   21.5179   13.9617  107.0870 C   0  0  0  0  0  0
   20.7241   16.1069  106.3049 C   0  0  0  0  0  0
   17.4860   18.0024  109.9419 O   0  0  0  0  0  0
   18.0412   13.9257  111.2052 C   0  0  0  0  0  0
   16.0134   16.4050  110.5544 N   0  0  0  0  0  0
   22.5521   14.0220  106.1585 C   0  0  0  0  0  0
   21.7769   16.1673  105.3934 C   0  0  0  0  0  0
   21.5179   12.9132  107.9408 F   0  0  0  0  0  0
   22.6920   15.1227  105.3189 C   0  0  0  0  0  0
   21.9019   17.2330  104.5730 F   0  0  0  0  0  0
   17.3520   12.8034  111.6745 C   0  0  0  0  0  0
   18.9265   14.6065  112.0482 C   0  0  0  0  0  0
   14.9836   17.2941  111.0869 C   0  0  0  0  0  0
   19.1078   14.1763  113.3564 C   0  0  0  0  0  0
   17.5225   12.3812  112.9882 C   0  0  0  0  0  0
   18.4007   13.0690  113.8221 C   0  0  0  0  0  0
   16.8584   14.0421  109.4275 H   0  0  0  0  0  0
   19.6925   13.2644  109.3950 H   0  0  0  0  0  0
   18.4706   13.1061  108.1158 H   0  0  0  0  0  0
   20.0343   16.9398  106.3437 H   0  0  0  0  0  0
   15.7946   15.4216  110.5322 H   0  0  0  0  0  0
   23.2487   13.2047  106.1017 H   0  0  0  0  0  0
   23.4981   15.1608  104.6018 H   0  0  0  0  0  0
   16.6806   12.2556  111.0279 H   0  0  0  0  0  0
   19.4830   15.4611  111.6906 H   0  0  0  0  0  0
   14.8927   17.1614  112.1641 H   0  0  0  0  0  0
   15.1936   18.3483  110.8990 H   0  0  0  0  0  0
   14.0212   17.0612  110.6298 H   0  0  0  0  0  0
   19.7899   14.7076  114.0050 H   0  0  0  0  0  0
   16.9758   11.5250  113.3552 H   0  0  0  0  0  0
   18.5368   12.7383  114.8424 H   0  0  0  0  0  0
  1  2  1  0  0  0
  1  4  1  0  0  0
  1  5  1  0  0  0
  2  3  2  0  0  0
  3  7  1  0  0  0
  3  6  1  0  0  0
  4  6  1  0  0  0
  4 11  1  0  0  0
  4 24  1  0  0  0
  5 10  2  0  0  0
  5 12  1  0  0  0
  6 25  1  0  0  0
  6 26  1  0  0  0
  7  8  2  0  0  0
  7  9  1  0  0  0
  8 13  1  0  0  0
  8 15  1  0  0  0
  9 14  2  0  0  0
  9 27  1  0  0  0
 11 18  1  0  0  0
 11 19  2  0  0  0
 12 20  1  0  0  0
 12 28  1  0  0  0
 13 16  2  0  0  0
 13 29  1  0  0  0
 14 16  1  0  0  0
 14 17  1  0  0  0
 16 30  1  0  0  0
 18 22  2  0  0  0
 18 31  1  0  0  0
 19 21  1  0  0  0
 19 32  1  0  0  0
 20 33  1  0  0  0
 20 34  1  0  0  0
 20 35  1  0  0  0
 21 23  2  0  0  0
 21 36  1  0  0  0
 22 23  1  0  0  0
 22 37  1  0  0  0
 23 38  1  0  0  0
M  END
> <s_m_entry_id>
118

> <s_m_entry_name>
dock_pv.117

> <s_m_Source_Path>
/home/csk/Desktop/cluster/DUD-E-result/kif11

> <s_m_Source_File>
dock_pv.maegz

> <i_m_Source_File_Index>
117

> <chembl_id>
CHEMBL193686

> <chembl_pref_name>
None

> <i_lp_mmshare_version>
53161

> <i_f3d_flags>
0

> <r_lp_tautomer_probability>
1

> <s_lp_Force_Field>
OPLS_2005

> <r_lp_Energy>
24.864809

> <b_lp_Chiralities_Consistent>
1

> <s_lp_Variant>
CHEMBL4581_lig28-2

> <s_i_glide_gridfile>
glide-grid_3cjo

> <i_i_glide_lignum>
43

> <i_i_glide_rotatable_bonds>
4

> <r_i_docking_score>
-8.49881426677233

> <r_i_glide_ligand_efficiency>
-0.36951366377271

> <r_i_glide_ligand_efficiency_sa>
-1.05084770590887

> <r_i_glide_ligand_efficiency_ln>
-2.05509035269267

> <r_i_glide_gscore>
-8.49881426677233

> <r_i_glide_lipo>
-4.03033890948548

> <r_i_glide_hbond>
0

> <r_i_glide_metal>
0

> <r_i_glide_rewards>
-2.95830515845633

> <r_i_glide_evdw>
-40.9018287658691

> <r_i_glide_ecoul>
-0.175552204251289

> <r_i_glide_erotb>
0.561254070100634

> <r_i_glide_esite>
0

> <r_i_glide_emodel>
-59.6784769116244

> <r_i_glide_energy>
-41.0773809701204

> <r_i_glide_einternal>
3.36307811737061

> <i_i_glide_confnum>
8

> <i_i_glide_posenum>
141

> <r_i_glide_eff_state_penalty>
0

> <s_user_duplicate_titles>
CHEMBL4581_lig28

> <s_m_subgroup_title>
dock_pv

> <s_m_subgroupid>
dock_pv

> <b_m_subgroup_collapsed>
1

$$$$
CHEMBL4581_lig265
                    3D
 Schrodinger Suite 2021-1.
 29 30  0  0  1  0            999 V2000
   21.0252   14.3632  107.4149 C   0  0  0  0  0  0
   20.6370   15.5818  106.8405 C   0  0  0  0  0  0
   19.5167   16.2424  107.3597 C   0  0  0  0  0  0
   18.8645   15.7605  108.4923 C   0  0  0  0  0  0
   19.3115   14.5953  109.1146 C   0  0  0  0  0  0
   20.3719   13.8865  108.5494 C   0  0  0  0  0  0
   18.7175   14.1392  110.3835 C   0  0  0  0  0  0
   17.8549   13.0447  110.4061 C   0  0  0  0  0  0
   17.3666   12.5656  111.6156 C   0  0  0  0  0  0
   17.7275   13.1931  112.8140 C   0  0  0  0  0  0
   18.5729   14.3030  112.7866 C   0  0  0  0  0  0
   19.0619   14.7778  111.5759 C   0  0  0  0  0  0
   21.4278   16.2134  105.6949 C   0  0  0  0  0  0
   22.0429   15.2929  104.9591 F   0  0  0  0  0  0
   22.3638   17.0346  106.1604 F   0  0  0  0  0  0
   20.6227   16.9311  104.9120 F   0  0  0  0  0  0
   17.2106   12.7095  114.1625 C   0  0  0  0  0  0
   22.0683   13.6529  106.9269 F   0  0  0  0  0  0
   16.3178   11.6138  114.1031 O   0  0  0  0  0  0
   19.1789   17.1648  106.9203 H   0  0  0  0  0  0
   18.0356   16.3153  108.9077 H   0  0  0  0  0  0
   20.7156   12.9714  109.0087 H   0  0  0  0  0  0
   17.5864   12.5413  109.4876 H   0  0  0  0  0  0
   16.7171   11.7029  111.6044 H   0  0  0  0  0  0
   18.8594   14.7993  113.7004 H   0  0  0  0  0  0
   19.7299   15.6277  111.5666 H   0  0  0  0  0  0
   18.0612   12.4306  114.7867 H   0  0  0  0  0  0
   16.7263   13.5348  114.6837 H   0  0  0  0  0  0
   15.6313   11.7736  113.4485 H   0  0  0  0  0  0
  1  6  1  0  0  0
  1  2  2  0  0  0
  1 18  1  0  0  0
  2  3  1  0  0  0
  2 13  1  0  0  0
  3  4  2  0  0  0
  3 20  1  0  0  0
  4  5  1  0  0  0
  4 21  1  0  0  0
  5  6  2  0  0  0
  5  7  1  0  0  0
  6 22  1  0  0  0
  7 12  1  0  0  0
  7  8  2  0  0  0
  8  9  1  0  0  0
  8 23  1  0  0  0
  9 10  2  0  0  0
  9 24  1  0  0  0
 10 11  1  0  0  0
 10 17  1  0  0  0
 11 12  2  0  0  0
 11 25  1  0  0  0
 12 26  1  0  0  0
 13 14  1  0  0  0
 13 15  1  0  0  0
 13 16  1  0  0  0
 17 19  1  0  0  0
 17 27  1  0  0  0
 17 28  1  0  0  0
 19 29  1  0  0  0
M  END
> <s_m_entry_id>
119

> <s_m_entry_name>
dock_pv.118

> <s_m_Source_Path>
/home/csk/Desktop/cluster/DUD-E-result/kif11

> <s_m_Source_File>
dock_pv.maegz

> <i_m_Source_File_Index>
118

> <chembl_id>
CHEMBL443196

> <chembl_pref_name>
None

> <i_lp_mmshare_version>
53161

> <i_f3d_flags>
0

> <r_lp_tautomer_probability>
1

> <s_lp_Force_Field>
OPLS_2005

> <r_lp_Energy>
14.443724

> <b_lp_Chiralities_Consistent>
1

> <s_lp_Variant>
CHEMBL4581_lig265-1

> <s_i_glide_gridfile>
glide-grid_3cjo

> <i_i_glide_lignum>
390

> <i_i_glide_rotatable_bonds>
4

> <r_i_docking_score>
-8.49677900395621

> <r_i_glide_ligand_efficiency>
-0.447198894945064

> <r_i_glide_ligand_efficiency_sa>
-1.19330626740683

> <r_i_glide_ligand_efficiency_ln>
-2.15411597158281

> <r_i_glide_gscore>
-8.49677900395621

> <r_i_glide_lipo>
-3.81230891936764

> <r_i_glide_hbond>
-0.180623906280867

> <r_i_glide_metal>
0

> <r_i_glide_rewards>
-3.24752851313885

> <r_i_glide_evdw>
-27.9727096557617

> <r_i_glide_ecoul>
-2.31650114059448

> <r_i_glide_erotb>
0.489792988708395

> <r_i_glide_esite>
0

> <r_i_glide_emodel>
-40.3606043319402

> <r_i_glide_energy>
-30.2892107963562

> <r_i_glide_einternal>
4.82887315750122

> <i_i_glide_confnum>
3

> <i_i_glide_posenum>
375

> <r_i_glide_eff_state_penalty>
0

> <s_user_duplicate_titles>
CHEMBL4581_lig265

> <s_m_subgroup_title>
dock_pv

> <s_m_subgroupid>
dock_pv

> <b_m_subgroup_collapsed>
1

$$$$
CHEMBL4581_lig86
                    3D
 Schrodinger Suite 2021-1.
 57 60  0  0  1  0            999 V2000
   22.4925   14.3383  106.1589 C   0  0  0  0  0  0
   22.8057   15.4363  105.3697 C   0  0  0  0  0  0
   21.9046   16.4876  105.2517 C   0  0  0  0  0  0
   20.6771   16.4271  105.9047 C   0  0  0  0  0  0
   20.3474   15.3291  106.7179 C   0  0  0  0  0  0
   21.2979   14.3027  106.8745 C   0  0  0  0  0  0
   21.1225   13.2926  107.7594 F   0  0  0  0  0  0
   22.2110   17.5609  104.4941 F   0  0  0  0  0  0
   19.0377   15.2844  107.3944 C   0  0  0  0  0  0
   18.5939   14.3441  108.1207 N   0  0  0  0  0  0
   17.3848   14.6680  108.6603 N   0  0  0  0  0  0
   16.8214   15.8899  108.0377 C   0  0  2  0  0  0
   18.0591   16.4148  107.2977 C   0  0  0  0  0  0
   16.3503   16.9163  109.1038 C   0  0  0  0  0  0
   15.0410   17.4286  109.1349 C   0  0  0  0  0  0
   14.6815   18.4037  110.0592 C   0  0  0  0  0  0
   15.6278   18.8766  110.9590 C   0  0  0  0  0  0
   16.9208   18.3644  110.9588 C   0  0  0  0  0  0
   17.2759   17.3814  110.0485 C   0  0  0  0  0  0
   16.7862   13.8704  109.5965 C   0  0  0  0  0  0
   17.5416   13.4195  110.6534 N   0  0  0  0  0  0
   15.5807   13.6121  109.5081 O   0  0  0  0  0  0
   15.6963   15.5704  106.9804 C   0  0  0  0  0  0
   16.0062   14.6245  105.7836 C   0  0  0  0  0  0
   15.9447   13.1196  106.0717 C   0  0  0  0  0  0
   14.6278   12.7620  106.5579 N   0  0  0  0  0  0
   18.8920   13.9502  110.9835 C   0  0  0  0  0  0
   19.0166   14.0758  112.5131 C   0  0  0  0  0  0
   18.7121   12.8389  113.1351 O   0  0  0  0  0  0
   17.3600   12.4730  112.9232 C   0  0  0  0  0  0
   17.0667   12.2449  111.4236 C   0  0  0  0  0  0
   23.1982   13.5313  106.2600 H   0  0  0  0  0  0
   23.7666   15.4795  104.8909 H   0  0  0  0  0  0
   20.0036   17.2610  105.7735 H   0  0  0  0  0  0
   17.8412   16.6661  106.2608 H   0  0  0  0  0  0
   18.4971   17.2999  107.7599 H   0  0  0  0  0  0
   14.2810   17.1040  108.4426 H   0  0  0  0  0  0
   13.6776   18.8031  110.0679 H   0  0  0  0  0  0
   15.3591   19.6493  111.6641 H   0  0  0  0  0  0
   17.6480   18.7429  111.6634 H   0  0  0  0  0  0
   18.2893   17.0085  110.0571 H   0  0  0  0  0  0
   14.8067   15.2023  107.4916 H   0  0  0  0  0  0
   15.3893   16.5191  106.5370 H   0  0  0  0  0  0
   15.2865   14.8354  104.9906 H   0  0  0  0  0  0
   16.9739   14.8495  105.3390 H   0  0  0  0  0  0
   16.1556   12.5537  105.1626 H   0  0  0  0  0  0
   16.6982   12.8221  106.8003 H   0  0  0  0  0  0
   14.6831   11.7822  106.8312 H   0  0  0  0  0  0
   14.4810   13.2559  107.4286 H   0  0  0  0  0  0
   19.6119   13.2205  110.6110 H   0  0  0  0  0  0
   19.0551   14.9483  110.5806 H   0  0  0  0  0  0
   18.3689   14.8694  112.8917 H   0  0  0  0  0  0
   20.0323   14.3663  112.7820 H   0  0  0  0  0  0
   16.7182   13.2407  113.3508 H   0  0  0  0  0  0
   17.1398   11.5641  113.4818 H   0  0  0  0  0  0
   15.9914   12.0939  111.3254 H   0  0  0  0  0  0
   17.6445   11.3940  111.0663 H   0  0  0  0  0  0
  1  6  1  0  0  0
  1  2  2  0  0  0
  1 32  1  0  0  0
  2  3  1  0  0  0
  2 33  1  0  0  0
  3  4  2  0  0  0
  3  8  1  0  0  0
  4  5  1  0  0  0
  4 34  1  0  0  0
  5  9  1  0  0  0
  5  6  2  0  0  0
  6  7  1  0  0  0
  9 10  2  0  0  0
  9 13  1  0  0  0
 10 11  1  0  0  0
 11 20  1  0  0  0
 11 12  1  0  0  0
 12 23  1  0  0  0
 12 13  1  0  0  0
 12 14  1  0  0  0
 13 35  1  0  0  0
 13 36  1  0  0  0
 14 15  2  0  0  0
 14 19  1  0  0  0
 15 16  1  0  0  0
 15 37  1  0  0  0
 16 17  2  0  0  0
 16 38  1  0  0  0
 17 18  1  0  0  0
 17 39  1  0  0  0
 18 19  2  0  0  0
 18 40  1  0  0  0
 19 41  1  0  0  0
 20 21  1  0  0  0
 20 22  2  0  0  0
 21 27  1  0  0  0
 21 31  1  0  0  0
 23 24  1  0  0  0
 23 42  1  0  0  0
 23 43  1  0  0  0
 24 25  1  0  0  0
 24 44  1  0  0  0
 24 45  1  0  0  0
 25 26  1  0  0  0
 25 46  1  0  0  0
 25 47  1  0  0  0
 26 48  1  0  0  0
 26 49  1  0  0  0
 27 28  1  0  0  0
 27 50  1  0  0  0
 27 51  1  0  0  0
 28 29  1  0  0  0
 28 52  1  0  0  0
 28 53  1  0  0  0
 29 30  1  0  0  0
 30 31  1  0  0  0
 30 54  1  0  0  0
 30 55  1  0  0  0
 31 56  1  0  0  0
 31 57  1  0  0  0
M  END
> <s_m_entry_id>
120

> <s_m_entry_name>
dock_pv.119

> <s_m_Source_Path>
/home/csk/Desktop/cluster/DUD-E-result/kif11

> <s_m_Source_File>
dock_pv.maegz

> <i_m_Source_File_Index>
119

> <chembl_id>
CHEMBL210741

> <chembl_pref_name>
None

> <i_lp_mmshare_version>
53161

> <i_f3d_flags>
0

> <r_lp_tautomer_probability>
1

> <s_lp_Force_Field>
OPLS_2005

> <r_lp_Energy>
65.413045

> <b_lp_Chiralities_Consistent>
1

> <s_lp_Variant>
CHEMBL4581_lig86-1

> <s_i_glide_gridfile>
glide-grid_3cjo

> <i_i_glide_lignum>
136

> <i_i_glide_rotatable_bonds>
7

> <r_i_docking_score>
-8.4911745784933

> <r_i_glide_ligand_efficiency>
-0.273908857370751

> <r_i_glide_ligand_efficiency_sa>
-0.860451984078185

> <r_i_glide_ligand_efficiency_ln>
-1.91502009069944

> <r_i_glide_gscore>
-8.4911745784933

> <r_i_glide_lipo>
-3.94254010894464

> <r_i_glide_hbond>
-0.32

> <r_i_glide_metal>
0

> <r_i_glide_rewards>
-2.19313218203634

> <r_i_glide_evdw>
-41.4853668212891

> <r_i_glide_ecoul>
-4.06944990158081

> <r_i_glide_erotb>
0.649183538789259

> <r_i_glide_esite>
0

> <r_i_glide_emodel>
-64.5616984220278

> <r_i_glide_energy>
-45.5548167228699

> <r_i_glide_einternal>
6.72902965545654

> <i_i_glide_confnum>
79

> <i_i_glide_posenum>
74

> <r_i_glide_eff_state_penalty>
0

> <s_user_duplicate_titles>
CHEMBL4581_lig86,347982

> <s_m_subgroup_title>
dock_pv

> <s_m_subgroupid>
dock_pv

> <b_m_subgroup_collapsed>
1

$$$$
CHEMBL4581_lig713
                    3D
 Schrodinger Suite 2021-1.
 52 55  0  0  1  0            999 V2000
   19.1938   16.0923  111.3713 C   0  0  0  0  0  0
   18.2842   17.1126  110.9585 O   0  0  0  0  0  0
   17.3504   14.5125  109.6508 C   0  0  1  0  0  0
   18.6104   14.7784  111.8844 C   0  0  0  0  0  0
   17.7460   13.9985  111.0759 C   0  0  0  0  0  0
   17.2484   12.8011  111.6422 C   0  0  0  0  0  0
   17.5784   12.3981  112.9321 C   0  0  0  0  0  0
   18.4440   13.1628  113.6960 C   0  0  0  0  0  0
   18.9585   14.3410  113.1686 C   0  0  0  0  0  0
   16.4458   15.7508  109.9206 C   0  0  0  0  0  0
   16.9788   16.9146  110.5508 C   0  0  0  0  0  0
   16.1546   18.0163  110.7905 C   0  0  0  0  0  0
   14.8224   18.0256  110.4032 C   0  0  0  0  0  0
   14.2904   16.9109  109.7732 C   0  0  0  0  0  0
   15.0890   15.7956  109.5455 C   0  0  0  0  0  0
   18.5533   14.8364  108.7397 C   0  0  0  0  0  0
   18.5614   15.9813  107.9258 C   0  0  0  0  0  0
   19.6344   16.2477  107.0912 C   0  0  0  0  0  0
   20.7212   15.3776  107.0613 C   0  0  0  0  0  0
   20.7182   14.2300  107.8578 C   0  0  0  0  0  0
   19.6457   13.9629  108.6961 C   0  0  0  0  0  0
   16.4550   13.1620  108.7335 S   0  0  0  0  0  0
   16.5587   13.4258  106.9173 C   0  0  0  0  0  0
   15.2594   14.0159  106.3237 C   0  0  1  0  0  0
   15.3143   14.4001  104.8221 C   0  0  0  0  0  0
   14.0898   13.1373  106.5231 N   0  0  0  0  0  0
   16.3179   13.8075  104.1061 O   0  0  0  0  0  0
   14.4812   15.1669  104.3385 O   0  0  0  0  0  0
   21.9182   15.7208  106.1804 C   0  0  0  0  0  0
   22.4643   16.8677  106.5590 F   0  0  0  0  0  0
   21.4978   15.9167  104.9589 F   0  0  0  0  0  0
   22.8562   14.7710  106.1579 F   0  0  0  0  0  0
   19.9174   15.9016  110.5853 H   0  0  0  0  0  0
   19.7983   16.5457  112.1578 H   0  0  0  0  0  0
   16.5608   12.1618  111.1106 H   0  0  0  0  0  0
   17.1496   11.4975  113.3502 H   0  0  0  0  0  0
   18.7068   12.8535  114.6978 H   0  0  0  0  0  0
   19.6335   14.9249  113.7756 H   0  0  0  0  0  0
   16.5686   18.8895  111.2775 H   0  0  0  0  0  0
   14.2070   18.8934  110.5890 H   0  0  0  0  0  0
   13.2539   16.9046  109.4672 H   0  0  0  0  0  0
   14.6058   14.9554  109.0721 H   0  0  0  0  0  0
   17.7345   16.6762  107.9199 H   0  0  0  0  0  0
   19.6311   17.1442  106.4846 H   0  0  0  0  0  0
   21.5557   13.5443  107.8390 H   0  0  0  0  0  0
   19.6544   13.0653  109.3000 H   0  0  0  0  0  0
   17.4214   14.0204  106.6310 H   0  0  0  0  0  0
   16.7392   12.4424  106.4819 H   0  0  0  0  0  0
   15.0753   14.9604  106.8359 H   0  0  0  0  0  0
   13.3836   13.2676  105.8112 H   0  0  0  0  0  0
   14.3457   12.1565  106.5534 H   0  0  0  0  0  0
   16.9502   13.2754  104.6000 H   0  0  0  0  0  0
  1  4  1  0  0  0
  1  2  1  0  0  0
  1 33  1  0  0  0
  1 34  1  0  0  0
  2 11  1  0  0  0
  3 10  1  0  0  0
  3  5  1  0  0  0
  3 16  1  0  0  0
  3 22  1  0  0  0
  4  5  2  0  0  0
  4  9  1  0  0  0
  5  6  1  0  0  0
  6  7  2  0  0  0
  6 35  1  0  0  0
  7  8  1  0  0  0
  7 36  1  0  0  0
  8  9  2  0  0  0
  8 37  1  0  0  0
  9 38  1  0  0  0
 10 11  2  0  0  0
 10 15  1  0  0  0
 11 12  1  0  0  0
 12 13  2  0  0  0
 12 39  1  0  0  0
 13 14  1  0  0  0
 13 40  1  0  0  0
 14 15  2  0  0  0
 14 41  1  0  0  0
 15 42  1  0  0  0
 16 17  2  0  0  0
 16 21  1  0  0  0
 17 18  1  0  0  0
 17 43  1  0  0  0
 18 19  2  0  0  0
 18 44  1  0  0  0
 19 20  1  0  0  0
 19 29  1  0  0  0
 20 21  2  0  0  0
 20 45  1  0  0  0
 21 46  1  0  0  0
 22 23  1  0  0  0
 23 24  1  0  0  0
 23 47  1  0  0  0
 23 48  1  0  0  0
 24 25  1  0  0  0
 24 26  1  0  0  0
 24 49  1  0  0  0
 25 27  1  0  0  0
 25 28  2  0  0  0
 26 50  1  0  0  0
 26 51  1  0  0  0
 27 52  1  0  0  0
 29 30  1  0  0  0
 29 31  1  0  0  0
 29 32  1  0  0  0
M  END
> <s_m_entry_id>
121

> <s_m_entry_name>
dock_pv.120

> <s_m_Source_Path>
/home/csk/Desktop/cluster/DUD-E-result/kif11

> <s_m_Source_File>
dock_pv.maegz

> <i_m_Source_File_Index>
120

> <chembl_id>
CHEMBL3633540

> <chembl_pref_name>
None

> <i_lp_mmshare_version>
53161

> <i_f3d_flags>
0

> <r_lp_tautomer_probability>
1

> <s_lp_Force_Field>
OPLS_2005

> <r_lp_Energy>
40.018326

> <b_lp_Chiralities_Consistent>
1

> <s_lp_Variant>
CHEMBL4581_lig713-1

> <s_i_glide_gridfile>
glide-grid_3cjo

> <i_i_glide_lignum>
1056

> <i_i_glide_rotatable_bonds>
7

> <r_i_docking_score>
-8.48922650535422

> <r_i_glide_ligand_efficiency>
-0.265288328292319

> <r_i_glide_ligand_efficiency_sa>
-0.842237941839234

> <r_i_glide_ligand_efficiency_ln>
-1.90096922212351

> <r_i_glide_gscore>
-8.48922650535422

> <r_i_glide_lipo>
-4.58676073135303

> <r_i_glide_hbond>
-0.0649241347843786

> <r_i_glide_metal>
0

> <r_i_glide_rewards>
-1.54831215932981

> <r_i_glide_evdw>
-43.2658500671387

> <r_i_glide_ecoul>
-3.98988008499146

> <r_i_glide_erotb>
0.476520916252139

> <r_i_glide_esite>
-0.00397588003349209

> <r_i_glide_emodel>
-70.0022776224298

> <r_i_glide_energy>
-47.2557301521301

> <r_i_glide_einternal>
4.3115062713623

> <i_i_glide_confnum>
280

> <i_i_glide_posenum>
82

> <r_i_glide_eff_state_penalty>
0

> <s_user_duplicate_titles>
CHEMBL4581_lig713

> <s_m_subgroup_title>
dock_pv

> <s_m_subgroupid>
dock_pv

> <b_m_subgroup_collapsed>
1

$$$$
CHEMBL4581_lig92
                    3D
 Schrodinger Suite 2021-1.
 64 67  0  0  1  0            999 V2000
   22.7174   14.2543  105.9783 C   0  0  0  0  0  0
   22.7179   15.4104  105.2124 C   0  0  0  0  0  0
   21.7040   16.3473  105.3588 C   0  0  0  0  0  0
   20.6741   16.1122  106.2635 C   0  0  0  0  0  0
   20.6640   14.9467  107.0498 C   0  0  0  0  0  0
   21.6984   14.0031  106.8945 C   0  0  0  0  0  0
   21.7725   12.8793  107.6469 F   0  0  0  0  0  0
   21.7074   17.4718  104.6096 F   0  0  0  0  0  0
   19.5713   14.7461  108.0087 C   0  0  0  0  0  0
   19.6455   14.1195  109.1071 N   0  0  0  0  0  0
   18.4505   14.1407  109.7573 N   0  0  0  0  0  0
   17.3669   14.7284  108.9165 C   0  0  2  0  0  0
   18.2062   15.3117  107.7681 C   0  0  0  0  0  0
   16.5894   15.8806  109.6192 C   0  0  0  0  0  0
   15.1900   15.9785  109.5762 C   0  0  0  0  0  0
   14.5364   17.0609  110.1598 C   0  0  0  0  0  0
   15.2726   18.0468  110.8079 C   0  0  0  0  0  0
   16.6594   17.9637  110.8743 C   0  0  0  0  0  0
   17.3113   16.8858  110.2850 C   0  0  0  0  0  0
   18.4285   13.8955  111.0954 C   0  0  0  0  0  0
   17.4897   13.0060  111.4695 N   0  0  0  0  0  0
   19.2638   14.3606  111.8757 O   0  0  0  0  0  0
   17.4709   12.2467  112.7243 C   0  0  0  0  0  0
   16.4609   13.5403  108.4071 C   0  0  0  0  0  0
   17.5074   13.0708  114.0253 C   0  0  0  0  0  0
   15.5988   13.7682  107.1288 C   0  0  0  0  0  0
   16.1175   13.0188  105.8761 C   0  0  0  0  0  0
   15.2261   13.1328  104.6263 C   0  0  0  0  0  0
   15.2191   14.4651  104.0214 N   0  0  0  0  0  0
   15.9472   14.8371  102.9503 C   0  0  0  0  0  0
   15.7288   16.1955  102.5291 C   0  0  0  0  0  0
   16.7173   14.0962  102.3354 O   0  0  0  0  0  0
   15.7805   16.6343  101.2869 N   0  0  0  0  0  0
   15.4936   17.2359  103.4017 N   0  0  0  0  0  0
   15.3340   18.3620  102.6446 C   0  0  0  0  0  0
   15.5181   17.9302  101.3437 C   0  0  0  0  0  0
   23.5234   13.5598  105.8558 H   0  0  0  0  0  0
   23.5163   15.5620  104.5089 H   0  0  0  0  0  0
   19.9060   16.8665  106.3523 H   0  0  0  0  0  0
   17.8514   15.0373  106.7803 H   0  0  0  0  0  0
   18.2507   16.4015  107.7972 H   0  0  0  0  0  0
   14.5844   15.2366  109.0808 H   0  0  0  0  0  0
   13.4601   17.1346  110.1112 H   0  0  0  0  0  0
   14.7672   18.8854  111.2639 H   0  0  0  0  0  0
   17.2265   18.7355  111.3762 H   0  0  0  0  0  0
   18.3906   16.8410  110.3337 H   0  0  0  0  0  0
   16.8575   12.6763  110.7578 H   0  0  0  0  0  0
   16.5790   11.6191  112.7263 H   0  0  0  0  0  0
   18.3181   11.5617  112.7151 H   0  0  0  0  0  0
   15.8006   13.2289  109.2175 H   0  0  0  0  0  0
   17.0828   12.6575  108.2369 H   0  0  0  0  0  0
   17.3701   12.4222  114.8919 H   0  0  0  0  0  0
   18.4710   13.5622  114.1610 H   0  0  0  0  0  0
   16.7259   13.8273  114.0557 H   0  0  0  0  0  0
   15.5014   14.8333  106.9127 H   0  0  0  0  0  0
   14.5863   13.4179  107.3344 H   0  0  0  0  0  0
   16.2243   11.9619  106.1179 H   0  0  0  0  0  0
   17.1197   13.3420  105.6127 H   0  0  0  0  0  0
   14.1944   12.9109  104.9055 H   0  0  0  0  0  0
   15.4979   12.3623  103.9042 H   0  0  0  0  0  0
   14.5175   15.1028  104.3637 H   0  0  0  0  0  0
   15.4303   17.1725  104.4088 H   0  0  0  0  0  0
   15.1180   19.3270  103.0829 H   0  0  0  0  0  0
   15.4769   18.5445  100.4554 H   0  0  0  0  0  0
  1  6  1  0  0  0
  1  2  2  0  0  0
  1 37  1  0  0  0
  2  3  1  0  0  0
  2 38  1  0  0  0
  3  4  2  0  0  0
  3  8  1  0  0  0
  4  5  1  0  0  0
  4 39  1  0  0  0
  5  9  1  0  0  0
  5  6  2  0  0  0
  6  7  1  0  0  0
  9 10  2  0  0  0
  9 13  1  0  0  0
 10 11  1  0  0  0
 11 20  1  0  0  0
 11 12  1  0  0  0
 12 24  1  0  0  0
 12 13  1  0  0  0
 12 14  1  0  0  0
 13 40  1  0  0  0
 13 41  1  0  0  0
 14 19  1  0  0  0
 14 15  2  0  0  0
 15 16  1  0  0  0
 15 42  1  0  0  0
 16 17  2  0  0  0
 16 43  1  0  0  0
 17 18  1  0  0  0
 17 44  1  0  0  0
 18 19  2  0  0  0
 18 45  1  0  0  0
 19 46  1  0  0  0
 20 21  1  0  0  0
 20 22  2  0  0  0
 21 23  1  0  0  0
 21 47  1  0  0  0
 23 25  1  0  0  0
 23 48  1  0  0  0
 23 49  1  0  0  0
 24 26  1  0  0  0
 24 50  1  0  0  0
 24 51  1  0  0  0
 25 52  1  0  0  0
 25 53  1  0  0  0
 25 54  1  0  0  0
 26 27  1  0  0  0
 26 55  1  0  0  0
 26 56  1  0  0  0
 27 28  1  0  0  0
 27 57  1  0  0  0
 27 58  1  0  0  0
 28 29  1  0  0  0
 28 59  1  0  0  0
 28 60  1  0  0  0
 29 30  1  0  0  0
 29 61  1  0  0  0
 30 31  1  0  0  0
 30 32  2  0  0  0
 31 33  2  0  0  0
 31 34  1  0  0  0
 33 36  1  0  0  0
 34 35  1  0  0  0
 34 62  1  0  0  0
 35 36  2  0  0  0
 35 63  1  0  0  0
 36 64  1  0  0  0
M  END
> <s_m_entry_id>
122

> <s_m_entry_name>
dock_pv.121

> <s_m_Source_Path>
/home/csk/Desktop/cluster/DUD-E-result/kif11

> <s_m_Source_File>
dock_pv.maegz

> <i_m_Source_File_Index>
121

> <chembl_id>
CHEMBL209310

> <chembl_pref_name>
None

> <i_lp_mmshare_version>
53161

> <i_f3d_flags>
0

> <r_lp_tautomer_probability>
0.499999999999999

> <s_lp_Force_Field>
OPLS_2005

> <r_lp_Energy>
36.783403

> <b_lp_Chiralities_Consistent>
1

> <s_lp_Variant>
CHEMBL4581_lig92-1

> <s_i_glide_gridfile>
glide-grid_3cjo

> <i_i_glide_lignum>
150

> <i_i_glide_rotatable_bonds>
12

> <r_i_docking_score>
-8.48706122138901

> <r_i_glide_ligand_efficiency>
-0.235751700594139

> <r_i_glide_ligand_efficiency_sa>
-0.77843496323519

> <r_i_glide_ligand_efficiency_ln>
-1.85164746461105

> <r_i_glide_gscore>
-8.48706122138901

> <r_i_glide_lipo>
-3.60590938999007

> <r_i_glide_hbond>
-0.32

> <r_i_glide_metal>
0

> <r_i_glide_rewards>
-1.74742330708489

> <r_i_glide_evdw>
-54.6714744567871

> <r_i_glide_ecoul>
-5.98234558105469

> <r_i_glide_erotb>
0.833277185377532

> <r_i_glide_esite>
-0.0160801496940233

> <r_i_glide_emodel>
-83.9092463923837

> <r_i_glide_energy>
-60.6538200378418

> <r_i_glide_einternal>
16.535400390625

> <i_i_glide_confnum>
20

> <i_i_glide_posenum>
204

> <r_i_glide_eff_state_penalty>
0

> <s_user_duplicate_titles>
CHEMBL4581_lig92,348316

> <s_m_subgroup_title>
dock_pv

> <s_m_subgroupid>
dock_pv

> <b_m_subgroup_collapsed>
1

$$$$
CHEMBL4581_lig103
                    3D
 Schrodinger Suite 2021-1.
 51 53  0  0  1  0            999 V2000
   22.6947   14.2292  106.0916 C   0  0  0  0  0  0
   22.6959   15.3720  105.3000 C   0  0  0  0  0  0
   21.6272   16.2575  105.3599 C   0  0  0  0  0  0
   20.5537   15.9941  106.2068 C   0  0  0  0  0  0
   20.5464   14.8513  107.0246 C   0  0  0  0  0  0
   21.6365   13.9620  106.9579 C   0  0  0  0  0  0
   21.7165   12.8620  107.7458 F   0  0  0  0  0  0
   21.6224   17.3633  104.5849 F   0  0  0  0  0  0
   19.4119   14.6096  107.9283 C   0  0  0  0  0  0
   19.4522   13.9576  109.0132 N   0  0  0  0  0  0
   18.2543   13.9872  109.6592 N   0  0  0  0  0  0
   17.2279   14.7535  108.8925 C   0  0  2  0  0  0
   18.0289   15.0937  107.6185 C   0  0  0  0  0  0
   16.8223   16.0556  109.6550 C   0  0  0  0  0  0
   17.7971   17.0389  109.9024 C   0  0  0  0  0  0
   17.4742   18.2248  110.5513 C   0  0  0  0  0  0
   16.1641   18.4447  110.9586 C   0  0  0  0  0  0
   15.1878   17.4746  110.7592 C   0  0  0  0  0  0
   15.5182   16.2816  110.1218 C   0  0  0  0  0  0
   18.2626   13.7874  111.0046 C   0  0  0  0  0  0
   17.3093   12.9409  111.4360 N   0  0  0  0  0  0
   19.1257   14.2610  111.7503 O   0  0  0  0  0  0
   17.2854   12.2512  112.7329 C   0  0  0  0  0  0
   16.0269   13.8122  108.4899 C   0  0  0  0  0  0
   17.5118   13.1139  113.9922 C   0  0  0  0  0  0
   15.0259   14.3889  107.4390 C   0  0  0  0  0  0
   13.9501   13.4124  106.9248 C   0  0  0  0  0  0
   14.5134   12.3638  106.1588 O   0  0  0  0  0  0
   23.5226   13.5500  106.0339 H   0  0  0  0  0  0
   23.5178   15.5612  104.6302 H   0  0  0  0  0  0
   19.7481   16.7123  106.2279 H   0  0  0  0  0  0
   17.6909   14.5602  106.7289 H   0  0  0  0  0  0
   17.9981   16.1593  107.3938 H   0  0  0  0  0  0
   18.8189   16.8902  109.5869 H   0  0  0  0  0  0
   18.2359   18.9709  110.7280 H   0  0  0  0  0  0
   15.9082   19.3683  111.4570 H   0  0  0  0  0  0
   14.1781   17.6473  111.0990 H   0  0  0  0  0  0
   14.7397   15.5475  110.0030 H   0  0  0  0  0  0
   16.6546   12.5966  110.7490 H   0  0  0  0  0  0
   16.3350   11.7191  112.8207 H   0  0  0  0  0  0
   18.0643   11.4907  112.7036 H   0  0  0  0  0  0
   16.4410   12.8853  108.0850 H   0  0  0  0  0  0
   15.4757   13.5020  109.3786 H   0  0  0  0  0  0
   17.2762   12.5475  114.8949 H   0  0  0  0  0  0
   18.5540   13.4191  114.0880 H   0  0  0  0  0  0
   16.8990   14.0138  113.9960 H   0  0  0  0  0  0
   14.5114   15.2537  107.8542 H   0  0  0  0  0  0
   15.5489   14.7839  106.5701 H   0  0  0  0  0  0
   13.4120   12.9652  107.7588 H   0  0  0  0  0  0
   13.2117   13.9441  106.3233 H   0  0  0  0  0  0
   14.9415   11.7223  106.7469 H   0  0  0  0  0  0
  1  2  2  0  0  0
  1  6  1  0  0  0
  1 29  1  0  0  0
  2  3  1  0  0  0
  2 30  1  0  0  0
  3  4  2  0  0  0
  3  8  1  0  0  0
  4  5  1  0  0  0
  4 31  1  0  0  0
  5  9  1  0  0  0
  5  6  2  0  0  0
  6  7  1  0  0  0
  9 10  2  0  0  0
  9 13  1  0  0  0
 10 11  1  0  0  0
 11 20  1  0  0  0
 11 12  1  0  0  0
 12 14  1  0  0  0
 12 24  1  0  0  0
 12 13  1  0  0  0
 13 32  1  0  0  0
 13 33  1  0  0  0
 14 15  2  0  0  0
 14 19  1  0  0  0
 15 16  1  0  0  0
 15 34  1  0  0  0
 16 17  2  0  0  0
 16 35  1  0  0  0
 17 18  1  0  0  0
 17 36  1  0  0  0
 18 19  2  0  0  0
 18 37  1  0  0  0
 19 38  1  0  0  0
 20 21  1  0  0  0
 20 22  2  0  0  0
 21 23  1  0  0  0
 21 39  1  0  0  0
 23 25  1  0  0  0
 23 40  1  0  0  0
 23 41  1  0  0  0
 24 26  1  0  0  0
 24 42  1  0  0  0
 24 43  1  0  0  0
 25 44  1  0  0  0
 25 45  1  0  0  0
 25 46  1  0  0  0
 26 27  1  0  0  0
 26 47  1  0  0  0
 26 48  1  0  0  0
 27 28  1  0  0  0
 27 49  1  0  0  0
 27 50  1  0  0  0
 28 51  1  0  0  0
M  END
> <s_m_entry_id>
123

> <s_m_entry_name>
dock_pv.122

> <s_m_Source_Path>
/home/csk/Desktop/cluster/DUD-E-result/kif11

> <s_m_Source_File>
dock_pv.maegz

> <i_m_Source_File_Index>
122

> <chembl_id>
CHEMBL383759

> <chembl_pref_name>
None

> <i_lp_mmshare_version>
53161

> <i_f3d_flags>
0

> <r_lp_tautomer_probability>
1

> <s_lp_Force_Field>
OPLS_2005

> <r_lp_Energy>
35.1878

> <b_lp_Chiralities_Consistent>
1

> <s_lp_Variant>
CHEMBL4581_lig103-1

> <s_i_glide_gridfile>
glide-grid_3cjo

> <i_i_glide_lignum>
174

> <i_i_glide_rotatable_bonds>
9

> <r_i_docking_score>
-8.46814430991805

> <r_i_glide_ligand_efficiency>
-0.302433725354216

> <r_i_glide_ligand_efficiency_sa>
-0.918366914113823

> <r_i_glide_ligand_efficiency_ln>
-1.95469634224991

> <r_i_glide_gscore>
-8.46814430991805

> <r_i_glide_lipo>
-3.57049339856449

> <r_i_glide_hbond>
-0.32

> <r_i_glide_metal>
0

> <r_i_glide_rewards>
-2.36483699154125

> <r_i_glide_evdw>
-43.57421875

> <r_i_glide_ecoul>
-6.28189659118652

> <r_i_glide_erotb>
0.908181506365669

> <r_i_glide_esite>
0

> <r_i_glide_emodel>
-72.2851614307632

> <r_i_glide_energy>
-49.8561153411865

> <r_i_glide_einternal>
5.69132232666016

> <i_i_glide_confnum>
6

> <i_i_glide_posenum>
107

> <r_i_glide_eff_state_penalty>
0

> <s_user_duplicate_titles>
CHEMBL4581_lig103

> <s_m_subgroup_title>
dock_pv

> <s_m_subgroupid>
dock_pv

> <b_m_subgroup_collapsed>
1

$$$$
CHEMBL4581_lig579
                    3D
 Schrodinger Suite 2021-1.
 38 41  0  0  1  0            999 V2000
   18.2198   13.7947  109.7514 C   0  0  2  0  0  0
   19.5721   13.5871  109.1875 N   0  0  0  0  0  0
   19.4465   15.6111  107.8095 C   0  0  0  0  0  0
   20.0629   14.3931  108.1353 C   0  0  0  0  0  0
   21.1326   13.9411  107.3592 C   0  0  0  0  0  0
   21.6221   14.7059  106.2991 C   0  0  0  0  0  0
   21.0555   15.9481  106.0182 C   0  0  0  0  0  0
   19.9529   16.3748  106.7557 C   0  0  0  0  0  0
   17.7646   15.1886  109.5576 N   0  0  0  0  0  0
   18.3045   16.0589  108.6439 C   0  0  0  0  0  0
   17.5666   17.2207  108.7720 C   0  0  0  0  0  0
   16.5976   16.9604  109.7458 C   0  0  0  0  0  0
   16.7180   15.7340  110.2077 N   0  0  0  0  0  0
   15.5081   17.8688  110.2660 C   0  0  0  0  0  0
   18.1222   13.3579  111.2134 C   0  0  0  0  0  0
   17.2178   12.3613  111.5958 C   0  0  0  0  0  0
   17.1174   11.9808  112.9343 C   0  0  0  0  0  0
   17.9283   12.5807  113.8973 C   0  0  0  0  0  0
   18.8414   13.5621  113.5197 C   0  0  0  0  0  0
   18.9209   13.9684  112.1926 C   0  0  0  0  0  0
   19.7767   14.9597  111.8663 F   0  0  0  0  0  0
   21.6206   16.8311  104.9190 C   0  0  0  0  0  0
   17.5471   13.1539  109.1791 H   0  0  0  0  0  0
   19.9333   12.6556  109.3296 H   0  0  0  0  0  0
   21.6005   12.9897  107.5717 H   0  0  0  0  0  0
   22.4544   14.3442  105.7133 H   0  0  0  0  0  0
   19.5173   17.3350  106.5262 H   0  0  0  0  0  0
   17.7041   18.1414  108.2262 H   0  0  0  0  0  0
   15.5445   18.8520  109.7968 H   0  0  0  0  0  0
   14.5166   17.4615  110.0660 H   0  0  0  0  0  0
   15.5882   18.0288  111.3418 H   0  0  0  0  0  0
   16.5822   11.8814  110.8628 H   0  0  0  0  0  0
   16.3993   11.2254  113.2267 H   0  0  0  0  0  0
   17.8540   12.2860  114.9346 H   0  0  0  0  0  0
   19.4952   14.0146  114.2502 H   0  0  0  0  0  0
   20.8334   17.4228  104.4474 H   0  0  0  0  0  0
   22.3688   17.5169  105.3173 H   0  0  0  0  0  0
   22.0857   16.2357  104.1343 H   0  0  0  0  0  0
  1  2  1  0  0  0
  1 15  1  0  0  0
  1  9  1  0  0  0
  1 23  1  0  0  0
  2  4  1  0  0  0
  2 24  1  0  0  0
  3 10  1  0  0  0
  3  8  1  0  0  0
  3  4  2  0  0  0
  4  5  1  0  0  0
  5  6  2  0  0  0
  5 25  1  0  0  0
  6  7  1  0  0  0
  6 26  1  0  0  0
  7  8  2  0  0  0
  7 22  1  0  0  0
  8 27  1  0  0  0
  9 13  1  0  0  0
  9 10  1  0  0  0
 10 11  2  0  0  0
 11 12  1  0  0  0
 11 28  1  0  0  0
 12 13  2  0  0  0
 12 14  1  0  0  0
 14 29  1  0  0  0
 14 30  1  0  0  0
 14 31  1  0  0  0
 15 16  2  0  0  0
 15 20  1  0  0  0
 16 17  1  0  0  0
 16 32  1  0  0  0
 17 18  2  0  0  0
 17 33  1  0  0  0
 18 19  1  0  0  0
 18 34  1  0  0  0
 19 20  2  0  0  0
 19 35  1  0  0  0
 20 21  1  0  0  0
 22 36  1  0  0  0
 22 37  1  0  0  0
 22 38  1  0  0  0
M  END
> <s_m_entry_id>
124

> <s_m_entry_name>
dock_pv.123

> <s_m_Source_Path>
/home/csk/Desktop/cluster/DUD-E-result/kif11

> <s_m_Source_File>
dock_pv.maegz

> <i_m_Source_File_Index>
123

> <chembl_id>
CHEMBL2031568

> <chembl_pref_name>
None

> <i_lp_mmshare_version>
53161

> <i_f3d_flags>
0

> <r_lp_tautomer_probability>
1

> <s_lp_Force_Field>
OPLS_2005

> <r_lp_Energy>
19.901609

> <b_lp_Chiralities_Consistent>
1

> <s_lp_Variant>
CHEMBL4581_lig579-2

> <s_i_glide_gridfile>
glide-grid_3cjo

> <i_i_glide_lignum>
889

> <i_i_glide_rotatable_bonds>
1

> <r_i_docking_score>
-8.46651059318496

> <r_i_glide_ligand_efficiency>
-0.384841390599317

> <r_i_glide_ligand_efficiency_sa>
-1.07834071141233

> <r_i_glide_ligand_efficiency_ln>
-2.06952401245185

> <r_i_glide_gscore>
-8.46651059318496

> <r_i_glide_lipo>
-4.41138410238657

> <r_i_glide_hbond>
0

> <r_i_glide_metal>
0

> <r_i_glide_rewards>
-2.07365463860973

> <r_i_glide_evdw>
-36.0451011657715

> <r_i_glide_ecoul>
-2.61037755012512

> <r_i_glide_erotb>
0.212339838618679

> <r_i_glide_esite>
0

> <r_i_glide_emodel>
-57.8838632250678

> <r_i_glide_energy>
-38.6554787158966

> <r_i_glide_einternal>
0.0552129074931145

> <i_i_glide_confnum>
1

> <i_i_glide_posenum>
31

> <r_i_glide_eff_state_penalty>
0

> <s_user_duplicate_titles>
CHEMBL4581_lig579

> <s_m_subgroup_title>
dock_pv

> <s_m_subgroupid>
dock_pv

> <b_m_subgroup_collapsed>
1

$$$$
CHEMBL4581_lig306
                    3D
 Schrodinger Suite 2021-1.
 52 55  0  0  1  0            999 V2000
   18.7180   16.1773  109.3401 N   0  0  0  0  0  0
   17.6777   14.3562  108.5567 C   0  0  0  0  0  0
   18.2431   15.5556  108.2167 C   0  0  0  0  0  0
   18.3921   16.0848  106.8040 C   0  0  2  0  0  0
   17.3208   15.4782  105.9338 N   0  0  0  0  0  0
   16.4045   14.4090  106.4387 C   0  0  0  0  0  0
   17.0948   13.4875  107.4744 C   0  0  0  0  0  0
   18.5481   15.3603  110.4304 C   0  0  0  0  0  0
   17.8531   14.2003  109.9699 C   0  0  0  0  0  0
   17.5128   13.2065  110.8957 C   0  0  0  0  0  0
   17.8659   13.3785  112.2336 C   0  0  0  0  0  0
   18.5863   14.5090  112.6393 C   0  0  0  0  0  0
   18.9394   15.5241  111.7587 C   0  0  0  0  0  0
   19.8532   15.9328  106.3395 C   0  0  0  0  0  0
   20.4900   16.9448  105.6128 C   0  0  0  0  0  0
   21.7996   16.7805  105.1559 C   0  0  0  0  0  0
   22.4960   15.6038  105.4281 C   0  0  0  0  0  0
   21.8723   14.5965  106.1593 C   0  0  0  0  0  0
   20.5666   14.7612  106.6067 C   0  0  0  0  0  0
   17.1412   15.9589  104.6661 C   0  0  0  0  0  0
   17.9176   16.7616  104.1504 O   0  0  0  0  0  0
   15.8799   15.6246  103.8299 C   0  0  0  0  0  0
   16.1869   15.2285  102.3691 C   0  0  0  0  0  0
   16.7180   13.8812  102.2884 N   0  0  0  0  0  0
   22.5338   13.4446  106.4699 O   0  0  0  0  0  0
   17.4521   12.2994  113.2199 C   0  0  0  0  0  0
   17.5170   12.7191  114.6913 C   0  0  0  0  0  0
   19.1738   17.0768  109.3054 H   0  0  0  0  0  0
   18.1719   17.1377  106.9579 H   0  0  0  0  0  0
   16.1609   13.7085  105.6408 H   0  0  0  0  0  0
   15.4919   14.8443  106.8523 H   0  0  0  0  0  0
   17.8700   12.8884  106.9943 H   0  0  0  0  0  0
   16.3696   12.7802  107.8784 H   0  0  0  0  0  0
   16.9879   12.3210  110.5708 H   0  0  0  0  0  0
   18.8831   14.6320  113.6704 H   0  0  0  0  0  0
   19.4797   16.3967  112.0936 H   0  0  0  0  0  0
   19.9653   17.8618  105.3926 H   0  0  0  0  0  0
   22.2744   17.5616  104.5802 H   0  0  0  0  0  0
   23.5077   15.4820  105.0758 H   0  0  0  0  0  0
   20.1066   13.9615  107.1634 H   0  0  0  0  0  0
   15.2978   16.5458  103.8094 H   0  0  0  0  0  0
   15.2078   14.9003  104.2796 H   0  0  0  0  0  0
   16.8922   15.9270  101.9151 H   0  0  0  0  0  0
   15.2779   15.2809  101.7707 H   0  0  0  0  0  0
   17.4759   13.7547  102.9593 H   0  0  0  0  0  0
   16.0058   13.2297  102.5808 H   0  0  0  0  0  0
   23.3729   13.3713  106.0127 H   0  0  0  0  0  0
   18.1075   11.4482  113.0491 H   0  0  0  0  0  0
   16.4358   11.9716  112.9911 H   0  0  0  0  0  0
   17.1187   11.9619  115.3588 H   0  0  0  0  0  0
   18.5598   12.8856  114.9594 H   0  0  0  0  0  0
   16.9565   13.6341  114.8772 H   0  0  0  0  0  0
  1  8  1  0  0  0
  1  3  1  0  0  0
  1 28  1  0  0  0
  2  9  1  0  0  0
  2  3  2  0  0  0
  2  7  1  0  0  0
  3  4  1  0  0  0
  4  5  1  0  0  0
  4 14  1  0  0  0
  4 29  1  0  0  0
  5  6  1  0  0  0
  5 20  1  0  0  0
  6  7  1  0  0  0
  6 30  1  0  0  0
  6 31  1  0  0  0
  7 32  1  0  0  0
  7 33  1  0  0  0
  8 13  1  0  0  0
  8  9  2  0  0  0
  9 10  1  0  0  0
 10 11  2  0  0  0
 10 34  1  0  0  0
 11 12  1  0  0  0
 11 26  1  0  0  0
 12 13  2  0  0  0
 12 35  1  0  0  0
 13 36  1  0  0  0
 14 15  2  0  0  0
 14 19  1  0  0  0
 15 16  1  0  0  0
 15 37  1  0  0  0
 16 17  2  0  0  0
 16 38  1  0  0  0
 17 18  1  0  0  0
 17 39  1  0  0  0
 18 19  2  0  0  0
 18 25  1  0  0  0
 19 40  1  0  0  0
 20 21  2  0  0  0
 20 22  1  0  0  0
 22 23  1  0  0  0
 22 41  1  0  0  0
 22 42  1  0  0  0
 23 24  1  0  0  0
 23 43  1  0  0  0
 23 44  1  0  0  0
 24 45  1  0  0  0
 24 46  1  0  0  0
 25 47  1  0  0  0
 26 27  1  0  0  0
 26 48  1  0  0  0
 26 49  1  0  0  0
 27 50  1  0  0  0
 27 51  1  0  0  0
 27 52  1  0  0  0
M  END
> <s_m_entry_id>
125

> <s_m_entry_name>
dock_pv.124

> <s_m_Source_Path>
/home/csk/Desktop/cluster/DUD-E-result/kif11

> <s_m_Source_File>
dock_pv.maegz

> <i_m_Source_File_Index>
124

> <chembl_id>
CHEMBL590124

> <chembl_pref_name>
None

> <i_lp_mmshare_version>
53161

> <i_f3d_flags>
0

> <r_lp_tautomer_probability>
0.999999999997365

> <s_lp_Force_Field>
OPLS_2005

> <r_lp_Energy>
27.945859

> <b_lp_Chiralities_Consistent>
1

> <s_lp_Variant>
CHEMBL4581_lig306-1

> <s_i_glide_gridfile>
glide-grid_3cjo

> <i_i_glide_lignum>
450

> <i_i_glide_rotatable_bonds>
6

> <r_i_docking_score>
-8.46615364110776

> <r_i_glide_ligand_efficiency>
-0.313561245966954

> <r_i_glide_ligand_efficiency_sa>
-0.940683736867415

> <r_i_glide_ligand_efficiency_ln>
-1.9707809921987

> <r_i_glide_gscore>
-8.46615364110776

> <r_i_glide_lipo>
-4.35499700979243

> <r_i_glide_hbond>
-0.443940810524196

> <r_i_glide_metal>
0

> <r_i_glide_rewards>
-1.07677997517851

> <r_i_glide_evdw>
-40.3305625915527

> <r_i_glide_ecoul>
-6.71333026885986

> <r_i_glide_erotb>
0.436348823940907

> <r_i_glide_esite>
-0.00325699964690542

> <r_i_glide_emodel>
-67.7310720088812

> <r_i_glide_energy>
-47.0438928604126

> <r_i_glide_einternal>
4.51956462860107

> <i_i_glide_confnum>
4

> <i_i_glide_posenum>
314

> <r_i_glide_eff_state_penalty>
0

> <s_user_duplicate_titles>
CHEMBL4581_lig306,590998

> <s_m_subgroup_title>
dock_pv

> <s_m_subgroupid>
dock_pv

> <b_m_subgroup_collapsed>
1

$$$$
CHEMBL4581_lig874
                    3D
 Schrodinger Suite 2021-1.
 52 54  0  0  1  0            999 V2000
   17.5939   14.4329  109.4865 C   0  0  0  0  0  0
   16.9958   15.8502  109.7452 C   0  0  0  0  0  0
   18.8865   14.4149  108.6052 C   0  0  0  0  0  0
   15.6826   15.9603  110.2321 C   0  0  0  0  0  0
   15.0945   17.2000  110.4601 C   0  0  0  0  0  0
   15.8280   18.3565  110.2310 C   0  0  0  0  0  0
   17.1405   18.2682  109.7755 C   0  0  0  0  0  0
   17.7253   17.0304  109.5446 C   0  0  0  0  0  0
   18.9648   15.1825  107.4302 C   0  0  0  0  0  0
   20.0924   15.1552  106.6186 C   0  0  0  0  0  0
   21.1801   14.3597  106.9706 C   0  0  0  0  0  0
   21.1171   13.5721  108.1280 C   0  0  0  0  0  0
   19.9823   13.5968  108.9335 C   0  0  0  0  0  0
   17.8933   13.8915  110.9198 C   0  0  0  0  0  0
   18.7947   14.6000  111.7376 C   0  0  0  0  0  0
   19.0557   14.1937  113.0429 C   0  0  0  0  0  0
   18.4117   13.0725  113.5539 C   0  0  0  0  0  0
   17.5261   12.3517  112.7604 C   0  0  0  0  0  0
   17.2801   12.7423  111.4452 C   0  0  0  0  0  0
   16.5250   13.5603  108.7004 C   0  0  0  0  0  0
   15.9536   14.1844  107.3891 C   0  0  0  0  0  0
   14.5558   13.6985  106.9686 C   0  0  0  0  0  0
   14.6460   12.5030  106.1572 N   0  0  0  0  0  0
   22.4405   14.3029  106.1128 C   0  0  0  0  0  0
   22.8557   15.6283  105.4628 C   0  0  0  0  0  0
   15.1214   15.0735  110.4682 H   0  0  0  0  0  0
   14.0686   17.2600  110.8014 H   0  0  0  0  0  0
   15.3842   19.3263  110.4052 H   0  0  0  0  0  0
   17.7060   19.1602  109.5967 H   0  0  0  0  0  0
   18.7536   17.0156  109.2223 H   0  0  0  0  0  0
   18.1408   15.8130  107.1294 H   0  0  0  0  0  0
   20.1099   15.7484  105.7149 H   0  0  0  0  0  0
   21.9440   12.9291  108.3957 H   0  0  0  0  0  0
   19.9646   12.9464  109.7948 H   0  0  0  0  0  0
   19.2936   15.4800  111.3569 H   0  0  0  0  0  0
   19.7529   14.7442  113.6591 H   0  0  0  0  0  0
   18.6045   12.7556  114.5699 H   0  0  0  0  0  0
   17.0189   11.4892  113.1673 H   0  0  0  0  0  0
   16.5956   12.1404  110.8664 H   0  0  0  0  0  0
   16.9442   12.5780  108.4670 H   0  0  0  0  0  0
   15.6735   13.3430  109.3435 H   0  0  0  0  0  0
   15.8588   15.2614  107.5064 H   0  0  0  0  0  0
   16.6570   14.0522  106.5648 H   0  0  0  0  0  0
   13.9173   13.5273  107.8385 H   0  0  0  0  0  0
   14.0626   14.4649  106.3667 H   0  0  0  0  0  0
   15.1003   11.7566  106.6887 H   0  0  0  0  0  0
   13.7203   12.1618  105.9416 H   0  0  0  0  0  0
   23.2760   13.9909  106.7354 H   0  0  0  0  0  0
   22.3275   13.5271  105.3557 H   0  0  0  0  0  0
   23.8599   15.5201  105.0558 H   0  0  0  0  0  0
   22.1883   15.9138  104.6479 H   0  0  0  0  0  0
   22.8824   16.4432  106.1878 H   0  0  0  0  0  0
  1  2  1  0  0  0
  1  3  1  0  0  0
  1 14  1  0  0  0
  1 20  1  0  0  0
  2  4  2  0  0  0
  2  8  1  0  0  0
  3  9  2  0  0  0
  3 13  1  0  0  0
  4  5  1  0  0  0
  4 26  1  0  0  0
  5  6  2  0  0  0
  5 27  1  0  0  0
  6  7  1  0  0  0
  6 28  1  0  0  0
  7  8  2  0  0  0
  7 29  1  0  0  0
  8 30  1  0  0  0
  9 10  1  0  0  0
  9 31  1  0  0  0
 10 11  2  0  0  0
 10 32  1  0  0  0
 11 12  1  0  0  0
 11 24  1  0  0  0
 12 13  2  0  0  0
 12 33  1  0  0  0
 13 34  1  0  0  0
 14 15  2  0  0  0
 14 19  1  0  0  0
 15 16  1  0  0  0
 15 35  1  0  0  0
 16 17  2  0  0  0
 16 36  1  0  0  0
 17 18  1  0  0  0
 17 37  1  0  0  0
 18 19  2  0  0  0
 18 38  1  0  0  0
 19 39  1  0  0  0
 20 21  1  0  0  0
 20 40  1  0  0  0
 20 41  1  0  0  0
 21 22  1  0  0  0
 21 42  1  0  0  0
 21 43  1  0  0  0
 22 23  1  0  0  0
 22 44  1  0  0  0
 22 45  1  0  0  0
 23 46  1  0  0  0
 23 47  1  0  0  0
 24 25  1  0  0  0
 24 48  1  0  0  0
 24 49  1  0  0  0
 25 50  1  0  0  0
 25 51  1  0  0  0
 25 52  1  0  0  0
M  END
> <s_m_entry_id>
126

> <s_m_entry_name>
dock_pv.125

> <s_m_Source_Path>
/home/csk/Desktop/cluster/DUD-E-result/kif11

> <s_m_Source_File>
dock_pv.maegz

> <i_m_Source_File_Index>
125

> <chembl_id>
CHEMBL2325434

> <chembl_pref_name>
None

> <i_lp_mmshare_version>
53161

> <i_f3d_flags>
0

> <r_lp_tautomer_probability>
1

> <s_lp_Force_Field>
OPLS_2005

> <r_lp_Energy>
29.458571

> <b_lp_Chiralities_Consistent>
1

> <s_lp_Variant>
CHEMBL4581_lig874-1

> <s_i_glide_gridfile>
glide-grid_3cjo

> <i_i_glide_lignum>
1265

> <i_i_glide_rotatable_bonds>
7

> <r_i_docking_score>
-8.45641018903945

> <r_i_glide_ligand_efficiency>
-0.338256407561578

> <r_i_glide_ligand_efficiency_sa>
-0.989067734712985

> <r_i_glide_ligand_efficiency_ln>
-2.00442263296612

> <r_i_glide_gscore>
-8.45641018903945

> <r_i_glide_lipo>
-5.16199903996752

> <r_i_glide_hbond>
-0.32

> <r_i_glide_metal>
0

> <r_i_glide_rewards>
-1.29080052231418

> <r_i_glide_evdw>
-39.0212783813477

> <r_i_glide_ecoul>
-3.98833274841309

> <r_i_glide_erotb>
0.8657032045716

> <r_i_glide_esite>
0

> <r_i_glide_emodel>
-58.4635336787263

> <r_i_glide_energy>
-43.0096111297607

> <r_i_glide_einternal>
12.9383888244629

> <i_i_glide_confnum>
90

> <i_i_glide_posenum>
245

> <r_i_glide_eff_state_penalty>
0

> <s_user_duplicate_titles>
CHEMBL4581_lig874

> <s_m_subgroup_title>
dock_pv

> <s_m_subgroupid>
dock_pv

> <b_m_subgroup_collapsed>
1

$$$$
CHEMBL4581_lig35
                    3D
 Schrodinger Suite 2021-1.
 36 38  0  0  1  0            999 V2000
   17.7557   15.6974  109.5390 N   0  0  0  0  0  0
   18.7176   16.0555  108.6464 N   0  0  0  0  0  0
   19.3612   15.0385  108.2347 C   0  0  0  0  0  0
   17.7479   14.2468  109.7742 C   0  0  1  0  0  0
   18.8782   13.7646  108.8838 C   0  0  0  0  0  0
   16.7949   16.5656  109.9500 C   0  0  0  0  0  0
   20.4503   15.0608  107.2381 C   0  0  0  0  0  0
   17.9103   13.8231  111.2372 C   0  0  0  0  0  0
   15.7886   16.2003  110.5593 O   0  0  0  0  0  0
   20.6606   16.1882  106.4257 C   0  0  0  0  0  0
   21.6961   16.2047  105.4886 C   0  0  0  0  0  0
   21.9131   17.5620  104.4501 Cl  0  0  0  0  0  0
   16.9690   18.0638  109.6706 C   0  0  0  0  0  0
   21.3094   13.9620  107.0906 C   0  0  0  0  0  0
   22.3479   13.9872  106.1591 C   0  0  0  0  0  0
   18.8724   14.4333  112.0494 C   0  0  0  0  0  0
   17.1258   12.7815  111.7439 C   0  0  0  0  0  0
   22.5433   15.1086  105.3610 C   0  0  0  0  0  0
   17.2987   12.3618  113.0580 C   0  0  0  0  0  0
   19.0501   14.0023  113.3588 C   0  0  0  0  0  0
   18.2604   12.9704  113.8593 C   0  0  0  0  0  0
   16.7826   13.8777  109.4180 H   0  0  0  0  0  0
   19.6796   13.2911  109.4543 H   0  0  0  0  0  0
   18.4906   13.0575  108.1556 H   0  0  0  0  0  0
   20.0198   17.0548  106.5105 H   0  0  0  0  0  0
   17.1057   18.2462  108.6039 H   0  0  0  0  0  0
   16.0947   18.6228  110.0035 H   0  0  0  0  0  0
   17.8407   18.4475  110.2035 H   0  0  0  0  0  0
   21.1966   13.0795  107.7023 H   0  0  0  0  0  0
   22.9994   13.1354  106.0526 H   0  0  0  0  0  0
   19.4918   15.2282  111.6601 H   0  0  0  0  0  0
   16.3867   12.2923  111.1240 H   0  0  0  0  0  0
   23.3374   15.1170  104.6291 H   0  0  0  0  0  0
   16.6867   11.5626  113.4525 H   0  0  0  0  0  0
   19.7993   14.4658  113.9833 H   0  0  0  0  0  0
   18.3940   12.6391  114.8802 H   0  0  0  0  0  0
  1  2  1  0  0  0
  1  4  1  0  0  0
  1  6  1  0  0  0
  2  3  2  0  0  0
  3  7  1  0  0  0
  3  5  1  0  0  0
  4  5  1  0  0  0
  4  8  1  0  0  0
  4 22  1  0  0  0
  5 23  1  0  0  0
  5 24  1  0  0  0
  6  9  2  0  0  0
  6 13  1  0  0  0
  7 10  1  0  0  0
  7 14  2  0  0  0
  8 16  1  0  0  0
  8 17  2  0  0  0
 10 11  2  0  0  0
 10 25  1  0  0  0
 11 12  1  0  0  0
 11 18  1  0  0  0
 13 26  1  0  0  0
 13 27  1  0  0  0
 13 28  1  0  0  0
 14 15  1  0  0  0
 14 29  1  0  0  0
 15 18  2  0  0  0
 15 30  1  0  0  0
 16 20  2  0  0  0
 16 31  1  0  0  0
 17 19  1  0  0  0
 17 32  1  0  0  0
 18 33  1  0  0  0
 19 21  2  0  0  0
 19 34  1  0  0  0
 20 21  1  0  0  0
 20 35  1  0  0  0
 21 36  1  0  0  0
M  END
> <s_m_entry_id>
127

> <s_m_entry_name>
dock_pv.126

> <s_m_Source_Path>
/home/csk/Desktop/cluster/DUD-E-result/kif11

> <s_m_Source_File>
dock_pv.maegz

> <i_m_Source_File_Index>
126

> <chembl_id>
CHEMBL380814

> <chembl_pref_name>
None

> <i_lp_mmshare_version>
53161

> <i_f3d_flags>
0

> <r_lp_tautomer_probability>
1

> <s_lp_Force_Field>
OPLS_2005

> <r_lp_Energy>
21.925007

> <b_lp_Chiralities_Consistent>
1

> <s_lp_Variant>
CHEMBL4581_lig35-2

> <s_i_glide_gridfile>
glide-grid_3cjo

> <i_i_glide_lignum>
55

> <i_i_glide_rotatable_bonds>
3

> <r_i_docking_score>
-8.4512821182331

> <r_i_glide_ligand_efficiency>
-0.402442005630148

> <r_i_glide_ligand_efficiency_sa>
-1.11030697779754

> <r_i_glide_ligand_efficiency_ln>
-2.08956242630963

> <r_i_glide_gscore>
-8.4512821182331

> <r_i_glide_lipo>
-4.49316812578869

> <r_i_glide_hbond>
0

> <r_i_glide_metal>
0

> <r_i_glide_rewards>
-2.1267868868726

> <r_i_glide_evdw>
-41.0198593139648

> <r_i_glide_ecoul>
-1.27747762203217

> <r_i_glide_erotb>
0.411287503431251

> <r_i_glide_esite>
0

> <r_i_glide_emodel>
-63.7774336666318

> <r_i_glide_energy>
-42.297336935997

> <r_i_glide_einternal>
0.530268609523773

> <i_i_glide_confnum>
1

> <i_i_glide_posenum>
259

> <r_i_glide_eff_state_penalty>
0

> <s_user_duplicate_titles>
CHEMBL4581_lig35

> <s_m_subgroup_title>
dock_pv

> <s_m_subgroupid>
dock_pv

> <b_m_subgroup_collapsed>
1

$$$$
CHEMBL4581_lig789
                    3D
 Schrodinger Suite 2021-1.
 56 58  0  0  1  0            999 V2000
   16.0116   13.1918  105.3987 C   0  0  2  0  0  0
   14.4843   13.2936  105.6526 C   0  0  0  0  0  0
   13.7613   14.1263  105.1042 O   0  0  0  0  0  0
   16.8439   14.0591  106.3642 C   0  0  0  0  0  0
   16.3180   13.5615  103.9999 N   0  0  0  0  0  0
   16.8554   13.4006  108.0597 S   0  0  0  0  0  0
   17.8946   14.5456  109.0918 C   0  0  0  0  0  0
   17.1953   15.9255  109.2843 C   0  0  0  0  0  0
   17.9586   17.0769  109.5343 C   0  0  0  0  0  0
   17.3486   18.2990  109.7950 C   0  0  0  0  0  0
   15.9604   18.3996  109.7930 C   0  0  0  0  0  0
   15.1831   17.2743  109.5254 C   0  0  0  0  0  0
   15.7950   16.0476  109.2813 C   0  0  0  0  0  0
   18.0515   13.9679  110.5346 C   0  0  0  0  0  0
   18.9676   14.5706  111.4120 C   0  0  0  0  0  0
   19.1180   14.1167  112.7182 C   0  0  0  0  0  0
   18.3753   13.0236  113.1584 C   0  0  0  0  0  0
   17.4686   12.4032  112.3072 C   0  0  0  0  0  0
   17.3009   12.8757  111.0113 C   0  0  0  0  0  0
   19.2505   14.5990  108.3203 C   0  0  0  0  0  0
   19.4770   15.5439  107.3045 C   0  0  0  0  0  0
   20.5922   15.4507  106.4767 C   0  0  0  0  0  0
   21.5181   14.4285  106.6777 C   0  0  0  0  0  0
   21.3764   13.5620  107.7583 C   0  0  0  0  0  0
   20.2459   13.6408  108.5649 C   0  0  0  0  0  0
   14.0547   12.3622  106.5568 O   0  0  0  0  0  0
   22.7067   14.2599  105.7509 C   0  0  0  0  0  0
   15.3024   19.7373  110.0736 C   0  0  0  0  0  0
   18.5564   12.4889  114.5586 C   0  0  0  0  0  0
   16.2993   12.1479  105.5412 H   0  0  0  0  0  0
   16.5064   15.0964  106.3697 H   0  0  0  0  0  0
   17.8696   14.0556  106.0028 H   0  0  0  0  0  0
   17.3087   13.3495  103.8497 H   0  0  0  0  0  0
   15.8027   12.9804  103.3565 H   0  0  0  0  0  0
   19.0367   17.0295  109.5595 H   0  0  0  0  0  0
   17.9596   19.1615  110.0137 H   0  0  0  0  0  0
   14.1050   17.3424  109.5207 H   0  0  0  0  0  0
   15.1610   15.1910  109.1141 H   0  0  0  0  0  0
   19.5677   15.4065  111.0865 H   0  0  0  0  0  0
   19.8282   14.5993  113.3735 H   0  0  0  0  0  0
   16.8798   11.5621  112.6455 H   0  0  0  0  0  0
   16.5712   12.3631  110.4054 H   0  0  0  0  0  0
   18.7414   16.3036  107.0847 H   0  0  0  0  0  0
   20.7140   16.1504  105.6622 H   0  0  0  0  0  0
   22.1062   12.7859  107.9356 H   0  0  0  0  0  0
   20.1174   12.9009  109.3416 H   0  0  0  0  0  0
   14.7472   11.7798  106.9004 H   0  0  0  0  0  0
   23.6410   14.3872  106.2955 H   0  0  0  0  0  0
   22.7179   13.2456  105.3588 H   0  0  0  0  0  0
   22.6834   14.9492  104.9092 H   0  0  0  0  0  0
   15.2859   19.9399  111.1451 H   0  0  0  0  0  0
   15.8521   20.5437  109.5860 H   0  0  0  0  0  0
   14.2832   19.7715  109.6878 H   0  0  0  0  0  0
   17.5880   12.3078  115.0269 H   0  0  0  0  0  0
   19.1180   11.5620  114.5335 H   0  0  0  0  0  0
   19.1178   13.1623  115.1921 H   0  0  0  0  0  0
  1  5  1  0  0  0
  1  2  1  0  0  0
  1  4  1  0  0  0
  1 30  1  0  0  0
  2  3  2  0  0  0
  2 26  1  0  0  0
  4  6  1  0  0  0
  4 31  1  0  0  0
  4 32  1  0  0  0
  5 33  1  0  0  0
  5 34  1  0  0  0
  6  7  1  0  0  0
  7  8  1  0  0  0
  7 14  1  0  0  0
  7 20  1  0  0  0
  8  9  2  0  0  0
  8 13  1  0  0  0
  9 10  1  0  0  0
  9 35  1  0  0  0
 10 11  2  0  0  0
 10 36  1  0  0  0
 11 12  1  0  0  0
 11 28  1  0  0  0
 12 13  2  0  0  0
 12 37  1  0  0  0
 13 38  1  0  0  0
 14 15  2  0  0  0
 14 19  1  0  0  0
 15 16  1  0  0  0
 15 39  1  0  0  0
 16 17  2  0  0  0
 16 40  1  0  0  0
 17 18  1  0  0  0
 17 29  1  0  0  0
 18 19  2  0  0  0
 18 41  1  0  0  0
 19 42  1  0  0  0
 20 21  2  0  0  0
 20 25  1  0  0  0
 21 22  1  0  0  0
 21 43  1  0  0  0
 22 23  2  0  0  0
 22 44  1  0  0  0
 23 24  1  0  0  0
 23 27  1  0  0  0
 24 25  2  0  0  0
 24 45  1  0  0  0
 25 46  1  0  0  0
 26 47  1  0  0  0
 27 48  1  0  0  0
 27 49  1  0  0  0
 27 50  1  0  0  0
 28 51  1  0  0  0
 28 52  1  0  0  0
 28 53  1  0  0  0
 29 54  1  0  0  0
 29 55  1  0  0  0
 29 56  1  0  0  0
M  END
> <s_m_entry_id>
128

> <s_m_entry_name>
dock_pv.127

> <s_m_Source_Path>
/home/csk/Desktop/cluster/DUD-E-result/kif11

> <s_m_Source_File>
dock_pv.maegz

> <i_m_Source_File_Index>
127

> <chembl_id>
CHEMBL410695

> <chembl_pref_name>
None

> <i_lp_mmshare_version>
53161

> <i_f3d_flags>
0

> <r_lp_tautomer_probability>
1

> <s_lp_Force_Field>
OPLS_2005

> <r_lp_Energy>
22.844353

> <b_lp_Chiralities_Consistent>
1

> <s_lp_Variant>
CHEMBL4581_lig789-1

> <s_i_glide_gridfile>
glide-grid_3cjo

> <i_i_glide_lignum>
1172

> <i_i_glide_rotatable_bonds>
8

> <r_i_docking_score>
-8.44435166293602

> <r_i_glide_ligand_efficiency>
-0.291184540101242

> <r_i_glide_ligand_efficiency_sa>
-0.894611160928502

> <r_i_glide_ligand_efficiency_ln>
-1.93354240052984

> <r_i_glide_gscore>
-8.44435166293602

> <r_i_glide_lipo>
-4.87148137039658

> <r_i_glide_hbond>
-0.152

> <r_i_glide_metal>
0

> <r_i_glide_rewards>
-0.75228756060606

> <r_i_glide_evdw>
-43.2725677490234

> <r_i_glide_ecoul>
-8.91551494598389

> <r_i_glide_erotb>
0.836467517661182

> <r_i_glide_esite>
-0.00409462024580805

> <r_i_glide_emodel>
-76.2162074518648

> <r_i_glide_energy>
-52.1880826950073

> <r_i_glide_einternal>
2.8493447303772

> <i_i_glide_confnum>
176

> <i_i_glide_posenum>
391

> <r_i_glide_eff_state_penalty>
0

> <s_user_duplicate_titles>
CHEMBL4581_lig789

> <s_m_subgroup_title>
dock_pv

> <s_m_subgroupid>
dock_pv

> <b_m_subgroup_collapsed>
1

$$$$
CHEMBL4581_lig263
                    3D
 Schrodinger Suite 2021-1.
 26 27  0  0  1  0            999 V2000
   20.7180   14.2024  107.8437 C   0  0  0  0  0  0
   20.2427   15.4001  107.2903 C   0  0  0  0  0  0
   19.1178   16.0110  107.8602 C   0  0  0  0  0  0
   18.5260   15.4746  109.0036 C   0  0  0  0  0  0
   19.0378   14.3109  109.5812 C   0  0  0  0  0  0
   20.1129   13.6649  108.9735 C   0  0  0  0  0  0
   18.5318   13.8144  110.8722 C   0  0  0  0  0  0
   19.1180   14.2923  112.0444 C   0  0  0  0  0  0
   18.7212   13.7937  113.2768 C   0  0  0  0  0  0
   17.7155   12.8353  113.3433 C   0  0  0  0  0  0
   17.1180   12.3614  112.1782 C   0  0  0  0  0  0
   17.5248   12.8487  110.9392 C   0  0  0  0  0  0
   20.9540   16.0596  106.1118 C   0  0  0  0  0  0
   20.0965   16.7368  105.3466 F   0  0  0  0  0  0
   21.5746   15.1600  105.3582 F   0  0  0  0  0  0
   21.8741   16.9081  106.5589 F   0  0  0  0  0  0
   17.3002   12.3629  114.5573 O   0  0  0  0  0  0
   21.7926   13.5618  107.3271 F   0  0  0  0  0  0
   18.7333   16.9356  107.4532 H   0  0  0  0  0  0
   17.6948   15.9886  109.4647 H   0  0  0  0  0  0
   20.5138   12.7626  109.4084 H   0  0  0  0  0  0
   19.9037   15.0331  111.9966 H   0  0  0  0  0  0
   19.2113   14.1605  114.1593 H   0  0  0  0  0  0
   16.3208   11.6305  112.2377 H   0  0  0  0  0  0
   17.0710   12.4657  110.0358 H   0  0  0  0  0  0
   17.9120   12.5448  115.2771 H   0  0  0  0  0  0
  1  6  1  0  0  0
  1  2  2  0  0  0
  1 18  1  0  0  0
  2  3  1  0  0  0
  2 13  1  0  0  0
  3  4  2  0  0  0
  3 19  1  0  0  0
  4  5  1  0  0  0
  4 20  1  0  0  0
  5  6  2  0  0  0
  5  7  1  0  0  0
  6 21  1  0  0  0
  7 12  1  0  0  0
  7  8  2  0  0  0
  8  9  1  0  0  0
  8 22  1  0  0  0
  9 10  2  0  0  0
  9 23  1  0  0  0
 10 11  1  0  0  0
 10 17  1  0  0  0
 11 12  2  0  0  0
 11 24  1  0  0  0
 12 25  1  0  0  0
 13 14  1  0  0  0
 13 15  1  0  0  0
 13 16  1  0  0  0
 17 26  1  0  0  0
M  END
> <s_m_entry_id>
129

> <s_m_entry_name>
dock_pv.128

> <s_m_Source_Path>
/home/csk/Desktop/cluster/DUD-E-result/kif11

> <s_m_Source_File>
dock_pv.maegz

> <i_m_Source_File_Index>
128

> <chembl_id>
CHEMBL469517

> <chembl_pref_name>
None

> <i_lp_mmshare_version>
53161

> <i_f3d_flags>
0

> <r_lp_tautomer_probability>
0.999999999997365

> <s_lp_Force_Field>
OPLS_2005

> <r_lp_Energy>
14.182051

> <b_lp_Chiralities_Consistent>
1

> <s_lp_Variant>
CHEMBL4581_lig263-1

> <s_i_glide_gridfile>
glide-grid_3cjo

> <i_i_glide_lignum>
388

> <i_i_glide_rotatable_bonds>
3

> <r_i_docking_score>
-8.44384516593381

> <r_i_glide_ligand_efficiency>
-0.469102509218545

> <r_i_glide_ligand_efficiency_sa>
-1.22939636285183

> <r_i_glide_ligand_efficiency_ln>
-2.17044685994227

> <r_i_glide_gscore>
-8.44384516593381

> <r_i_glide_lipo>
-3.56647368301698

> <r_i_glide_hbond>
-0.258553163477915

> <r_i_glide_metal>
0

> <r_i_glide_rewards>
-3.08255888931899

> <r_i_glide_evdw>
-30.8291244506836

> <r_i_glide_ecoul>
-1.75519597530365

> <r_i_glide_erotb>
0.268476188709806

> <r_i_glide_esite>
0

> <r_i_glide_emodel>
-45.2292566570267

> <r_i_glide_energy>
-32.5843204259872

> <r_i_glide_einternal>
5.6729531288147

> <i_i_glide_confnum>
2

> <i_i_glide_posenum>
382

> <r_i_glide_eff_state_penalty>
0

> <s_user_duplicate_titles>
CHEMBL4581_lig263

> <s_m_subgroup_title>
dock_pv

> <s_m_subgroupid>
dock_pv

> <b_m_subgroup_collapsed>
1

$$$$
CHEMBL4581_lig88
                    3D
 Schrodinger Suite 2021-1.
 56 59  0  0  1  0            999 V2000
   22.5402   14.1646  105.9747 C   0  0  0  0  0  0
   22.6928   15.2148  105.0755 C   0  0  0  0  0  0
   21.8129   16.2962  105.1204 C   0  0  0  0  0  0
   20.7791   16.3120  106.0531 C   0  0  0  0  0  0
   20.6205   15.2636  106.9730 C   0  0  0  0  0  0
   21.5193   14.1804  106.9226 C   0  0  0  0  0  0
   21.4903   13.1616  107.8152 F   0  0  0  0  0  0
   21.9211   17.3105  104.2360 F   0  0  0  0  0  0
   19.5619   15.3474  107.9936 C   0  0  0  0  0  0
   19.5223   14.6862  109.0773 N   0  0  0  0  0  0
   18.4974   15.0939  109.8650 N   0  0  0  0  0  0
   17.5925   16.0355  109.1525 C   0  0  1  0  0  0
   18.4196   16.3183  107.8889 C   0  0  0  0  0  0
   16.2505   15.3169  108.8246 C   0  0  0  0  0  0
   15.0174   15.7703  109.3233 C   0  0  0  0  0  0
   13.8278   15.1444  108.9579 C   0  0  0  0  0  0
   13.8570   14.0416  108.1099 C   0  0  0  0  0  0
   15.0681   13.5619  107.6231 C   0  0  0  0  0  0
   16.2553   14.1901  107.9842 C   0  0  0  0  0  0
   18.6836   15.0602  111.2123 C   0  0  0  0  0  0
   17.9097   14.1873  111.9107 N   0  0  0  0  0  0
   19.5128   15.7983  111.7595 O   0  0  0  0  0  0
   17.3952   17.3890  109.9292 C   0  0  0  0  0  0
   16.7102   18.5278  109.1349 C   0  0  0  0  0  0
   15.8004   19.3852  110.0211 C   0  0  0  0  0  0
   15.5147   20.6417  109.3585 N   0  0  0  0  0  0
   17.1166   13.1076  111.2898 C   0  0  0  0  0  0
   17.3822   11.9451  112.2400 C   0  0  0  0  0  0
   17.5361   12.5793  113.6046 C   0  0  0  0  0  0
   18.2373   13.9028  113.3191 C   0  0  0  0  0  0
   23.2030   13.3185  105.9401 H   0  0  0  0  0  0
   23.4767   15.1626  104.3347 H   0  0  0  0  0  0
   20.1217   17.1693  106.0538 H   0  0  0  0  0  0
   17.8537   16.1726  106.9676 H   0  0  0  0  0  0
   18.8159   17.3331  107.8811 H   0  0  0  0  0  0
   14.9445   16.6170  109.9845 H   0  0  0  0  0  0
   12.8832   15.5125  109.3347 H   0  0  0  0  0  0
   12.9330   13.5554  107.8293 H   0  0  0  0  0  0
   15.0897   12.7041  106.9664 H   0  0  0  0  0  0
   17.1840   13.7984  107.5928 H   0  0  0  0  0  0
   16.8572   17.1966  110.8590 H   0  0  0  0  0  0
   18.3641   17.7679  110.2637 H   0  0  0  0  0  0
   17.4862   19.1510  108.6843 H   0  0  0  0  0  0
   16.1276   18.1355  108.3006 H   0  0  0  0  0  0
   14.8655   18.8676  110.2352 H   0  0  0  0  0  0
   16.2920   19.5507  110.9814 H   0  0  0  0  0  0
   14.8901   20.4936  108.5794 H   0  0  0  0  0  0
   15.0481   21.2746  109.9950 H   0  0  0  0  0  0
   16.0480   13.3175  111.3442 H   0  0  0  0  0  0
   17.4545   12.8002  110.2977 H   0  0  0  0  0  0
   16.6134   11.1709  112.1993 H   0  0  0  0  0  0
   18.3160   11.4600  111.9602 H   0  0  0  0  0  0
   18.0951   11.9622  114.3106 H   0  0  0  0  0  0
   16.5549   12.7573  114.0458 H   0  0  0  0  0  0
   19.3096   13.7500  113.4610 H   0  0  0  0  0  0
   17.8367   14.6656  113.9858 H   0  0  0  0  0  0
  1  6  1  0  0  0
  1  2  2  0  0  0
  1 31  1  0  0  0
  2  3  1  0  0  0
  2 32  1  0  0  0
  3  4  2  0  0  0
  3  8  1  0  0  0
  4  5  1  0  0  0
  4 33  1  0  0  0
  5  9  1  0  0  0
  5  6  2  0  0  0
  6  7  1  0  0  0
  9 10  2  0  0  0
  9 13  1  0  0  0
 10 11  1  0  0  0
 11 20  1  0  0  0
 11 12  1  0  0  0
 12 23  1  0  0  0
 12 13  1  0  0  0
 12 14  1  0  0  0
 13 34  1  0  0  0
 13 35  1  0  0  0
 14 15  2  0  0  0
 14 19  1  0  0  0
 15 16  1  0  0  0
 15 36  1  0  0  0
 16 17  2  0  0  0
 16 37  1  0  0  0
 17 18  1  0  0  0
 17 38  1  0  0  0
 18 19  2  0  0  0
 18 39  1  0  0  0
 19 40  1  0  0  0
 20 21  1  0  0  0
 20 22  2  0  0  0
 21 27  1  0  0  0
 21 30  1  0  0  0
 23 24  1  0  0  0
 23 41  1  0  0  0
 23 42  1  0  0  0
 24 25  1  0  0  0
 24 43  1  0  0  0
 24 44  1  0  0  0
 25 26  1  0  0  0
 25 45  1  0  0  0
 25 46  1  0  0  0
 26 47  1  0  0  0
 26 48  1  0  0  0
 27 28  1  0  0  0
 27 49  1  0  0  0
 27 50  1  0  0  0
 28 29  1  0  0  0
 28 51  1  0  0  0
 28 52  1  0  0  0
 29 30  1  0  0  0
 29 53  1  0  0  0
 29 54  1  0  0  0
 30 55  1  0  0  0
 30 56  1  0  0  0
M  END
> <s_m_entry_id>
130

> <s_m_entry_name>
dock_pv.129

> <s_m_Source_Path>
/home/csk/Desktop/cluster/DUD-E-result/kif11

> <s_m_Source_File>
dock_pv.maegz

> <i_m_Source_File_Index>
129

> <chembl_id>
CHEMBL382790

> <chembl_pref_name>
None

> <i_lp_mmshare_version>
53161

> <i_f3d_flags>
0

> <r_lp_tautomer_probability>
1

> <s_lp_Force_Field>
OPLS_2005

> <r_lp_Energy>
70.277011

> <b_lp_Chiralities_Consistent>
1

> <s_lp_Variant>
CHEMBL4581_lig88-2

> <s_i_glide_gridfile>
glide-grid_3cjo

> <i_i_glide_lignum>
141

> <i_i_glide_rotatable_bonds>
7

> <r_i_docking_score>
-8.4388355607388

> <r_i_glide_ligand_efficiency>
-0.281294518691293

> <r_i_glide_ligand_efficiency_sa>
-0.874047471233296

> <r_i_glide_ligand_efficiency_ln>
-1.91739538787778

> <r_i_glide_gscore>
-8.4388355607388

> <r_i_glide_lipo>
-4.18700075160756

> <r_i_glide_hbond>
0

> <r_i_glide_metal>
0

> <r_i_glide_rewards>
-2.44675764090909

> <r_i_glide_evdw>
-42.7021751403809

> <r_i_glide_ecoul>
-2.43590998649597

> <r_i_glide_erotb>
0.69541808677129

> <r_i_glide_esite>
0

> <r_i_glide_emodel>
-65.1565849858238

> <r_i_glide_energy>
-45.1380851268768

> <r_i_glide_einternal>
8.80479431152344

> <i_i_glide_confnum>
105

> <i_i_glide_posenum>
191

> <r_i_glide_eff_state_penalty>
0

> <s_user_duplicate_titles>
CHEMBL4581_lig88

> <s_m_subgroup_title>
dock_pv

> <s_m_subgroupid>
dock_pv

> <b_m_subgroup_collapsed>
1

$$$$
CHEMBL4581_lig55
                    3D
 Schrodinger Suite 2021-1.
 46 48  0  0  1  0            999 V2000
   22.5398   15.4702  105.3591 C   0  0  0  0  0  0
   21.5239   16.3899  105.5921 C   0  0  0  0  0  0
   20.5069   16.0886  106.4963 C   0  0  0  0  0  0
   20.4822   14.8618  107.1802 C   0  0  0  0  0  0
   21.5453   13.9621  106.9602 C   0  0  0  0  0  0
   22.5567   14.2672  106.0517 C   0  0  0  0  0  0
   19.3258   14.5514  108.0599 C   0  0  0  0  0  0
   18.0030   15.2819  107.9939 C   0  0  0  0  0  0
   17.1077   14.5972  108.9197 N   0  0  0  0  0  0
   17.8452   13.4752  109.5247 C   0  0  1  0  0  0
   19.2431   13.5612  108.9590 C   0  0  0  0  0  0
   17.8396   13.4233  111.0521 C   0  0  0  0  0  0
   17.1223   12.4143  111.6998 C   0  0  0  0  0  0
   17.1542   12.3251  113.0881 C   0  0  0  0  0  0
   17.9232   13.2211  113.8219 C   0  0  0  0  0  0
   18.6466   14.2238  113.1838 C   0  0  0  0  0  0
   18.5967   14.3336  111.7993 C   0  0  0  0  0  0
   15.7585   14.7634  109.0657 C   0  0  0  0  0  0
   15.1256   13.9604  109.7586 O   0  0  0  0  0  0
   21.6567   12.8007  107.6444 F   0  0  0  0  0  0
   21.5126   17.5620  104.9229 F   0  0  0  0  0  0
   14.9393   15.9964  108.5226 C   0  0  0  0  0  0
   15.5762   16.8722  107.4114 C   0  0  0  0  0  0
   14.6641   16.9229  109.7338 C   0  0  0  0  0  0
   13.5763   15.4938  107.9670 C   0  0  0  0  0  0
   23.3105   15.6735  104.6369 H   0  0  0  0  0  0
   19.7284   16.8231  106.6395 H   0  0  0  0  0  0
   23.3523   13.5624  105.8768 H   0  0  0  0  0  0
   18.1403   16.3201  108.2951 H   0  0  0  0  0  0
   17.6077   15.2698  106.9787 H   0  0  0  0  0  0
   17.3943   12.5472  109.1659 H   0  0  0  0  0  0
   19.9941   12.8379  109.2332 H   0  0  0  0  0  0
   16.5367   11.7044  111.1320 H   0  0  0  0  0  0
   16.5841   11.5583  113.5912 H   0  0  0  0  0  0
   17.9526   13.1413  114.8988 H   0  0  0  0  0  0
   19.2440   14.9153  113.7588 H   0  0  0  0  0  0
   19.1619   15.1098  111.3037 H   0  0  0  0  0  0
   15.8311   16.2926  106.5233 H   0  0  0  0  0  0
   14.8752   17.6386  107.0738 H   0  0  0  0  0  0
   16.4519   17.4236  107.7524 H   0  0  0  0  0  0
   14.1972   16.3833  110.5592 H   0  0  0  0  0  0
   15.5841   17.3674  110.1225 H   0  0  0  0  0  0
   13.9961   17.7444  109.4697 H   0  0  0  0  0  0
   13.0120   14.9101  108.6985 H   0  0  0  0  0  0
   12.9309   16.3248  107.6766 H   0  0  0  0  0  0
   13.7094   14.8672  107.0823 H   0  0  0  0  0  0
  1  6  1  0  0  0
  1  2  2  0  0  0
  1 26  1  0  0  0
  2 21  1  0  0  0
  2  3  1  0  0  0
  3  4  2  0  0  0
  3 27  1  0  0  0
  4  5  1  0  0  0
  4  7  1  0  0  0
  5  6  2  0  0  0
  5 20  1  0  0  0
  6 28  1  0  0  0
  7  8  1  0  0  0
  7 11  2  0  0  0
  8  9  1  0  0  0
  8 29  1  0  0  0
  8 30  1  0  0  0
  9 10  1  0  0  0
  9 18  1  0  0  0
 10 11  1  0  0  0
 10 12  1  0  0  0
 10 31  1  0  0  0
 11 32  1  0  0  0
 12 13  2  0  0  0
 12 17  1  0  0  0
 13 14  1  0  0  0
 13 33  1  0  0  0
 14 15  2  0  0  0
 14 34  1  0  0  0
 15 16  1  0  0  0
 15 35  1  0  0  0
 16 17  2  0  0  0
 16 36  1  0  0  0
 17 37  1  0  0  0
 18 19  2  0  0  0
 18 22  1  0  0  0
 22 23  1  0  0  0
 22 24  1  0  0  0
 22 25  1  0  0  0
 23 38  1  0  0  0
 23 39  1  0  0  0
 23 40  1  0  0  0
 24 41  1  0  0  0
 24 42  1  0  0  0
 24 43  1  0  0  0
 25 44  1  0  0  0
 25 45  1  0  0  0
 25 46  1  0  0  0
M  END
> <s_m_entry_id>
131

> <s_m_entry_name>
dock_pv.130

> <s_m_Source_Path>
/home/csk/Desktop/cluster/DUD-E-result/kif11

> <s_m_Source_File>
dock_pv.maegz

> <i_m_Source_File_Index>
130

> <chembl_id>
CHEMBL414860

> <chembl_pref_name>
None

> <i_lp_mmshare_version>
53161

> <i_f3d_flags>
0

> <r_lp_tautomer_probability>
1

> <s_lp_Force_Field>
OPLS_2005

> <r_lp_Energy>
40.01787

> <b_lp_Chiralities_Consistent>
1

> <s_lp_Variant>
CHEMBL4581_lig55-2

> <s_i_glide_gridfile>
glide-grid_3cjo

> <i_i_glide_lignum>
84

> <i_i_glide_rotatable_bonds>
4

> <r_i_docking_score>
-8.42317234626731

> <r_i_glide_ligand_efficiency>
-0.336926893850693

> <r_i_glide_ligand_efficiency_sa>
-0.985180213043331

> <r_i_glide_ligand_efficiency_ln>
-1.99654426817136

> <r_i_glide_gscore>
-8.42317234626731

> <r_i_glide_lipo>
-4.48783197868873

> <r_i_glide_hbond>
0

> <r_i_glide_metal>
0

> <r_i_glide_rewards>
-2.16569832763828

> <r_i_glide_evdw>
-38.4871368408203

> <r_i_glide_ecoul>
-2.22028684616089

> <r_i_glide_erotb>
0.48775782902484

> <r_i_glide_esite>
0

> <r_i_glide_emodel>
-59.273011119551

> <r_i_glide_energy>
-40.7074236869812

> <r_i_glide_einternal>
2.95435929298401

> <i_i_glide_confnum>
2

> <i_i_glide_posenum>
396

> <r_i_glide_eff_state_penalty>
0

> <s_user_duplicate_titles>
CHEMBL4581_lig55,343094

> <s_m_subgroup_title>
dock_pv

> <s_m_subgroupid>
dock_pv

> <b_m_subgroup_collapsed>
1

$$$$
CHEMBL4581_lig100
                    3D
 Schrodinger Suite 2021-1.
 52 54  0  0  1  0            999 V2000
   22.6856   14.2378  106.1463 C   0  0  0  0  0  0
   22.6918   15.3749  105.3495 C   0  0  0  0  0  0
   21.6188   16.2568  105.3810 C   0  0  0  0  0  0
   20.5303   15.9926  106.2069 C   0  0  0  0  0  0
   20.5134   14.8487  107.0241 C   0  0  0  0  0  0
   21.6050   13.9621  106.9747 C   0  0  0  0  0  0
   21.6745   12.8592  107.7583 F   0  0  0  0  0  0
   21.6262   17.3583  104.5992 F   0  0  0  0  0  0
   19.3743   14.6064  107.9156 C   0  0  0  0  0  0
   19.4110   13.9464  108.9944 N   0  0  0  0  0  0
   18.2179   13.9825  109.6427 N   0  0  0  0  0  0
   17.1979   14.7603  108.8806 C   0  0  2  0  0  0
   17.9962   15.0963  107.6050 C   0  0  0  0  0  0
   16.8045   16.0653  109.6436 C   0  0  0  0  0  0
   17.7867   17.0396  109.8980 C   0  0  0  0  0  0
   17.4712   18.2253  110.5501 C   0  0  0  0  0  0
   16.1619   18.4513  110.9572 C   0  0  0  0  0  0
   15.1759   17.4918  110.7466 C   0  0  0  0  0  0
   15.4999   16.3028  110.1001 C   0  0  0  0  0  0
   18.2454   13.8046  110.9914 C   0  0  0  0  0  0
   17.3604   12.8917  111.4345 N   0  0  0  0  0  0
   19.0722   14.3505  111.7287 O   0  0  0  0  0  0
   17.4269   12.1913  112.7234 C   0  0  0  0  0  0
   15.9870   13.8296  108.4792 C   0  0  0  0  0  0
   17.5102   13.0614  113.9921 C   0  0  0  0  0  0
   15.0010   14.4128  107.4190 C   0  0  0  0  0  0
   13.8515   13.4866  106.9794 C   0  0  0  0  0  0
   14.3179   12.3787  106.1589 N   0  0  0  0  0  0
   23.5180   13.5615  106.1093 H   0  0  0  0  0  0
   23.5179   15.5603  104.6867 H   0  0  0  0  0  0
   19.7217   16.7071  106.2104 H   0  0  0  0  0  0
   17.6583   14.5638  106.7164 H   0  0  0  0  0  0
   17.9695   16.1606  107.3778 H   0  0  0  0  0  0
   18.8089   16.8827  109.5882 H   0  0  0  0  0  0
   18.2386   18.9670  110.7318 H   0  0  0  0  0  0
   15.9122   19.3746  111.4587 H   0  0  0  0  0  0
   14.1645   17.6703  111.0830 H   0  0  0  0  0  0
   14.7184   15.5746  109.9604 H   0  0  0  0  0  0
   16.7223   12.4998  110.7566 H   0  0  0  0  0  0
   16.5469   11.5525  112.7952 H   0  0  0  0  0  0
   18.2906   11.5274  112.6969 H   0  0  0  0  0  0
   16.3857   12.8941  108.0821 H   0  0  0  0  0  0
   15.4293   13.5302  109.3672 H   0  0  0  0  0  0
   17.4243   12.4404  114.8837 H   0  0  0  0  0  0
   18.4696   13.5702  114.0722 H   0  0  0  0  0  0
   16.7187   13.8061  114.0334 H   0  0  0  0  0  0
   14.5554   15.3304  107.7977 H   0  0  0  0  0  0
   15.5272   14.7234  106.5156 H   0  0  0  0  0  0
   13.2959   13.1250  107.8429 H   0  0  0  0  0  0
   13.1420   14.0585  106.3817 H   0  0  0  0  0  0
   14.9043   11.7505  106.7080 H   0  0  0  0  0  0
   13.5335   11.8191  105.8555 H   0  0  0  0  0  0
  1  2  2  0  0  0
  1  6  1  0  0  0
  1 29  1  0  0  0
  2  3  1  0  0  0
  2 30  1  0  0  0
  3  4  2  0  0  0
  3  8  1  0  0  0
  4  5  1  0  0  0
  4 31  1  0  0  0
  5  9  1  0  0  0
  5  6  2  0  0  0
  6  7  1  0  0  0
  9 10  2  0  0  0
  9 13  1  0  0  0
 10 11  1  0  0  0
 11 20  1  0  0  0
 11 12  1  0  0  0
 12 14  1  0  0  0
 12 24  1  0  0  0
 12 13  1  0  0  0
 13 32  1  0  0  0
 13 33  1  0  0  0
 14 15  2  0  0  0
 14 19  1  0  0  0
 15 16  1  0  0  0
 15 34  1  0  0  0
 16 17  2  0  0  0
 16 35  1  0  0  0
 17 18  1  0  0  0
 17 36  1  0  0  0
 18 19  2  0  0  0
 18 37  1  0  0  0
 19 38  1  0  0  0
 20 21  1  0  0  0
 20 22  2  0  0  0
 21 23  1  0  0  0
 21 39  1  0  0  0
 23 25  1  0  0  0
 23 40  1  0  0  0
 23 41  1  0  0  0
 24 26  1  0  0  0
 24 42  1  0  0  0
 24 43  1  0  0  0
 25 44  1  0  0  0
 25 45  1  0  0  0
 25 46  1  0  0  0
 26 27  1  0  0  0
 26 47  1  0  0  0
 26 48  1  0  0  0
 27 28  1  0  0  0
 27 49  1  0  0  0
 27 50  1  0  0  0
 28 51  1  0  0  0
 28 52  1  0  0  0
M  END
> <s_m_entry_id>
132

> <s_m_entry_name>
dock_pv.131

> <s_m_Source_Path>
/home/csk/Desktop/cluster/DUD-E-result/kif11

> <s_m_Source_File>
dock_pv.maegz

> <i_m_Source_File_Index>
131

> <chembl_id>
CHEMBL207006

> <chembl_pref_name>
None

> <i_lp_mmshare_version>
53161

> <i_f3d_flags>
0

> <r_lp_tautomer_probability>
1

> <s_lp_Force_Field>
OPLS_2005

> <r_lp_Energy>
34.15207

> <b_lp_Chiralities_Consistent>
1

> <s_lp_Variant>
CHEMBL4581_lig100-1

> <s_i_glide_gridfile>
glide-grid_3cjo

> <i_i_glide_lignum>
168

> <i_i_glide_rotatable_bonds>
8

> <r_i_docking_score>
-8.42061091309768

> <r_i_glide_ligand_efficiency>
-0.300736104039203

> <r_i_glide_ligand_efficiency_sa>
-0.913211935955959

> <r_i_glide_ligand_efficiency_ln>
-1.9437242386226

> <r_i_glide_gscore>
-8.42061091309768

> <r_i_glide_lipo>
-3.56109712168689

> <r_i_glide_hbond>
-0.32

> <r_i_glide_metal>
0

> <r_i_glide_rewards>
-2.34322051140731

> <r_i_glide_evdw>
-44.2376098632812

> <r_i_glide_ecoul>
-5.10945129394531

> <r_i_glide_erotb>
0.782004907252377

> <r_i_glide_esite>
0

> <r_i_glide_emodel>
-71.0023988663572

> <r_i_glide_energy>
-49.3470611572266

> <r_i_glide_einternal>
6.12056303024292

> <i_i_glide_confnum>
58

> <i_i_glide_posenum>
234

> <r_i_glide_eff_state_penalty>
0

> <s_user_duplicate_titles>
CHEMBL4581_lig100

> <s_m_subgroup_title>
dock_pv

> <s_m_subgroupid>
dock_pv

> <b_m_subgroup_collapsed>
1

$$$$
CHEMBL4581_lig889
                    3D
 Schrodinger Suite 2021-1.
 48 50  0  0  1  0            999 V2000
   17.8923   14.5101  109.4226 C   0  0  2  0  0  0
   19.2259   14.5218  108.6107 C   0  0  0  0  0  0
   17.2459   15.9133  109.6392 C   0  0  0  0  0  0
   19.4203   15.4289  107.5537 C   0  0  0  0  0  0
   20.5332   15.3410  106.7246 C   0  0  0  0  0  0
   21.4946   14.3617  106.9584 C   0  0  0  0  0  0
   21.3656   13.5114  108.0563 C   0  0  0  0  0  0
   20.2387   13.5835  108.8720 C   0  0  0  0  0  0
   18.0445   17.0597  109.7797 C   0  0  0  0  0  0
   17.4859   18.3076  110.0354 C   0  0  0  0  0  0
   16.1063   18.4478  110.1369 C   0  0  0  0  0  0
   15.2839   17.3287  109.9938 C   0  0  0  0  0  0
   15.8525   16.0713  109.7590 C   0  0  0  0  0  0
   18.0799   13.9305  110.8629 C   0  0  0  0  0  0
   18.9741   14.5725  111.7374 C   0  0  0  0  0  0
   19.1182   14.1545  113.0568 C   0  0  0  0  0  0
   18.3850   13.0683  113.5205 C   0  0  0  0  0  0
   17.5178   12.3957  112.6691 C   0  0  0  0  0  0
   17.3640   12.8211  111.3522 C   0  0  0  0  0  0
   16.7766   13.4248  108.4002 S   0  0  0  0  0  0
   16.5805   14.2602  106.7882 C   0  0  0  0  0  0
   15.5177   13.6711  105.8466 C   0  0  0  0  0  0
   15.9177   12.3621  105.3591 N   0  0  0  0  0  0
   22.6788   14.2237  106.0174 C   0  0  0  0  0  0
   13.8402   17.4689  110.0964 C   0  0  0  0  0  0
   12.6920   17.5763  110.1778 N   0  0  0  0  0  0
   18.6728   16.1715  107.3185 H   0  0  0  0  0  0
   20.6336   16.0188  105.8897 H   0  0  0  0  0  0
   22.1179   12.7624  108.2503 H   0  0  0  0  0  0
   20.1335   12.8637  109.6709 H   0  0  0  0  0  0
   19.1178   16.9901  109.7214 H   0  0  0  0  0  0
   18.1322   19.1607  110.1629 H   0  0  0  0  0  0
   15.6907   19.4272  110.3350 H   0  0  0  0  0  0
   15.2053   15.2086  109.6837 H   0  0  0  0  0  0
   19.5539   15.4183  111.3995 H   0  0  0  0  0  0
   19.8009   14.6705  113.7167 H   0  0  0  0  0  0
   18.4935   12.7423  114.5454 H   0  0  0  0  0  0
   16.9394   11.5616  113.0357 H   0  0  0  0  0  0
   16.6601   12.2769  110.7425 H   0  0  0  0  0  0
   16.3494   15.3096  106.9726 H   0  0  0  0  0  0
   17.5353   14.2394  106.2639 H   0  0  0  0  0  0
   14.5515   13.5990  106.3482 H   0  0  0  0  0  0
   15.3829   14.3302  104.9879 H   0  0  0  0  0  0
   16.8729   12.3993  105.0139 H   0  0  0  0  0  0
   15.9190   11.7016  106.1330 H   0  0  0  0  0  0
   23.1163   13.2263  106.0703 H   0  0  0  0  0  0
   22.3589   14.3681  104.9842 H   0  0  0  0  0  0
   23.4469   14.9656  106.2405 H   0  0  0  0  0  0
  1  2  1  0  0  0
  1  3  1  0  0  0
  1 14  1  0  0  0
  1 20  1  0  0  0
  2  4  2  0  0  0
  2  8  1  0  0  0
  3  9  2  0  0  0
  3 13  1  0  0  0
  4  5  1  0  0  0
  4 27  1  0  0  0
  5  6  2  0  0  0
  5 28  1  0  0  0
  6  7  1  0  0  0
  6 24  1  0  0  0
  7  8  2  0  0  0
  7 29  1  0  0  0
  8 30  1  0  0  0
  9 10  1  0  0  0
  9 31  1  0  0  0
 10 11  2  0  0  0
 10 32  1  0  0  0
 11 12  1  0  0  0
 11 33  1  0  0  0
 12 13  2  0  0  0
 12 25  1  0  0  0
 13 34  1  0  0  0
 14 15  2  0  0  0
 14 19  1  0  0  0
 15 16  1  0  0  0
 15 35  1  0  0  0
 16 17  2  0  0  0
 16 36  1  0  0  0
 17 18  1  0  0  0
 17 37  1  0  0  0
 18 19  2  0  0  0
 18 38  1  0  0  0
 19 39  1  0  0  0
 20 21  1  0  0  0
 21 22  1  0  0  0
 21 40  1  0  0  0
 21 41  1  0  0  0
 22 23  1  0  0  0
 22 42  1  0  0  0
 22 43  1  0  0  0
 23 44  1  0  0  0
 23 45  1  0  0  0
 24 46  1  0  0  0
 24 47  1  0  0  0
 24 48  1  0  0  0
 25 26  3  0  0  0
M  END
> <s_m_entry_id>
133

> <s_m_entry_name>
dock_pv.132

> <s_m_Source_Path>
/home/csk/Desktop/cluster/DUD-E-result/kif11

> <s_m_Source_File>
dock_pv.maegz

> <i_m_Source_File_Index>
132

> <chembl_id>
CHEMBL2325422

> <chembl_pref_name>
None

> <i_lp_mmshare_version>
53161

> <i_f3d_flags>
0

> <r_lp_tautomer_probability>
1

> <s_lp_Force_Field>
OPLS_2005

> <r_lp_Energy>
23.334804

> <b_lp_Chiralities_Consistent>
1

> <s_lp_Variant>
CHEMBL4581_lig889-2

> <s_i_glide_gridfile>
glide-grid_3cjo

> <i_i_glide_lignum>
1284

> <i_i_glide_rotatable_bonds>
6

> <r_i_docking_score>
-8.41687539958844

> <r_i_glide_ligand_efficiency>
-0.323725976907248

> <r_i_glide_ligand_efficiency_sa>
-0.959036932787512

> <r_i_glide_ligand_efficiency_ln>
-1.97667556957253

> <r_i_glide_gscore>
-8.41687539958844

> <r_i_glide_lipo>
-4.92354686482058

> <r_i_glide_hbond>
-0.364590881719991

> <r_i_glide_metal>
0

> <r_i_glide_rewards>
-1.11853008200642

> <r_i_glide_evdw>
-43.9018058776855

> <r_i_glide_ecoul>
-3.73584151268005

> <r_i_glide_erotb>
0.74525894974483

> <r_i_glide_esite>
0

> <r_i_glide_emodel>
-67.2064513169129

> <r_i_glide_energy>
-47.6376473903656

> <r_i_glide_einternal>
6.65045118331909

> <i_i_glide_confnum>
68

> <i_i_glide_posenum>
365

> <r_i_glide_eff_state_penalty>
0

> <s_user_duplicate_titles>
CHEMBL4581_lig889

> <s_m_subgroup_title>
dock_pv

> <s_m_subgroupid>
dock_pv

> <b_m_subgroup_collapsed>
1

$$$$
CHEMBL4581_lig829
                    3D
 Schrodinger Suite 2021-1.
 52 54  0  0  1  0            999 V2000
   15.6205   13.3866  105.6606 C   0  0  1  0  0  0
   15.8506   11.9629  105.3592 N   0  0  0  0  0  0
   16.6576   13.9868  106.6338 C   0  0  0  0  0  0
   16.7034   13.2076  108.2939 S   0  0  0  0  0  0
   17.4760   14.5016  109.3906 C   0  0  0  0  0  0
   18.7251   14.9304  108.5697 C   0  0  0  0  0  0
   16.4993   15.6869  109.6890 C   0  0  0  0  0  0
   17.8391   13.8985  110.7842 C   0  0  0  0  0  0
   18.7239   16.0996  107.7949 C   0  0  0  0  0  0
   19.7524   16.3619  106.8990 C   0  0  0  0  0  0
   20.8169   15.4696  106.7560 C   0  0  0  0  0  0
   20.8474   14.3241  107.5631 C   0  0  0  0  0  0
   19.8242   14.0670  108.4719 C   0  0  0  0  0  0
   17.1184   12.8264  111.3385 C   0  0  0  0  0  0
   17.3961   12.3616  112.6208 C   0  0  0  0  0  0
   18.3912   12.9696  113.3760 C   0  0  0  0  0  0
   19.1349   14.0156  112.8408 C   0  0  0  0  0  0
   18.8788   14.4575  111.5464 C   0  0  0  0  0  0
   16.9884   16.8246  110.3593 C   0  0  0  0  0  0
   16.1592   17.8997  110.6594 C   0  0  0  0  0  0
   14.8233   17.8643  110.2740 C   0  0  0  0  0  0
   14.3099   16.7523  109.6147 C   0  0  0  0  0  0
   15.1385   15.6678  109.3339 C   0  0  0  0  0  0
   15.6026   14.1653  104.3239 C   0  0  0  0  0  0
   14.6676   14.9052  104.0269 O   0  0  0  0  0  0
   16.7178   13.9635  103.5545 O   0  0  0  0  0  0
   21.8936   15.7763  105.7582 C   0  0  0  0  0  0
   21.9364   16.8183  105.1018 O   0  0  0  0  0  0
   22.9730   14.7238  105.5130 C   0  0  0  0  0  0
   14.6387   13.5032  106.1210 H   0  0  0  0  0  0
   15.9193   11.4391  106.2371 H   0  0  0  0  0  0
   15.0552   11.5682  104.8777 H   0  0  0  0  0  0
   16.4422   15.0465  106.7671 H   0  0  0  0  0  0
   17.6582   13.9169  106.2047 H   0  0  0  0  0  0
   17.8875   16.7783  107.8190 H   0  0  0  0  0  0
   19.6999   17.2586  106.2974 H   0  0  0  0  0  0
   21.6546   13.6085  107.4945 H   0  0  0  0  0  0
   19.8465   13.1494  109.0449 H   0  0  0  0  0  0
   16.3058   12.3601  110.8023 H   0  0  0  0  0  0
   16.8070   11.5608  113.0401 H   0  0  0  0  0  0
   18.5926   12.6237  114.3797 H   0  0  0  0  0  0
   19.9182   14.4773  113.4241 H   0  0  0  0  0  0
   19.4739   15.2683  111.1532 H   0  0  0  0  0  0
   18.0247   16.8886  110.6584 H   0  0  0  0  0  0
   16.5517   18.7591  111.1874 H   0  0  0  0  0  0
   14.1788   18.7021  110.4991 H   0  0  0  0  0  0
   13.2678   16.7307  109.3233 H   0  0  0  0  0  0
   14.6909   14.8214  108.8379 H   0  0  0  0  0  0
   17.3578   13.3505  103.9553 H   0  0  0  0  0  0
   22.5168   13.7459  105.3597 H   0  0  0  0  0  0
   23.6437   14.6594  106.3695 H   0  0  0  0  0  0
   23.5469   14.9639  104.6186 H   0  0  0  0  0  0
  1  3  1  0  0  0
  1 24  1  0  0  0
  1  2  1  0  0  0
  1 30  1  0  0  0
  2 31  1  0  0  0
  2 32  1  0  0  0
  3  4  1  0  0  0
  3 33  1  0  0  0
  3 34  1  0  0  0
  4  5  1  0  0  0
  5  8  1  0  0  0
  5  6  1  0  0  0
  5  7  1  0  0  0
  6  9  2  0  0  0
  6 13  1  0  0  0
  7 19  2  0  0  0
  7 23  1  0  0  0
  8 18  1  0  0  0
  8 14  2  0  0  0
  9 10  1  0  0  0
  9 35  1  0  0  0
 10 11  2  0  0  0
 10 36  1  0  0  0
 11 12  1  0  0  0
 11 27  1  0  0  0
 12 13  2  0  0  0
 12 37  1  0  0  0
 13 38  1  0  0  0
 14 15  1  0  0  0
 14 39  1  0  0  0
 15 16  2  0  0  0
 15 40  1  0  0  0
 16 17  1  0  0  0
 16 41  1  0  0  0
 17 18  2  0  0  0
 17 42  1  0  0  0
 18 43  1  0  0  0
 19 20  1  0  0  0
 19 44  1  0  0  0
 20 21  2  0  0  0
 20 45  1  0  0  0
 21 22  1  0  0  0
 21 46  1  0  0  0
 22 23  2  0  0  0
 22 47  1  0  0  0
 23 48  1  0  0  0
 24 25  2  0  0  0
 24 26  1  0  0  0
 26 49  1  0  0  0
 27 28  2  0  0  0
 27 29  1  0  0  0
 29 50  1  0  0  0
 29 51  1  0  0  0
 29 52  1  0  0  0
M  END
> <s_m_entry_id>
134

> <s_m_entry_name>
dock_pv.133

> <s_m_Source_Path>
/home/csk/Desktop/cluster/DUD-E-result/kif11

> <s_m_Source_File>
dock_pv.maegz

> <i_m_Source_File_Index>
133

> <chembl_id>
CHEMBL2022991

> <chembl_pref_name>
None

> <i_lp_mmshare_version>
53161

> <i_f3d_flags>
0

> <r_lp_tautomer_probability>
0.99995

> <s_lp_Force_Field>
OPLS_2005

> <r_lp_Energy>
28.638063

> <b_lp_Chiralities_Consistent>
1

> <s_lp_Variant>
CHEMBL4581_lig829-1

> <s_i_glide_gridfile>
glide-grid_3cjo

> <i_i_glide_lignum>
1216

> <i_i_glide_rotatable_bonds>
9

> <r_i_docking_score>
-8.41377789240102

> <r_i_glide_ligand_efficiency>
-0.290130272151759

> <r_i_glide_ligand_efficiency_sa>
-0.89137211577216

> <r_i_glide_ligand_efficiency_ln>
-1.92654178236126

> <r_i_glide_gscore>
-8.41377789240102

> <r_i_glide_lipo>
-4.33019815089533

> <r_i_glide_hbond>
-0.304

> <r_i_glide_metal>
0

> <r_i_glide_rewards>
-1.20258115151515

> <r_i_glide_evdw>
-43.7889022827148

> <r_i_glide_ecoul>
-8.06063270568848

> <r_i_glide_erotb>
0.836627598706681

> <r_i_glide_esite>
-0.0150861687082108

> <r_i_glide_emodel>
-73.2143107950279

> <r_i_glide_energy>
-51.8495349884033

> <r_i_glide_einternal>
12.1894989013672

> <i_i_glide_confnum>
75

> <i_i_glide_posenum>
346

> <r_i_glide_eff_state_penalty>
0

> <s_user_duplicate_titles>
CHEMBL4581_lig829

> <s_m_subgroup_title>
dock_pv

> <s_m_subgroupid>
dock_pv

> <b_m_subgroup_collapsed>
1

$$$$
CHEMBL4581_lig313
                    3D
 Schrodinger Suite 2021-1.
 41 44  0  0  1  0            999 V2000
   19.9525   13.5911  108.5590 N   0  0  0  0  0  0
   19.1193   15.6116  108.0370 C   0  0  0  0  0  0
   18.9159   14.4613  108.7685 C   0  0  0  0  0  0
   17.6934   14.1741  109.6287 C   0  0  2  0  0  0
   16.7361   15.3044  109.4796 N   0  0  0  0  0  0
   17.3286   16.6569  109.4277 C   0  0  0  0  0  0
   18.1358   16.7621  108.1137 C   0  0  0  0  0  0
   20.7989   14.1091  107.6018 C   0  0  0  0  0  0
   20.3143   15.4127  107.2756 C   0  0  0  0  0  0
   21.0249   16.1891  106.3468 C   0  0  0  0  0  0
   22.1676   15.6527  105.7577 C   0  0  0  0  0  0
   22.5977   14.3623  106.0606 C   0  0  0  0  0  0
   21.9265   13.5620  106.9838 C   0  0  0  0  0  0
   18.0541   13.8803  111.0751 C   0  0  0  0  0  0
   15.4034   15.0857  109.3370 C   0  0  0  0  0  0
   14.9053   13.9613  109.3590 O   0  0  0  0  0  0
   14.4552   16.2734  109.1496 C   0  0  0  0  0  0
   19.1123   14.5406  111.7193 C   0  0  0  0  0  0
   19.3888   14.2828  113.0588 C   0  0  0  0  0  0
   18.5999   13.3746  113.7594 C   0  0  0  0  0  0
   17.5182   12.7610  113.1382 C   0  0  0  0  0  0
   17.2569   12.9916  111.7931 C   0  0  0  0  0  0
   16.6879   11.9620  113.8628 O   0  0  0  0  0  0
   19.9884   12.6811  108.9955 H   0  0  0  0  0  0
   17.2212   13.2613  109.2587 H   0  0  0  0  0  0
   17.9990   16.7574  110.2814 H   0  0  0  0  0  0
   16.6170   17.4673  109.5792 H   0  0  0  0  0  0
   17.4703   16.7621  107.2490 H   0  0  0  0  0  0
   18.6686   17.7104  108.1131 H   0  0  0  0  0  0
   20.6900   17.1852  106.0947 H   0  0  0  0  0  0
   22.7209   16.2386  105.0376 H   0  0  0  0  0  0
   23.4749   13.9736  105.5630 H   0  0  0  0  0  0
   22.2773   12.5656  107.2091 H   0  0  0  0  0  0
   14.7581   16.8808  108.2962 H   0  0  0  0  0  0
   13.4401   15.9231  108.9644 H   0  0  0  0  0  0
   14.4362   16.8962  110.0426 H   0  0  0  0  0  0
   19.7219   15.2572  111.1874 H   0  0  0  0  0  0
   20.2144   14.7768  113.5502 H   0  0  0  0  0  0
   18.8058   13.1618  114.7990 H   0  0  0  0  0  0
   16.4160   12.5090  111.3151 H   0  0  0  0  0  0
   15.9917   11.5569  113.3355 H   0  0  0  0  0  0
  1  8  1  0  0  0
  1  3  1  0  0  0
  1 24  1  0  0  0
  2  7  1  0  0  0
  2  9  1  0  0  0
  2  3  2  0  0  0
  3  4  1  0  0  0
  4 14  1  0  0  0
  4  5  1  0  0  0
  4 25  1  0  0  0
  5 15  1  0  0  0
  5  6  1  0  0  0
  6  7  1  0  0  0
  6 26  1  0  0  0
  6 27  1  0  0  0
  7 28  1  0  0  0
  7 29  1  0  0  0
  8 13  1  0  0  0
  8  9  2  0  0  0
  9 10  1  0  0  0
 10 11  2  0  0  0
 10 30  1  0  0  0
 11 12  1  0  0  0
 11 31  1  0  0  0
 12 13  2  0  0  0
 12 32  1  0  0  0
 13 33  1  0  0  0
 14 18  2  0  0  0
 14 22  1  0  0  0
 15 16  2  0  0  0
 15 17  1  0  0  0
 17 34  1  0  0  0
 17 35  1  0  0  0
 17 36  1  0  0  0
 18 19  1  0  0  0
 18 37  1  0  0  0
 19 20  2  0  0  0
 19 38  1  0  0  0
 20 21  1  0  0  0
 20 39  1  0  0  0
 21 22  2  0  0  0
 21 23  1  0  0  0
 22 40  1  0  0  0
 23 41  1  0  0  0
M  END
> <s_m_entry_id>
135

> <s_m_entry_name>
dock_pv.134

> <s_m_Source_Path>
/home/csk/Desktop/cluster/DUD-E-result/kif11

> <s_m_Source_File>
dock_pv.maegz

> <i_m_Source_File_Index>
134

> <chembl_id>
CHEMBL574446

> <chembl_pref_name>
None

> <i_lp_mmshare_version>
53161

> <i_f3d_flags>
0

> <r_lp_tautomer_probability>
0.999999999997365

> <s_lp_Force_Field>
OPLS_2005

> <r_lp_Energy>
24.72247

> <b_lp_Chiralities_Consistent>
1

> <s_lp_Variant>
CHEMBL4581_lig313-2

> <s_i_glide_gridfile>
glide-grid_3cjo

> <i_i_glide_lignum>
465

> <i_i_glide_rotatable_bonds>
3

> <r_i_docking_score>
-8.39762500100198

> <r_i_glide_ligand_efficiency>
-0.365114130478347

> <r_i_glide_ligand_efficiency_sa>
-1.03833601845935

> <r_i_glide_ligand_efficiency_ln>
-2.03062187069587

> <r_i_glide_gscore>
-8.39762500100198

> <r_i_glide_lipo>
-4.47031161266295

> <r_i_glide_hbond>
-0.156406462126196

> <r_i_glide_metal>
0

> <r_i_glide_rewards>
-1.67666232691667

> <r_i_glide_evdw>
-38.2127304077148

> <r_i_glide_ecoul>
-2.53605961799622

> <r_i_glide_erotb>
0.196800863789004

> <r_i_glide_esite>
0

> <r_i_glide_emodel>
-59.4346003410376

> <r_i_glide_energy>
-40.7487900257111

> <r_i_glide_einternal>
0.640406906604767

> <i_i_glide_confnum>
3

> <i_i_glide_posenum>
133

> <r_i_glide_eff_state_penalty>
0

> <s_user_duplicate_titles>
CHEMBL4581_lig313

> <s_m_subgroup_title>
dock_pv

> <s_m_subgroupid>
dock_pv

> <b_m_subgroup_collapsed>
1

$$$$
CHEMBL4581_lig888
                    3D
 Schrodinger Suite 2021-1.
 51 53  0  0  1  0            999 V2000
   17.6886   14.4325  109.6652 C   0  0  2  0  0  0
   19.0043   14.3302  108.8339 C   0  0  0  0  0  0
   17.1416   15.8812  109.8328 C   0  0  0  0  0  0
   19.1716   15.0674  107.6476 C   0  0  0  0  0  0
   20.2961   14.8992  106.8376 C   0  0  0  0  0  0
   21.2958   14.0137  107.2251 C   0  0  0  0  0  0
   21.1975   13.3484  108.4355 C   0  0  0  0  0  0
   20.0574   13.4850  109.2220 C   0  0  0  0  0  0
   17.9618   17.0175  109.7135 C   0  0  0  0  0  0
   17.4493   18.2967  109.9204 C   0  0  0  0  0  0
   16.1112   18.4729  110.2557 C   0  0  0  0  0  0
   15.2838   17.3630  110.3869 C   0  0  0  0  0  0
   15.7975   16.0836  110.1780 C   0  0  0  0  0  0
   17.8722   13.8850  111.1199 C   0  0  0  0  0  0
   17.1715   12.7730  111.6309 C   0  0  0  0  0  0
   17.3871   12.3370  112.9350 C   0  0  0  0  0  0
   18.3033   12.9904  113.7487 C   0  0  0  0  0  0
   18.9967   14.1003  113.2725 C   0  0  0  0  0  0
   18.7778   14.5437  111.9716 C   0  0  0  0  0  0
   16.4707   13.3836  108.7235 S   0  0  0  0  0  0
   16.1226   14.2373  107.1496 C   0  0  0  0  0  0
   14.9602   13.6588  106.3264 C   0  0  0  0  0  0
   15.3144   12.3696  105.7572 N   0  0  0  0  0  0
   13.9728   17.5340  110.7350 O   0  0  0  0  0  0
   20.4308   15.6501  105.5297 C   0  0  0  0  0  0
   20.7522   17.1361  105.7011 C   0  0  0  0  0  0
   18.4049   15.7555  107.3251 H   0  0  0  0  0  0
   22.1791   13.8804  106.6165 H   0  0  0  0  0  0
   22.0394   12.7629  108.7506 H   0  0  0  0  0  0
   20.0033   12.9093  110.1314 H   0  0  0  0  0  0
   19.0144   16.9260  109.4917 H   0  0  0  0  0  0
   18.0871   19.1575  109.8368 H   0  0  0  0  0  0
   15.7292   19.4688  110.4246 H   0  0  0  0  0  0
   15.1576   15.2289  110.3052 H   0  0  0  0  0  0
   16.4550   12.2192  111.0451 H   0  0  0  0  0  0
   16.8392   11.4853  113.3126 H   0  0  0  0  0  0
   18.4709   12.6403  114.7584 H   0  0  0  0  0  0
   19.7065   14.6136  113.9058 H   0  0  0  0  0  0
   19.3316   15.4015  111.6162 H   0  0  0  0  0  0
   15.9209   15.2870  107.3629 H   0  0  0  0  0  0
   17.0143   14.2101  106.5253 H   0  0  0  0  0  0
   14.0620   13.5615  106.9379 H   0  0  0  0  0  0
   14.7154   14.3353  105.5069 H   0  0  0  0  0  0
   16.2031   12.4383  105.2792 H   0  0  0  0  0  0
   15.4567   11.6879  106.5053 H   0  0  0  0  0  0
   13.7445   18.4604  110.8416 H   0  0  0  0  0  0
   21.2263   15.1846  104.9489 H   0  0  0  0  0  0
   19.5109   15.5212  104.9591 H   0  0  0  0  0  0
   20.9283   17.6000  104.7308 H   0  0  0  0  0  0
   19.9181   17.6520  106.1688 H   0  0  0  0  0  0
   21.6421   17.2923  106.3134 H   0  0  0  0  0  0
  1  2  1  0  0  0
  1  3  1  0  0  0
  1 14  1  0  0  0
  1 20  1  0  0  0
  2  4  2  0  0  0
  2  8  1  0  0  0
  3  9  2  0  0  0
  3 13  1  0  0  0
  4  5  1  0  0  0
  4 27  1  0  0  0
  5  6  2  0  0  0
  5 25  1  0  0  0
  6  7  1  0  0  0
  6 28  1  0  0  0
  7  8  2  0  0  0
  7 29  1  0  0  0
  8 30  1  0  0  0
  9 10  1  0  0  0
  9 31  1  0  0  0
 10 11  2  0  0  0
 10 32  1  0  0  0
 11 12  1  0  0  0
 11 33  1  0  0  0
 12 13  2  0  0  0
 12 24  1  0  0  0
 13 34  1  0  0  0
 14 15  2  0  0  0
 14 19  1  0  0  0
 15 16  1  0  0  0
 15 35  1  0  0  0
 16 17  2  0  0  0
 16 36  1  0  0  0
 17 18  1  0  0  0
 17 37  1  0  0  0
 18 19  2  0  0  0
 18 38  1  0  0  0
 19 39  1  0  0  0
 20 21  1  0  0  0
 21 22  1  0  0  0
 21 40  1  0  0  0
 21 41  1  0  0  0
 22 23  1  0  0  0
 22 42  1  0  0  0
 22 43  1  0  0  0
 23 44  1  0  0  0
 23 45  1  0  0  0
 24 46  1  0  0  0
 25 26  1  0  0  0
 25 47  1  0  0  0
 25 48  1  0  0  0
 26 49  1  0  0  0
 26 50  1  0  0  0
 26 51  1  0  0  0
M  END
> <s_m_entry_id>
136

> <s_m_entry_name>
dock_pv.135

> <s_m_Source_Path>
/home/csk/Desktop/cluster/DUD-E-result/kif11

> <s_m_Source_File>
dock_pv.maegz

> <i_m_Source_File_Index>
135

> <chembl_id>
CHEMBL2325421

> <chembl_pref_name>
None

> <i_lp_mmshare_version>
53161

> <i_f3d_flags>
0

> <r_lp_tautomer_probability>
0.999999999997365

> <s_lp_Force_Field>
OPLS_2005

> <r_lp_Energy>
22.408558

> <b_lp_Chiralities_Consistent>
1

> <s_lp_Variant>
CHEMBL4581_lig888-1

> <s_i_glide_gridfile>
glide-grid_3cjo

> <i_i_glide_lignum>
1281

> <i_i_glide_rotatable_bonds>
8

> <r_i_docking_score>
-8.38560040880668

> <r_i_glide_ligand_efficiency>
-0.322523092646411

> <r_i_glide_ligand_efficiency_sa>
-0.955473392897903

> <r_i_glide_ligand_efficiency_ln>
-1.96933074060905

> <r_i_glide_gscore>
-8.38560040880668

> <r_i_glide_lipo>
-5.0691543971335

> <r_i_glide_hbond>
-0.32

> <r_i_glide_metal>
0

> <r_i_glide_rewards>
-1.03890128787879

> <r_i_glide_evdw>
-39.7767601013184

> <r_i_glide_ecoul>
-4.6381778717041

> <r_i_glide_erotb>
0.727019962027144

> <r_i_glide_esite>
0

> <r_i_glide_emodel>
-63.1823360535192

> <r_i_glide_energy>
-44.4149379730225

> <r_i_glide_einternal>
7.77200555801392

> <i_i_glide_confnum>
180

> <i_i_glide_posenum>
213

> <r_i_glide_eff_state_penalty>
0

> <s_user_duplicate_titles>
CHEMBL4581_lig888

> <s_m_subgroup_title>
dock_pv

> <s_m_subgroupid>
dock_pv

> <b_m_subgroup_collapsed>
1

$$$$
CHEMBL4581_lig830
                    3D
 Schrodinger Suite 2021-1.
 49 51  0  0  1  0            999 V2000
   16.0386   14.0127  106.0334 C   0  0  0  0  0  0
   15.3711   12.7607  105.7241 N   0  0  0  0  0  0
   15.5941   14.5304  107.4097 C   0  0  0  0  0  0
   16.2062   13.5609  108.8293 S   0  0  0  0  0  0
   17.4612   14.6067  109.7150 C   0  0  0  0  0  0
   18.6790   14.6708  108.7412 C   0  0  0  0  0  0
   16.8880   16.0181  110.0461 C   0  0  0  0  0  0
   17.8364   13.9746  111.0990 C   0  0  0  0  0  0
   19.7792   13.8156  108.8902 C   0  0  0  0  0  0
   20.8605   13.8931  108.0171 C   0  0  0  0  0  0
   20.8657   14.8112  106.9606 C   0  0  0  0  0  0
   19.7782   15.6770  106.8113 C   0  0  0  0  0  0
   18.7075   15.6063  107.6920 C   0  0  0  0  0  0
   18.8208   14.5944  111.8901 C   0  0  0  0  0  0
   19.1247   14.1314  113.1658 C   0  0  0  0  0  0
   18.4657   13.0179  113.6702 C   0  0  0  0  0  0
   17.5154   12.3618  112.8977 C   0  0  0  0  0  0
   17.2056   12.8284  111.6236 C   0  0  0  0  0  0
   15.5141   16.2381  110.2382 C   0  0  0  0  0  0
   15.0278   17.5080  110.5359 C   0  0  0  0  0  0
   15.9129   18.5748  110.6460 C   0  0  0  0  0  0
   17.2769   18.3745  110.4663 C   0  0  0  0  0  0
   17.7573   17.1134  110.1626 C   0  0  0  0  0  0
   22.0275   14.8454  106.0228 C   0  0  0  0  0  0
   22.8803   13.9619  105.9627 O   0  0  0  0  0  0
   22.2404   16.1039  105.1865 C   0  0  0  0  0  0
   15.7866   14.7395  105.2611 H   0  0  0  0  0  0
   17.1203   13.8700  105.9961 H   0  0  0  0  0  0
   15.6020   12.0633  106.4281 H   0  0  0  0  0  0
   14.3686   12.8771  105.7690 H   0  0  0  0  0  0
   14.5048   14.5547  107.4688 H   0  0  0  0  0  0
   15.9007   15.5692  107.5139 H   0  0  0  0  0  0
   19.8009   13.0694  109.6709 H   0  0  0  0  0  0
   21.6876   13.2103  108.1564 H   0  0  0  0  0  0
   19.7390   16.4111  106.0201 H   0  0  0  0  0  0
   17.8931   16.2981  107.5451 H   0  0  0  0  0  0
   19.3523   15.4597  111.5278 H   0  0  0  0  0  0
   19.8728   14.6331  113.7603 H   0  0  0  0  0  0
   18.6941   12.6543  114.6627 H   0  0  0  0  0  0
   16.9932   11.5054  113.2948 H   0  0  0  0  0  0
   16.4444   12.2889  111.0824 H   0  0  0  0  0  0
   14.8068   15.4290  110.1571 H   0  0  0  0  0  0
   13.9701   17.6654  110.6810 H   0  0  0  0  0  0
   15.5419   19.5613  110.8857 H   0  0  0  0  0  0
   17.9752   19.1890  110.5608 H   0  0  0  0  0  0
   18.8222   17.0009  110.0257 H   0  0  0  0  0  0
   21.3776   16.2998  104.5535 H   0  0  0  0  0  0
   23.1160   15.9786  104.5533 H   0  0  0  0  0  0
   22.3842   16.9657  105.8385 H   0  0  0  0  0  0
  1  3  1  0  0  0
  1  2  1  0  0  0
  1 27  1  0  0  0
  1 28  1  0  0  0
  2 29  1  0  0  0
  2 30  1  0  0  0
  3  4  1  0  0  0
  3 31  1  0  0  0
  3 32  1  0  0  0
  4  5  1  0  0  0
  5  7  1  0  0  0
  5  8  1  0  0  0
  5  6  1  0  0  0
  6 13  1  0  0  0
  6  9  2  0  0  0
  7 19  2  0  0  0
  7 23  1  0  0  0
  8 14  2  0  0  0
  8 18  1  0  0  0
  9 10  1  0  0  0
  9 33  1  0  0  0
 10 11  2  0  0  0
 10 34  1  0  0  0
 11 12  1  0  0  0
 11 24  1  0  0  0
 12 13  2  0  0  0
 12 35  1  0  0  0
 13 36  1  0  0  0
 14 15  1  0  0  0
 14 37  1  0  0  0
 15 16  2  0  0  0
 15 38  1  0  0  0
 16 17  1  0  0  0
 16 39  1  0  0  0
 17 18  2  0  0  0
 17 40  1  0  0  0
 18 41  1  0  0  0
 19 20  1  0  0  0
 19 42  1  0  0  0
 20 21  2  0  0  0
 20 43  1  0  0  0
 21 22  1  0  0  0
 21 44  1  0  0  0
 22 23  2  0  0  0
 22 45  1  0  0  0
 23 46  1  0  0  0
 24 25  2  0  0  0
 24 26  1  0  0  0
 26 47  1  0  0  0
 26 48  1  0  0  0
 26 49  1  0  0  0
M  END
> <s_m_entry_id>
137

> <s_m_entry_name>
dock_pv.136

> <s_m_Source_Path>
/home/csk/Desktop/cluster/DUD-E-result/kif11

> <s_m_Source_File>
dock_pv.maegz

> <i_m_Source_File_Index>
136

> <chembl_id>
CHEMBL2022992

> <chembl_pref_name>
None

> <i_lp_mmshare_version>
53161

> <i_f3d_flags>
0

> <r_lp_tautomer_probability>
0.99995

> <s_lp_Force_Field>
OPLS_2005

> <r_lp_Energy>
32.497221

> <b_lp_Chiralities_Consistent>
1

> <s_lp_Variant>
CHEMBL4581_lig830-1

> <s_i_glide_gridfile>
glide-grid_3cjo

> <i_i_glide_lignum>
1217

> <i_i_glide_rotatable_bonds>
7

> <r_i_docking_score>
-8.37310003493698

> <r_i_glide_ligand_efficiency>
-0.322042309036038

> <r_i_glide_ligand_efficiency_sa>
-0.954049073343966

> <r_i_glide_ligand_efficiency_ln>
-1.96639506882282

> <r_i_glide_gscore>
-8.37310003493698

> <r_i_glide_lipo>
-4.69060921470242

> <r_i_glide_hbond>
-0.32

> <r_i_glide_metal>
0

> <r_i_glide_rewards>
-1.51097925757576

> <r_i_glide_evdw>
-45.2200355529785

> <r_i_glide_ecoul>
-2.16518211364746

> <r_i_glide_erotb>
0.734267532037238

> <r_i_glide_esite>
0

> <r_i_glide_emodel>
-70.5535503711043

> <r_i_glide_energy>
-47.385217666626

> <r_i_glide_einternal>
3.21294784545898

> <i_i_glide_confnum>
241

> <i_i_glide_posenum>
241

> <r_i_glide_eff_state_penalty>
0

> <s_user_duplicate_titles>
CHEMBL4581_lig830

> <s_m_subgroup_title>
dock_pv

> <s_m_subgroupid>
dock_pv

> <b_m_subgroup_collapsed>
1

$$$$
CHEMBL4581_lig105
                    3D
 Schrodinger Suite 2021-1.
 42 44  0  0  1  0            999 V2000
   22.7044   14.2405  105.9829 C   0  0  0  0  0  0
   22.5917   15.3782  105.1956 C   0  0  0  0  0  0
   21.5212   16.2475  105.3744 C   0  0  0  0  0  0
   20.5537   15.9672  106.3387 C   0  0  0  0  0  0
   20.6567   14.8221  107.1475 C   0  0  0  0  0  0
   21.7487   13.9575  106.9573 C   0  0  0  0  0  0
   21.9163   12.8411  107.7063 F   0  0  0  0  0  0
   21.4133   17.3504  104.6029 F   0  0  0  0  0  0
   19.6142   14.5370  108.1471 C   0  0  0  0  0  0
   19.7925   14.0322  109.2990 N   0  0  0  0  0  0
   18.6133   13.9423  109.9760 N   0  0  0  0  0  0
   17.4680   14.4768  109.1920 C   0  0  2  0  0  0
   18.1643   14.7934  107.8564 C   0  0  0  0  0  0
   16.8957   15.7892  109.8084 C   0  0  0  0  0  0
   15.5214   15.9900  110.0045 C   0  0  0  0  0  0
   15.0496   17.1797  110.5535 C   0  0  0  0  0  0
   15.9452   18.1831  110.9089 C   0  0  0  0  0  0
   17.3118   18.0072  110.7180 C   0  0  0  0  0  0
   17.7812   16.8166  110.1764 C   0  0  0  0  0  0
   18.6201   13.7791  111.3248 C   0  0  0  0  0  0
   17.8458   12.7619  111.7399 N   0  0  0  0  0  0
   19.3192   14.4483  112.0908 O   0  0  0  0  0  0
   17.6013   12.4314  113.1386 C   0  0  0  0  0  0
   16.4177   13.3261  109.0019 C   0  0  0  0  0  0
   15.4916   13.5588  107.9558 O   0  0  0  0  0  0
   23.5232   13.5625  105.8255 H   0  0  0  0  0  0
   23.3202   15.5620  104.4265 H   0  0  0  0  0  0
   19.7397   16.6676  106.4563 H   0  0  0  0  0  0
   17.9889   15.8232  107.5433 H   0  0  0  0  0  0
   17.8416   14.1461  107.0396 H   0  0  0  0  0  0
   14.7980   15.2378  109.7327 H   0  0  0  0  0  0
   13.9892   17.3257  110.6993 H   0  0  0  0  0  0
   15.5780   19.1037  111.3397 H   0  0  0  0  0  0
   18.0055   18.7845  111.0020 H   0  0  0  0  0  0
   18.8464   16.6958  110.0422 H   0  0  0  0  0  0
   17.4056   12.1724  111.0490 H   0  0  0  0  0  0
   16.9400   11.5671  113.2084 H   0  0  0  0  0  0
   18.5341   12.1914  113.6504 H   0  0  0  0  0  0
   17.1235   13.2660  113.6562 H   0  0  0  0  0  0
   16.9295   12.3922  108.7573 H   0  0  0  0  0  0
   15.8637   13.1287  109.9212 H   0  0  0  0  0  0
   15.1492   12.7054  107.6660 H   0  0  0  0  0  0
  1  2  2  0  0  0
  1  6  1  0  0  0
  1 26  1  0  0  0
  2  3  1  0  0  0
  2 27  1  0  0  0
  3  4  2  0  0  0
  3  8  1  0  0  0
  4  5  1  0  0  0
  4 28  1  0  0  0
  5  9  1  0  0  0
  5  6  2  0  0  0
  6  7  1  0  0  0
  9 13  1  0  0  0
  9 10  2  0  0  0
 10 11  1  0  0  0
 11 12  1  0  0  0
 11 20  1  0  0  0
 12 13  1  0  0  0
 12 14  1  0  0  0
 12 24  1  0  0  0
 13 29  1  0  0  0
 13 30  1  0  0  0
 14 15  2  0  0  0
 14 19  1  0  0  0
 15 16  1  0  0  0
 15 31  1  0  0  0
 16 17  2  0  0  0
 16 32  1  0  0  0
 17 18  1  0  0  0
 17 33  1  0  0  0
 18 19  2  0  0  0
 18 34  1  0  0  0
 19 35  1  0  0  0
 20 21  1  0  0  0
 20 22  2  0  0  0
 21 23  1  0  0  0
 21 36  1  0  0  0
 23 37  1  0  0  0
 23 38  1  0  0  0
 23 39  1  0  0  0
 24 25  1  0  0  0
 24 40  1  0  0  0
 24 41  1  0  0  0
 25 42  1  0  0  0
M  END
> <s_m_entry_id>
138

> <s_m_entry_name>
dock_pv.137

> <s_m_Source_Path>
/home/csk/Desktop/cluster/DUD-E-result/kif11

> <s_m_Source_File>
dock_pv.maegz

> <i_m_Source_File_Index>
137

> <chembl_id>
CHEMBL206967

> <chembl_pref_name>
None

> <i_lp_mmshare_version>
53161

> <i_f3d_flags>
0

> <r_lp_tautomer_probability>
1

> <s_lp_Force_Field>
OPLS_2005

> <r_lp_Energy>
34.484042

> <b_lp_Chiralities_Consistent>
1

> <s_lp_Variant>
CHEMBL4581_lig105-1

> <s_i_glide_gridfile>
glide-grid_3cjo

> <i_i_glide_lignum>
178

> <i_i_glide_rotatable_bonds>
6

> <r_i_docking_score>
-8.37054791908022

> <r_i_glide_ligand_efficiency>
-0.334821916763209

> <r_i_glide_ligand_efficiency_sa>
-0.979025222707601

> <r_i_glide_ligand_efficiency_ln>
-1.98407070190119

> <r_i_glide_gscore>
-8.37054791908022

> <r_i_glide_lipo>
-3.34471013873499

> <r_i_glide_hbond>
-0.0952066428896031

> <r_i_glide_metal>
0

> <r_i_glide_rewards>
-2.81400033928136

> <r_i_glide_evdw>
-42.181022644043

> <r_i_glide_ecoul>
-4.29857397079468

> <r_i_glide_erotb>
0.637206429647087

> <r_i_glide_esite>
0

> <r_i_glide_emodel>
-66.8059981001163

> <r_i_glide_energy>
-46.4795966148376

> <r_i_glide_einternal>
3.75823855400085

> <i_i_glide_confnum>
20

> <i_i_glide_posenum>
7

> <r_i_glide_eff_state_penalty>
0

> <s_user_duplicate_titles>
CHEMBL4581_lig105

> <s_m_subgroup_title>
dock_pv

> <s_m_subgroupid>
dock_pv

> <b_m_subgroup_collapsed>
1

$$$$
CHEMBL4581_lig406
                    3D
 Schrodinger Suite 2021-1.
 47 50  0  0  1  0            999 V2000
   21.9186   16.0314  105.4475 C   0  0  0  0  0  0
   22.4696   14.7885  105.7500 C   0  0  0  0  0  0
   21.9164   13.9554  106.7247 C   0  0  0  0  0  0
   20.7681   16.4848  106.0924 C   0  0  0  0  0  0
   20.1717   15.6758  107.0734 C   0  0  0  0  0  0
   20.7761   14.4248  107.3921 C   0  0  0  0  0  0
   20.0255   13.8789  108.4147 N   0  0  0  0  0  0
   18.9968   15.7912  107.8916 C   0  0  0  0  0  0
   18.9259   14.6593  108.6690 C   0  0  0  0  0  0
   17.7442   14.2544  109.5451 C   0  0  2  0  0  0
   16.6194   15.2248  109.3463 N   0  0  0  0  0  0
   16.9401   16.6671  109.1380 C   0  0  2  0  0  0
   17.9184   16.8476  107.9379 C   0  0  0  0  0  0
   18.0852   13.9603  111.0072 C   0  0  0  0  0  0
   19.1209   14.6244  111.6775 C   0  0  0  0  0  0
   19.3837   14.3497  113.0203 C   0  0  0  0  0  0
   18.6024   13.4193  113.7069 C   0  0  0  0  0  0
   17.5396   12.7965  113.0605 C   0  0  0  0  0  0
   17.2938   13.0499  111.7140 C   0  0  0  0  0  0
   16.7167   11.9620  113.7593 O   0  0  0  0  0  0
   17.3926   17.3609  110.4439 C   0  0  0  0  0  0
   16.3487   17.4301  111.3191 O   0  0  0  0  0  0
   18.4961   17.8289  110.6341 O   0  0  0  0  0  0
   15.3467   14.7534  109.2059 C   0  0  0  0  0  0
   14.1842   15.7229  108.8904 C   0  0  0  0  0  0
   15.0801   13.5626  109.3528 O   0  0  0  0  0  0
   12.8121   15.0492  108.6643 C   0  0  0  0  0  0
   22.3787   16.6441  104.6851 H   0  0  0  0  0  0
   23.3495   14.4600  105.2159 H   0  0  0  0  0  0
   22.3611   12.9975  106.9511 H   0  0  0  0  0  0
   20.3390   17.4438  105.8399 H   0  0  0  0  0  0
   20.1615   12.9866  108.8667 H   0  0  0  0  0  0
   17.4149   13.2842  109.1665 H   0  0  0  0  0  0
   16.0675   17.2733  108.9057 H   0  0  0  0  0  0
   18.3645   17.8405  107.9809 H   0  0  0  0  0  0
   17.3490   16.7708  107.0105 H   0  0  0  0  0  0
   19.7253   15.3581  111.1629 H   0  0  0  0  0  0
   20.1968   14.8500  113.5253 H   0  0  0  0  0  0
   18.8043   13.1820  114.7417 H   0  0  0  0  0  0
   16.4725   12.5497  111.2210 H   0  0  0  0  0  0
   16.0200   11.5710  113.2214 H   0  0  0  0  0  0
   16.5771   17.9647  112.0850 H   0  0  0  0  0  0
   14.4299   16.2762  107.9833 H   0  0  0  0  0  0
   14.0953   16.4399  109.7074 H   0  0  0  0  0  0
   12.0666   15.7985  108.3966 H   0  0  0  0  0  0
   12.8449   14.3288  107.8450 H   0  0  0  0  0  0
   12.4377   14.5492  109.5589 H   0  0  0  0  0  0
  1  2  2  0  0  0
  1  4  1  0  0  0
  1 28  1  0  0  0
  2  3  1  0  0  0
  2 29  1  0  0  0
  3  6  2  0  0  0
  3 30  1  0  0  0
  4  5  2  0  0  0
  4 31  1  0  0  0
  5  8  1  0  0  0
  5  6  1  0  0  0
  6  7  1  0  0  0
  7  9  1  0  0  0
  7 32  1  0  0  0
  8  9  2  0  0  0
  8 13  1  0  0  0
  9 10  1  0  0  0
 10 14  1  0  0  0
 10 11  1  0  0  0
 10 33  1  0  0  0
 11 12  1  0  0  0
 11 24  1  0  0  0
 12 13  1  0  0  0
 12 21  1  0  0  0
 12 34  1  0  0  0
 13 35  1  0  0  0
 13 36  1  0  0  0
 14 15  2  0  0  0
 14 19  1  0  0  0
 15 16  1  0  0  0
 15 37  1  0  0  0
 16 17  2  0  0  0
 16 38  1  0  0  0
 17 18  1  0  0  0
 17 39  1  0  0  0
 18 19  2  0  0  0
 18 20  1  0  0  0
 19 40  1  0  0  0
 20 41  1  0  0  0
 21 22  1  0  0  0
 21 23  2  0  0  0
 22 42  1  0  0  0
 24 25  1  0  0  0
 24 26  2  0  0  0
 25 27  1  0  0  0
 25 43  1  0  0  0
 25 44  1  0  0  0
 27 45  1  0  0  0
 27 46  1  0  0  0
 27 47  1  0  0  0
M  END
> <s_m_entry_id>
139

> <s_m_entry_name>
dock_pv.138

> <s_m_Source_Path>
/home/csk/Desktop/cluster/DUD-E-result/kif11

> <s_m_Source_File>
dock_pv.maegz

> <i_m_Source_File_Index>
138

> <chembl_id>
CHEMBL1164860

> <chembl_pref_name>
None

> <i_lp_mmshare_version>
53161

> <i_f3d_flags>
0

> <r_lp_tautomer_probability>
0.999999999997365

> <s_lp_Force_Field>
OPLS_2005

> <r_lp_Energy>
19.103677

> <b_lp_Chiralities_Consistent>
1

> <s_lp_Variant>
CHEMBL4581_lig406-1

> <s_i_glide_gridfile>
glide-grid_3cjo

> <i_i_glide_lignum>
596

> <i_i_glide_rotatable_bonds>
6

> <r_i_docking_score>
-8.35942435601764

> <r_i_glide_ligand_efficiency>
-0.309608309482135

> <r_i_glide_ligand_efficiency_sa>
-0.928824927425986

> <r_i_glide_ligand_efficiency_ln>
-1.9459361741995

> <r_i_glide_gscore>
-8.35942435601764

> <r_i_glide_lipo>
-4.36384421386555

> <r_i_glide_hbond>
-0.185075693229203

> <r_i_glide_metal>
0

> <r_i_glide_rewards>
-1.59794144860266

> <r_i_glide_evdw>
-43.0126991271973

> <r_i_glide_ecoul>
-3.30844449996948

> <r_i_glide_erotb>
0.434338631035058

> <r_i_glide_esite>
0

> <r_i_glide_emodel>
-65.2049043129969

> <r_i_glide_energy>
-46.3211436271667

> <r_i_glide_einternal>
5.72915172576904

> <i_i_glide_confnum>
15

> <i_i_glide_posenum>
395

> <r_i_glide_eff_state_penalty>
0

> <s_user_duplicate_titles>
CHEMBL4581_lig406,644723

> <s_m_subgroup_title>
dock_pv

> <s_m_subgroupid>
dock_pv

> <b_m_subgroup_collapsed>
1

$$$$
CHEMBL4581_lig603
                    3D
 Schrodinger Suite 2021-1.
 50 52  0  0  1  0            999 V2000
   19.4990   15.0544  107.4810 C   0  0  0  0  0  0
   18.4952   14.5404  108.5621 C   0  0  1  0  0  0
   17.7114   15.7128  109.2438 C   0  0  0  0  0  0
   16.3066   15.8139  109.2407 C   0  0  0  0  0  0
   15.6631   16.8707  109.8799 C   0  0  0  0  0  0
   16.4128   17.8441  110.5352 C   0  0  0  0  0  0
   17.8004   17.7664  110.5584 C   0  0  0  0  0  0
   18.4360   16.7019  109.9270 C   0  0  0  0  0  0
   17.3607   13.3186  107.7609 S   0  0  0  0  0  0
   16.8621   14.0999  106.1979 C   0  0  0  0  0  0
   16.0461   13.1392  105.3112 C   0  0  2  0  0  0
   19.2950   13.7508  109.6514 C   0  0  0  0  0  0
   18.6440   13.5619  111.0149 C   0  0  0  0  0  0
   19.1192   14.3210  112.0802 C   0  0  0  0  0  0
   18.6558   14.0802  113.3588 C   0  0  0  0  0  0
   17.6934   13.0986  113.5838 C   0  0  0  0  0  0
   17.1847   12.3620  112.5154 C   0  0  0  0  0  0
   17.6566   12.5949  111.2269 C   0  0  0  0  0  0
   16.3167   13.4179  103.8881 N   0  0  0  0  0  0
   14.5256   13.2353  105.5868 C   0  0  0  0  0  0
   14.1320   12.3621  106.5589 O   0  0  0  0  0  0
   13.7786   14.0198  105.0018 O   0  0  0  0  0  0
   19.2350   16.2451  106.7952 C   0  0  0  0  0  0
   20.1386   16.7619  105.8722 C   0  0  0  0  0  0
   21.5851   14.8702  106.2332 C   0  0  0  0  0  0
   20.6850   14.3622  107.1674 C   0  0  0  0  0  0
   21.3245   16.0875  105.6156 C   0  0  0  0  0  0
   22.2156   16.6081  104.7436 F   0  0  0  0  0  0
   15.6829   15.0812  108.7514 H   0  0  0  0  0  0
   14.5834   16.9309  109.8736 H   0  0  0  0  0  0
   15.9146   18.6580  111.0424 H   0  0  0  0  0  0
   18.3786   18.5146  111.0818 H   0  0  0  0  0  0
   19.5101   16.6305  109.9915 H   0  0  0  0  0  0
   16.3391   15.0369  106.3895 H   0  0  0  0  0  0
   17.7770   14.3623  105.6683 H   0  0  0  0  0  0
   16.3619   12.1139  105.5089 H   0  0  0  0  0  0
   19.5737   12.7616  109.2875 H   0  0  0  0  0  0
   20.2516   14.2451  109.8230 H   0  0  0  0  0  0
   19.8846   15.0682  111.9321 H   0  0  0  0  0  0
   19.0852   14.6617  114.1477 H   0  0  0  0  0  0
   17.3415   12.9070  114.5861 H   0  0  0  0  0  0
   16.4365   11.6008  112.6895 H   0  0  0  0  0  0
   17.2869   11.9932  110.4086 H   0  0  0  0  0  0
   17.3167   13.2299  103.7590 H   0  0  0  0  0  0
   15.8254   12.7614  103.3026 H   0  0  0  0  0  0
   14.8273   11.7819  106.9001 H   0  0  0  0  0  0
   18.3091   16.7624  106.9762 H   0  0  0  0  0  0
   19.9266   17.6920  105.3672 H   0  0  0  0  0  0
   22.4931   14.3337  106.0038 H   0  0  0  0  0  0
   20.9318   13.4269  107.6455 H   0  0  0  0  0  0
  1 23  2  0  0  0
  1  2  1  0  0  0
  1 26  1  0  0  0
  2  9  1  0  0  0
  2  3  1  0  0  0
  2 12  1  0  0  0
  3  4  2  0  0  0
  3  8  1  0  0  0
  4  5  1  0  0  0
  4 29  1  0  0  0
  5  6  2  0  0  0
  5 30  1  0  0  0
  6  7  1  0  0  0
  6 31  1  0  0  0
  7  8  2  0  0  0
  7 32  1  0  0  0
  8 33  1  0  0  0
  9 10  1  0  0  0
 10 11  1  0  0  0
 10 34  1  0  0  0
 10 35  1  0  0  0
 11 19  1  0  0  0
 11 20  1  0  0  0
 11 36  1  0  0  0
 12 13  1  0  0  0
 12 37  1  0  0  0
 12 38  1  0  0  0
 13 14  2  0  0  0
 13 18  1  0  0  0
 14 15  1  0  0  0
 14 39  1  0  0  0
 15 16  2  0  0  0
 15 40  1  0  0  0
 16 17  1  0  0  0
 16 41  1  0  0  0
 17 18  2  0  0  0
 17 42  1  0  0  0
 18 43  1  0  0  0
 19 44  1  0  0  0
 19 45  1  0  0  0
 20 21  1  0  0  0
 20 22  2  0  0  0
 21 46  1  0  0  0
 23 24  1  0  0  0
 23 47  1  0  0  0
 24 27  2  0  0  0
 24 48  1  0  0  0
 25 27  1  0  0  0
 25 26  2  0  0  0
 25 49  1  0  0  0
 26 50  1  0  0  0
 27 28  1  0  0  0
M  END
> <s_m_entry_id>
140

> <s_m_entry_name>
dock_pv.139

> <s_m_Source_Path>
/home/csk/Desktop/cluster/DUD-E-result/kif11

> <s_m_Source_File>
dock_pv.maegz

> <i_m_Source_File_Index>
139

> <chembl_id>
CHEMBL2043399

> <chembl_pref_name>
None

> <i_lp_mmshare_version>
53161

> <i_f3d_flags>
0

> <r_lp_tautomer_probability>
1

> <s_lp_Force_Field>
OPLS_2005

> <r_lp_Energy>
19.738203

> <b_lp_Chiralities_Consistent>
1

> <s_lp_Variant>
CHEMBL4581_lig603-1

> <s_i_glide_gridfile>
glide-grid_3cjo

> <i_i_glide_lignum>
930

> <i_i_glide_rotatable_bonds>
9

> <r_i_docking_score>
-8.34485419301375

> <r_i_glide_ligand_efficiency>
-0.298030506893348

> <r_i_glide_ligand_efficiency_sa>
-0.904996149509644

> <r_i_glide_ligand_efficiency_ln>
-1.92623736331327

> <r_i_glide_gscore>
-8.34485419301375

> <r_i_glide_lipo>
-4.65033395098847

> <r_i_glide_hbond>
-0.152

> <r_i_glide_metal>
0

> <r_i_glide_rewards>
-1.237563525

> <r_i_glide_evdw>
-39.1559753417969

> <r_i_glide_ecoul>
-8.96101188659668

> <r_i_glide_erotb>
1.00019417729032

> <r_i_glide_esite>
-0.00320034423625242

> <r_i_glide_emodel>
-68.4329679555538

> <r_i_glide_energy>
-48.1169872283936

> <r_i_glide_einternal>
6.52358388900757

> <i_i_glide_confnum>
46

> <i_i_glide_posenum>
350

> <r_i_glide_eff_state_penalty>
0

> <s_user_duplicate_titles>
CHEMBL4581_lig603

> <s_m_subgroup_title>
dock_pv

> <s_m_subgroupid>
dock_pv

> <b_m_subgroup_collapsed>
1

$$$$
CHEMBL4581_lig360
                    3D
 Schrodinger Suite 2021-1.
 61 64  0  0  1  0            999 V2000
   21.2880   15.6138  106.1709 C   0  0  0  0  0  0
   21.7160   14.3430  106.5590 C   0  0  0  0  0  0
   21.1181   13.7116  107.6443 C   0  0  0  0  0  0
   20.1898   16.1935  106.8117 C   0  0  0  0  0  0
   19.5735   15.5758  107.9040 C   0  0  0  0  0  0
   20.0589   14.3197  108.3152 C   0  0  0  0  0  0
   19.5043   13.6334  109.4075 N   0  0  0  0  0  0
   18.3075   14.1470  110.0717 C   0  0  2  0  0  0
   18.4302   16.2592  108.6447 C   0  0  2  0  0  0
   18.3158   15.7070  110.0822 C   0  0  1  0  0  0
   17.0901   16.3557  110.7612 C   0  0  0  0  0  0
   15.8159   16.1498  109.9317 C   0  0  0  0  0  0
   16.0262   16.5441  108.4491 C   0  0  1  0  0  0
   17.2374   15.9975  107.9098 O   0  0  0  0  0  0
   18.1576   13.5302  111.4561 C   0  0  0  0  0  0
   17.2044   12.5312  111.6761 C   0  0  0  0  0  0
   17.0759   11.9649  112.9412 C   0  0  0  0  0  0
   17.8922   12.4046  113.9783 C   0  0  0  0  0  0
   18.8595   13.3783  113.7590 C   0  0  0  0  0  0
   18.9908   13.9468  112.5000 C   0  0  0  0  0  0
   14.8401   16.1287  107.5640 C   0  0  0  0  0  0
   14.8522   14.6736  107.3188 N   0  0  1  0  0  0
   19.2027   16.0527  110.6165 H   0  0  0  0  0  0
   18.6068   17.3368  108.6852 H   0  0  0  0  0  0
   22.0618   16.3914  105.1232 C   0  0  0  0  0  0
   21.2608   17.1622  104.3909 F   0  0  0  0  0  0
   22.9475   17.1631  105.7530 F   0  0  0  0  0  0
   22.7179   15.5618  104.3191 F   0  0  0  0  0  0
   13.5373   14.0144  106.3745 S   0  0  0  0  0  0
   14.2205   12.3609  105.7579 C   0  0  0  0  0  0
   15.7603   12.3587  105.5757 C   0  0  0  0  0  0
   16.3179   13.5092  104.8710 N   0  0  2  0  0  0
   15.8353   13.6282  103.5039 C   0  0  0  0  0  0
   12.4330   13.7496  107.3018 O   0  0  0  0  0  0
   13.3275   14.9006  105.2251 O   0  0  0  0  0  0
   22.5525   13.8644  106.0696 H   0  0  0  0  0  0
   21.4889   12.7480  107.9611 H   0  0  0  0  0  0
   19.8500   17.1715  106.5050 H   0  0  0  0  0  0
   19.6666   12.6436  109.5331 H   0  0  0  0  0  0
   17.4533   13.8083  109.4814 H   0  0  0  0  0  0
   17.2668   17.4248  110.8940 H   0  0  0  0  0  0
   16.9376   15.9476  111.7591 H   0  0  0  0  0  0
   14.9989   16.7319  110.3599 H   0  0  0  0  0  0
   15.5008   15.1074  109.9968 H   0  0  0  0  0  0
   16.0900   17.6328  108.3947 H   0  0  0  0  0  0
   16.5625   12.1924  110.8744 H   0  0  0  0  0  0
   16.3208   11.2108  113.1219 H   0  0  0  0  0  0
   17.7870   11.9737  114.9626 H   0  0  0  0  0  0
   19.5171   13.6825  114.5590 H   0  0  0  0  0  0
   19.7509   14.6961  112.3359 H   0  0  0  0  0  0
   14.9173   16.6302  106.5983 H   0  0  0  0  0  0
   13.8827   16.4208  107.9974 H   0  0  0  0  0  0
   15.7358   14.4448  106.8486 H   0  0  0  0  0  0
   13.7006   12.1436  104.8269 H   0  0  0  0  0  0
   13.9180   11.6036  106.4804 H   0  0  0  0  0  0
   16.0942   11.4444  105.0863 H   0  0  0  0  0  0
   16.2275   12.3731  106.5614 H   0  0  0  0  0  0
   17.3302   13.3652  104.8060 H   0  0  0  0  0  0
   16.2737   14.5111  103.0384 H   0  0  0  0  0  0
   16.1406   12.7627  102.9201 H   0  0  0  0  0  0
   14.7513   13.7263  103.4484 H   0  0  0  0  0  0
  1  4  1  0  0  0
  1 25  1  0  0  0
  1  2  2  0  0  0
  2  3  1  0  0  0
  2 36  1  0  0  0
  3  6  2  0  0  0
  3 37  1  0  0  0
  4  5  2  0  0  0
  4 38  1  0  0  0
  5  6  1  0  0  0
  5  9  1  0  0  0
  6  7  1  0  0  0
  7  8  1  0  0  0
  7 39  1  0  0  0
  8 10  1  0  0  0
  8 15  1  0  0  0
  8 40  1  0  0  0
  9 10  1  0  0  0
  9 24  1  0  0  0
  9 14  1  0  0  0
 10 23  1  0  0  0
 10 11  1  0  0  0
 11 12  1  0  0  0
 11 41  1  0  0  0
 11 42  1  0  0  0
 12 13  1  0  0  0
 12 43  1  0  0  0
 12 44  1  0  0  0
 13 21  1  0  0  0
 13 14  1  0  0  0
 13 45  1  0  0  0
 15 20  1  0  0  0
 15 16  2  0  0  0
 16 17  1  0  0  0
 16 46  1  0  0  0
 17 18  2  0  0  0
 17 47  1  0  0  0
 18 19  1  0  0  0
 18 48  1  0  0  0
 19 20  2  0  0  0
 19 49  1  0  0  0
 20 50  1  0  0  0
 21 22  1  0  0  0
 21 51  1  0  0  0
 21 52  1  0  0  0
 22 29  1  0  0  0
 22 53  1  0  0  0
 25 26  1  0  0  0
 25 27  1  0  0  0
 25 28  1  0  0  0
 29 30  1  0  0  0
 29 34  2  0  0  0
 29 35  2  0  0  0
 30 31  1  0  0  0
 30 54  1  0  0  0
 30 55  1  0  0  0
 31 32  1  0  0  0
 31 56  1  0  0  0
 31 57  1  0  0  0
 32 33  1  0  0  0
 32 58  1  0  0  0
 33 59  1  0  0  0
 33 60  1  0  0  0
 33 61  1  0  0  0
M  END
> <s_m_entry_id>
141

> <s_m_entry_name>
dock_pv.140

> <s_m_Source_Path>
/home/csk/Desktop/cluster/DUD-E-result/kif11

> <s_m_Source_File>
dock_pv.maegz

> <i_m_Source_File_Index>
140

> <chembl_id>
CHEMBL1084677

> <chembl_pref_name>
None

> <i_lp_mmshare_version>
53161

> <i_f3d_flags>
0

> <r_lp_tautomer_probability>
1

> <s_lp_Force_Field>
OPLS_2005

> <r_lp_Energy>
27.837771

> <b_lp_Chiralities_Consistent>
1

> <s_lp_Variant>
CHEMBL4581_lig360-1

> <s_i_glide_gridfile>
glide-grid_3cjo

> <i_i_glide_lignum>
513

> <i_i_glide_rotatable_bonds>
8

> <r_i_docking_score>
-8.34047272275653

> <r_i_glide_ligand_efficiency>
-0.252741597659289

> <r_i_glide_ligand_efficiency_sa>
-0.810677350165315

> <r_i_glide_ligand_efficiency_ln>
-1.85487794888449

> <r_i_glide_gscore>
-8.34047272275653

> <r_i_glide_lipo>
-4.73253366604026

> <r_i_glide_hbond>
-0.179236969275069

> <r_i_glide_metal>
0

> <r_i_glide_rewards>
-1.25940224550307

> <r_i_glide_evdw>
-39.2522087097168

> <r_i_glide_ecoul>
-4.85097122192383

> <r_i_glide_erotb>
0.520956276836283

> <r_i_glide_esite>
0

> <r_i_glide_emodel>
-59.0505264433677

> <r_i_glide_energy>
-44.1031799316406

> <r_i_glide_einternal>
6.68794822692871

> <i_i_glide_confnum>
25

> <i_i_glide_posenum>
255

> <r_i_glide_eff_state_penalty>
0

> <s_user_duplicate_titles>
CHEMBL4581_lig360,615666

> <s_m_subgroup_title>
dock_pv

> <s_m_subgroupid>
dock_pv

> <b_m_subgroup_collapsed>
1

$$$$
CHEMBL4581_lig189
                    3D
 Schrodinger Suite 2021-1.
 53 55  0  0  1  0            999 V2000
   20.4769   16.4959  106.1750 C   0  0  0  0  0  0
   20.2688   15.4288  107.0600 C   0  0  0  0  0  0
   21.1888   14.3623  107.0490 C   0  0  0  0  0  0
   22.2648   14.3619  106.1588 C   0  0  0  0  0  0
   22.4671   15.4431  105.3084 C   0  0  0  0  0  0
   21.5798   16.5138  105.3227 C   0  0  0  0  0  0
   21.7740   17.5604  104.4913 F   0  0  0  0  0  0
   21.1181   13.3629  107.9588 F   0  0  0  0  0  0
   19.1127   15.4624  107.9864 C   0  0  0  0  0  0
   18.4836   16.7124  108.5594 C   0  0  0  0  0  0
   17.4511   16.2295  109.4813 N   0  0  0  0  0  0
   17.3179   14.7520  109.3569 C   0  0  1  0  0  0
   18.4849   14.3801  108.4613 C   0  0  0  0  0  0
   16.5875   17.0324  110.1779 C   0  0  0  0  0  0
   17.5212   14.0218  110.7179 C   0  0  0  0  0  0
   18.3381   14.5960  111.7094 C   0  0  0  0  0  0
   18.5332   13.9676  112.9364 C   0  0  0  0  0  0
   17.9174   12.7467  113.1862 C   0  0  0  0  0  0
   17.1182   12.1492  112.2173 C   0  0  0  0  0  0
   16.9245   12.7817  110.9917 C   0  0  0  0  0  0
   15.9620   14.4473  108.6072 C   0  0  0  0  0  0
   15.8301   13.1621  107.7537 C   0  0  0  0  0  0
   14.7965   13.2419  106.6175 C   0  0  0  0  0  0
   15.2988   14.0651  105.5316 N   0  0  0  0  0  0
   15.5177   16.6092  110.6217 O   0  0  0  0  0  0
   16.9347   18.3302  110.3530 N   0  0  0  0  0  0
   18.1728   18.6994  111.0412 C   0  0  0  0  0  0
   15.9199   19.3855  110.3015 C   0  0  0  0  0  0
   19.8021   17.3378  106.1585 H   0  0  0  0  0  0
   22.9614   13.5377  106.1597 H   0  0  0  0  0  0
   23.3063   15.4497  104.6320 H   0  0  0  0  0  0
   19.2073   17.3364  109.0759 H   0  0  0  0  0  0
   18.0397   17.3428  107.7886 H   0  0  0  0  0  0
   18.7180   13.3512  108.2317 H   0  0  0  0  0  0
   18.8412   15.5343  111.5335 H   0  0  0  0  0  0
   19.1591   14.4251  113.6896 H   0  0  0  0  0  0
   18.0655   12.2576  114.1380 H   0  0  0  0  0  0
   16.6456   11.1958  112.4123 H   0  0  0  0  0  0
   16.3046   12.2774  110.2757 H   0  0  0  0  0  0
   15.1335   14.4722  109.3165 H   0  0  0  0  0  0
   15.7621   15.2787  107.9309 H   0  0  0  0  0  0
   16.7765   12.8302  107.3287 H   0  0  0  0  0  0
   15.5175   12.3639  108.4133 H   0  0  0  0  0  0
   14.5952   12.2446  106.2217 H   0  0  0  0  0  0
   13.8458   13.6366  106.9813 H   0  0  0  0  0  0
   15.5192   14.9881  105.8767 H   0  0  0  0  0  0
   16.1674   13.6738  105.1875 H   0  0  0  0  0  0
   18.8779   17.8727  111.1345 H   0  0  0  0  0  0
   18.6859   19.5180  110.5461 H   0  0  0  0  0  0
   17.9371   19.0468  112.0466 H   0  0  0  0  0  0
   15.0111   19.0600  109.7924 H   0  0  0  0  0  0
   15.6458   19.7003  111.3097 H   0  0  0  0  0  0
   16.3063   20.2495  109.7584 H   0  0  0  0  0  0
  1  2  2  0  0  0
  1  6  1  0  0  0
  1 29  1  0  0  0
  2  9  1  0  0  0
  2  3  1  0  0  0
  3  4  2  0  0  0
  3  8  1  0  0  0
  4  5  1  0  0  0
  4 30  1  0  0  0
  5  6  2  0  0  0
  5 31  1  0  0  0
  6  7  1  0  0  0
  9 10  1  0  0  0
  9 13  2  0  0  0
 10 11  1  0  0  0
 10 32  1  0  0  0
 10 33  1  0  0  0
 11 14  1  0  0  0
 11 12  1  0  0  0
 12 15  1  0  0  0
 12 21  1  0  0  0
 12 13  1  0  0  0
 13 34  1  0  0  0
 14 25  2  0  0  0
 14 26  1  0  0  0
 15 16  2  0  0  0
 15 20  1  0  0  0
 16 17  1  0  0  0
 16 35  1  0  0  0
 17 18  2  0  0  0
 17 36  1  0  0  0
 18 19  1  0  0  0
 18 37  1  0  0  0
 19 20  2  0  0  0
 19 38  1  0  0  0
 20 39  1  0  0  0
 21 22  1  0  0  0
 21 40  1  0  0  0
 21 41  1  0  0  0
 22 23  1  0  0  0
 22 42  1  0  0  0
 22 43  1  0  0  0
 23 24  1  0  0  0
 23 44  1  0  0  0
 23 45  1  0  0  0
 24 46  1  0  0  0
 24 47  1  0  0  0
 26 27  1  0  0  0
 26 28  1  0  0  0
 27 48  1  0  0  0
 27 49  1  0  0  0
 27 50  1  0  0  0
 28 51  1  0  0  0
 28 52  1  0  0  0
 28 53  1  0  0  0
M  END
> <s_m_entry_id>
142

> <s_m_entry_name>
dock_pv.141

> <s_m_Source_Path>
/home/csk/Desktop/cluster/DUD-E-result/kif11

> <s_m_Source_File>
dock_pv.maegz

> <i_m_Source_File_Index>
141

> <chembl_id>
CHEMBL395332

> <chembl_pref_name>
None

> <i_lp_mmshare_version>
53161

> <i_f3d_flags>
0

> <r_lp_tautomer_probability>
1

> <s_lp_Force_Field>
OPLS_2005

> <r_lp_Energy>
62.219882

> <b_lp_Chiralities_Consistent>
1

> <s_lp_Variant>
CHEMBL4581_lig189-1

> <s_i_glide_gridfile>
glide-grid_3cjo

> <i_i_glide_lignum>
285

> <i_i_glide_rotatable_bonds>
7

> <r_i_docking_score>
-8.33392564767034

> <r_i_glide_ligand_efficiency>
-0.297640201702512

> <r_i_glide_ligand_efficiency_sa>
-0.903810953072802

> <r_i_glide_ligand_efficiency_ln>
-1.92371473417198

> <r_i_glide_gscore>
-8.33392564767034

> <r_i_glide_lipo>
-4.48330265712171

> <r_i_glide_hbond>
0

> <r_i_glide_metal>
0

> <r_i_glide_rewards>
-2.02214739109254

> <r_i_glide_evdw>
-41.6311798095703

> <r_i_glide_ecoul>
-2.67725086212158

> <r_i_glide_erotb>
0.654671020340666

> <r_i_glide_esite>
0

> <r_i_glide_emodel>
-63.4139904037271

> <r_i_glide_energy>
-44.3084306716919

> <r_i_glide_einternal>
5.03341674804688

> <i_i_glide_confnum>
21

> <i_i_glide_posenum>
357

> <r_i_glide_eff_state_penalty>
0

> <s_user_duplicate_titles>
CHEMBL4581_lig189,394395

> <s_m_subgroup_title>
dock_pv

> <s_m_subgroupid>
dock_pv

> <b_m_subgroup_collapsed>
1

$$$$
CHEMBL4581_lig29
                    3D
 Schrodinger Suite 2021-1.
 41 43  0  0  1  0            999 V2000
   18.6976   14.2090  110.0795 N   0  0  0  0  0  0
   19.8480   14.1978  109.3544 N   0  0  0  0  0  0
   18.7236   14.0637  111.4322 C   0  0  0  0  0  0
   19.6337   14.6236  108.1763 C   0  0  0  0  0  0
   17.5702   14.7543  109.3010 C   0  0  2  0  0  0
   18.1726   14.8585  107.9078 C   0  0  0  0  0  0
   20.6579   14.8562  107.1509 C   0  0  0  0  0  0
   17.8961   13.1265  111.9731 N   0  0  0  0  0  0
   21.7264   13.9619  106.9590 C   0  0  0  0  0  0
   19.4876   14.7404  112.1310 O   0  0  0  0  0  0
   20.5811   16.0077  106.3505 C   0  0  0  0  0  0
   17.0465   16.0982  109.8257 C   0  0  0  0  0  0
   22.6968   14.2367  105.9974 C   0  0  0  0  0  0
   21.5626   16.2743  105.3975 C   0  0  0  0  0  0
   21.8679   12.8443  107.7115 F   0  0  0  0  0  0
   22.6167   15.3842  105.2211 C   0  0  0  0  0  0
   21.4878   17.3880  104.6374 F   0  0  0  0  0  0
   17.0968   12.1559  111.2195 C   0  0  0  0  0  0
   17.7633   12.9593  113.4245 C   0  0  0  0  0  0
   17.9360   17.1395  110.1140 C   0  0  0  0  0  0
   15.6713   16.2918  109.9881 C   0  0  0  0  0  0
   17.4536   18.3620  110.5597 C   0  0  0  0  0  0
   15.1887   17.5176  110.4373 C   0  0  0  0  0  0
   16.0827   18.5481  110.7171 C   0  0  0  0  0  0
   16.7446   14.0420  109.3088 H   0  0  0  0  0  0
   17.7930   14.0850  107.2381 H   0  0  0  0  0  0
   17.9832   15.8342  107.4601 H   0  0  0  0  0  0
   19.7864   16.7289  106.4751 H   0  0  0  0  0  0
   23.5181   13.5619  105.8478 H   0  0  0  0  0  0
   23.3659   15.5618  104.4700 H   0  0  0  0  0  0
   16.0325   12.3620  111.3337 H   0  0  0  0  0  0
   17.3295   12.1181  110.1557 H   0  0  0  0  0  0
   17.2831   11.1620  111.6074 H   0  0  0  0  0  0
   18.3133   13.7099  113.9948 H   0  0  0  0  0  0
   16.7181   13.0226  113.7258 H   0  0  0  0  0  0
   18.1380   11.9798  113.7247 H   0  0  0  0  0  0
   19.0013   17.0037  109.9927 H   0  0  0  0  0  0
   14.9737   15.4991  109.7597 H   0  0  0  0  0  0
   18.1432   19.1619  110.7856 H   0  0  0  0  0  0
   14.1272   17.6721  110.5630 H   0  0  0  0  0  0
   15.7108   19.5006  111.0675 H   0  0  0  0  0  0
  1  2  1  0  0  0
  1  3  1  0  0  0
  1  5  1  0  0  0
  2  4  2  0  0  0
  3  8  1  0  0  0
  3 10  2  0  0  0
  4  7  1  0  0  0
  4  6  1  0  0  0
  5  6  1  0  0  0
  5 12  1  0  0  0
  5 25  1  0  0  0
  6 26  1  0  0  0
  6 27  1  0  0  0
  7  9  2  0  0  0
  7 11  1  0  0  0
  8 18  1  0  0  0
  8 19  1  0  0  0
  9 13  1  0  0  0
  9 15  1  0  0  0
 11 14  2  0  0  0
 11 28  1  0  0  0
 12 20  1  0  0  0
 12 21  2  0  0  0
 13 16  2  0  0  0
 13 29  1  0  0  0
 14 16  1  0  0  0
 14 17  1  0  0  0
 16 30  1  0  0  0
 18 31  1  0  0  0
 18 32  1  0  0  0
 18 33  1  0  0  0
 19 34  1  0  0  0
 19 35  1  0  0  0
 19 36  1  0  0  0
 20 22  2  0  0  0
 20 37  1  0  0  0
 21 23  1  0  0  0
 21 38  1  0  0  0
 22 24  1  0  0  0
 22 39  1  0  0  0
 23 24  2  0  0  0
 23 40  1  0  0  0
 24 41  1  0  0  0
M  END
> <s_m_entry_id>
143

> <s_m_entry_name>
dock_pv.142

> <s_m_Source_Path>
/home/csk/Desktop/cluster/DUD-E-result/kif11

> <s_m_Source_File>
dock_pv.maegz

> <i_m_Source_File_Index>
142

> <chembl_id>
CHEMBL196985

> <chembl_pref_name>
None

> <i_lp_mmshare_version>
53161

> <i_f3d_flags>
0

> <r_lp_tautomer_probability>
1

> <s_lp_Force_Field>
OPLS_2005

> <r_lp_Energy>
43.12176

> <b_lp_Chiralities_Consistent>
1

> <s_lp_Variant>
CHEMBL4581_lig29-1

> <s_i_glide_gridfile>
glide-grid_3cjo

> <i_i_glide_lignum>
44

> <i_i_glide_rotatable_bonds>
4

> <r_i_docking_score>
-8.33323050425952

> <r_i_glide_ligand_efficiency>
-0.34721793767748

> <r_i_glide_ligand_efficiency_sa>
-1.00154984177575

> <r_i_glide_ligand_efficiency_ln>
-1.99452444670047

> <r_i_glide_gscore>
-8.33323050425952

> <r_i_glide_lipo>
-3.52859702898085

> <r_i_glide_hbond>
0

> <r_i_glide_metal>
0

> <r_i_glide_rewards>
-2.96356441363636

> <r_i_glide_evdw>
-41.1019897460938

> <r_i_glide_ecoul>
-2.03843331336975

> <r_i_glide_erotb>
0.519795422667837

> <r_i_glide_esite>
0

> <r_i_glide_emodel>
-63.2780837753617

> <r_i_glide_energy>
-43.1404230594635

> <r_i_glide_einternal>
2.25517868995667

> <i_i_glide_confnum>
4

> <i_i_glide_posenum>
156

> <r_i_glide_eff_state_penalty>
0

> <s_user_duplicate_titles>
CHEMBL4581_lig29

> <s_m_subgroup_title>
dock_pv

> <s_m_subgroupid>
dock_pv

> <b_m_subgroup_collapsed>
1

$$$$
CHEMBL4581_lig844
                    3D
 Schrodinger Suite 2021-1.
 54 56  0  0  1  0            999 V2000
   15.6300   13.0937  106.0852 C   0  0  0  0  0  0
   15.9180   13.4612  104.7102 N   0  0  0  0  0  0
   16.5851   13.8309  107.0393 C   0  0  0  0  0  0
   16.4332   13.3977  108.8066 S   0  0  0  0  0  0
   17.5775   14.5114  109.7792 C   0  0  0  0  0  0
   18.8966   14.5142  108.9565 C   0  0  0  0  0  0
   16.9547   15.9307  109.9675 C   0  0  0  0  0  0
   17.8123   13.9430  111.2171 C   0  0  0  0  0  0
   19.9112   13.5792  109.2159 C   0  0  0  0  0  0
   21.0256   13.4905  108.3902 C   0  0  0  0  0  0
   21.1181   14.2985  107.2705 C   0  0  0  0  0  0
   20.1848   15.3065  107.0426 C   0  0  0  0  0  0
   19.0862   15.4167  107.8938 C   0  0  0  0  0  0
   18.7828   14.5473  112.0366 C   0  0  0  0  0  0
   19.0456   14.0709  113.3170 C   0  0  0  0  0  0
   18.3364   12.9798  113.8025 C   0  0  0  0  0  0
   17.3752   12.3621  113.0141 C   0  0  0  0  0  0
   17.1203   12.8295  111.7293 C   0  0  0  0  0  0
   17.7844   17.0526  110.1442 C   0  0  0  0  0  0
   17.2498   18.3200  110.3405 C   0  0  0  0  0  0
   15.8702   18.4896  110.3585 C   0  0  0  0  0  0
   15.0251   17.3982  110.1837 C   0  0  0  0  0  0
   15.5643   16.1289  109.9904 C   0  0  0  0  0  0
   20.3274   16.2251  105.8409 C   0  0  0  0  0  0
   21.4442   17.1610  105.9569 N   0  0  0  0  0  0
   22.7254   16.8473  105.7136 C   0  0  0  0  0  0
   23.7600   17.9540  105.8369 C   0  0  0  0  0  0
   23.1061   15.7348  105.3592 O   0  0  0  0  0  0
   15.7538   12.0124  106.1591 H   0  0  0  0  0  0
   14.5903   13.3231  106.3240 H   0  0  0  0  0  0
   15.8540   14.4631  104.6008 H   0  0  0  0  0  0
   16.8820   13.2083  104.5008 H   0  0  0  0  0  0
   16.4545   14.9087  106.9395 H   0  0  0  0  0  0
   17.6030   13.5909  106.7306 H   0  0  0  0  0  0
   19.8203   12.8796  110.0299 H   0  0  0  0  0  0
   21.7914   12.7530  108.5589 H   0  0  0  0  0  0
   21.9484   14.1368  106.6041 H   0  0  0  0  0  0
   18.3354   16.1627  107.6757 H   0  0  0  0  0  0
   19.3555   15.3882  111.6772 H   0  0  0  0  0  0
   19.8007   14.5450  113.9267 H   0  0  0  0  0  0
   18.5327   12.6097  114.7986 H   0  0  0  0  0  0
   16.8160   11.5212  113.3958 H   0  0  0  0  0  0
   16.3625   12.3092  111.1648 H   0  0  0  0  0  0
   18.8594   16.9532  110.1429 H   0  0  0  0  0  0
   17.9082   19.1621  110.4862 H   0  0  0  0  0  0
   15.4528   19.4735  110.5175 H   0  0  0  0  0  0
   13.9540   17.5341  110.2022 H   0  0  0  0  0  0
   14.8822   15.3019  109.8704 H   0  0  0  0  0  0
   19.4068   16.7872  105.6811 H   0  0  0  0  0  0
   20.4601   15.5981  104.9595 H   0  0  0  0  0  0
   21.2254   18.0587  106.3690 H   0  0  0  0  0  0
   23.5181   18.7381  106.5523 H   0  0  0  0  0  0
   23.9184   18.3633  104.8508 H   0  0  0  0  0  0
   24.7175   17.5621  106.1369 H   0  0  0  0  0  0
  1  3  1  0  0  0
  1  2  1  0  0  0
  1 29  1  0  0  0
  1 30  1  0  0  0
  2 31  1  0  0  0
  2 32  1  0  0  0
  3  4  1  0  0  0
  3 33  1  0  0  0
  3 34  1  0  0  0
  4  5  1  0  0  0
  5  8  1  0  0  0
  5  6  1  0  0  0
  5  7  1  0  0  0
  6  9  2  0  0  0
  6 13  1  0  0  0
  7 19  2  0  0  0
  7 23  1  0  0  0
  8 14  2  0  0  0
  8 18  1  0  0  0
  9 10  1  0  0  0
  9 35  1  0  0  0
 10 11  2  0  0  0
 10 36  1  0  0  0
 11 12  1  0  0  0
 11 37  1  0  0  0
 12 24  1  0  0  0
 12 13  2  0  0  0
 13 38  1  0  0  0
 14 15  1  0  0  0
 14 39  1  0  0  0
 15 16  2  0  0  0
 15 40  1  0  0  0
 16 17  1  0  0  0
 16 41  1  0  0  0
 17 18  2  0  0  0
 17 42  1  0  0  0
 18 43  1  0  0  0
 19 20  1  0  0  0
 19 44  1  0  0  0
 20 21  2  0  0  0
 20 45  1  0  0  0
 21 22  1  0  0  0
 21 46  1  0  0  0
 22 23  2  0  0  0
 22 47  1  0  0  0
 23 48  1  0  0  0
 24 25  1  0  0  0
 24 49  1  0  0  0
 24 50  1  0  0  0
 25 26  1  0  0  0
 25 51  1  0  0  0
 26 27  1  0  0  0
 26 28  2  0  0  0
 27 52  1  0  0  0
 27 53  1  0  0  0
 27 54  1  0  0  0
M  END
> <s_m_entry_id>
144

> <s_m_entry_name>
dock_pv.143

> <s_m_Source_Path>
/home/csk/Desktop/cluster/DUD-E-result/kif11

> <s_m_Source_File>
dock_pv.maegz

> <i_m_Source_File_Index>
143

> <chembl_id>
CHEMBL2024122

> <chembl_pref_name>
None

> <i_lp_mmshare_version>
53161

> <i_f3d_flags>
0

> <r_lp_tautomer_probability>
1

> <s_lp_Force_Field>
OPLS_2005

> <r_lp_Energy>
23.22044

> <b_lp_Chiralities_Consistent>
1

> <s_lp_Variant>
CHEMBL4581_lig844-1

> <s_i_glide_gridfile>
glide-grid_3cjo

> <i_i_glide_lignum>
1231

> <i_i_glide_rotatable_bonds>
9

> <r_i_docking_score>
-8.32617149553543

> <r_i_glide_ligand_efficiency>
-0.297363267697694

> <r_i_glide_ligand_efficiency_sa>
-0.902970018328768

> <r_i_glide_ligand_efficiency_ln>
-1.92192484818744

> <r_i_glide_gscore>
-8.32617149553543

> <r_i_glide_lipo>
-4.93735203015195

> <r_i_glide_hbond>
-0.402103361247876

> <r_i_glide_metal>
0

> <r_i_glide_rewards>
-1.29630426918397

> <r_i_glide_evdw>
-45.2161636352539

> <r_i_glide_ecoul>
-2.16535806655884

> <r_i_glide_erotb>
0.895200056794883

> <r_i_glide_esite>
0

> <r_i_glide_emodel>
-70.570220603171

> <r_i_glide_energy>
-47.3815217018127

> <r_i_glide_einternal>
3.04086422920227

> <i_i_glide_confnum>
124

> <i_i_glide_posenum>
106

> <r_i_glide_eff_state_penalty>
0

> <s_user_duplicate_titles>
CHEMBL4581_lig844

> <s_m_subgroup_title>
dock_pv

> <s_m_subgroupid>
dock_pv

> <b_m_subgroup_collapsed>
1

$$$$
CHEMBL4581_lig808
                    3D
 Schrodinger Suite 2021-1.
 48 50  0  0  1  0            999 V2000
   16.0802   13.1387  106.3483 C   0  0  1  0  0  0
   16.3116   12.0738  105.3590 N   0  0  0  0  0  0
   17.0821   13.0727  107.5272 C   0  0  0  0  0  0
   16.7443   14.0933  108.5238 N   0  0  2  0  0  0
   17.7679   14.7529  109.3625 C   0  0  0  0  0  0
   19.0552   14.9075  108.4898 C   0  0  0  0  0  0
   17.1890   16.1434  109.7738 C   0  0  0  0  0  0
   18.0125   14.0029  110.7107 C   0  0  0  0  0  0
   19.1092   15.8929  107.4906 C   0  0  0  0  0  0
   20.1394   15.9088  106.5578 C   0  0  0  0  0  0
   21.1212   14.9261  106.6079 C   0  0  0  0  0  0
   21.1180   13.9623  107.6145 C   0  0  0  0  0  0
   20.0931   13.9612  108.5586 C   0  0  0  0  0  0
   18.9811   14.4866  111.6085 C   0  0  0  0  0  0
   19.1180   13.9458  112.8827 C   0  0  0  0  0  0
   18.3127   12.8815  113.2683 C   0  0  0  0  0  0
   17.3745   12.3608  112.3840 C   0  0  0  0  0  0
   17.2283   12.9078  111.1126 C   0  0  0  0  0  0
   15.8014   16.3969  109.8245 C   0  0  0  0  0  0
   15.3142   17.6367  110.2202 C   0  0  0  0  0  0
   16.2050   18.6386  110.5845 C   0  0  0  0  0  0
   17.5750   18.4019  110.5603 C   0  0  0  0  0  0
   18.0594   17.1724  110.1539 C   0  0  0  0  0  0
   16.0321   14.5139  105.6229 C   0  0  0  0  0  0
   15.1018   15.3004  105.8032 O   0  0  0  0  0  0
   17.1181   14.7620  104.8253 O   0  0  0  0  0  0
   15.0817   12.9895  106.7644 H   0  0  0  0  0  0
   17.2926   12.0046  105.1065 H   0  0  0  0  0  0
   16.0875   11.1940  105.8173 H   0  0  0  0  0  0
   18.0723   13.1866  107.1002 H   0  0  0  0  0  0
   17.1049   12.0885  107.9964 H   0  0  0  0  0  0
   15.9802   13.7970  109.1105 H   0  0  0  0  0  0
   18.3114   16.6154  107.3910 H   0  0  0  0  0  0
   20.1564   16.6595  105.7822 H   0  0  0  0  0  0
   21.9081   14.9212  105.8673 H   0  0  0  0  0  0
   21.8926   13.2097  107.6481 H   0  0  0  0  0  0
   20.0715   13.1723  109.2969 H   0  0  0  0  0  0
   19.6217   15.3110  111.3409 H   0  0  0  0  0  0
   19.8534   14.3441  113.5678 H   0  0  0  0  0  0
   18.4127   12.4593  114.2583 H   0  0  0  0  0  0
   16.7340   11.5499  112.6924 H   0  0  0  0  0  0
   16.4723   12.4871  110.4680 H   0  0  0  0  0  0
   15.0826   15.6364  109.5578 H   0  0  0  0  0  0
   14.2500   17.8199  110.2462 H   0  0  0  0  0  0
   15.8307   19.6003  110.9016 H   0  0  0  0  0  0
   18.2758   19.1629  110.8631 H   0  0  0  0  0  0
   19.1251   17.0314  110.1329 H   0  0  0  0  0  0
   17.7171   14.0058  104.7533 H   0  0  0  0  0  0
  1  3  1  0  0  0
  1 24  1  0  0  0
  1  2  1  0  0  0
  1 27  1  0  0  0
  2 28  1  0  0  0
  2 29  1  0  0  0
  3  4  1  0  0  0
  3 30  1  0  0  0
  3 31  1  0  0  0
  4  5  1  0  0  0
  4 32  1  0  0  0
  5  7  1  0  0  0
  5  8  1  0  0  0
  5  6  1  0  0  0
  6 13  1  0  0  0
  6  9  2  0  0  0
  7 19  2  0  0  0
  7 23  1  0  0  0
  8 14  2  0  0  0
  8 18  1  0  0  0
  9 10  1  0  0  0
  9 33  1  0  0  0
 10 11  2  0  0  0
 10 34  1  0  0  0
 11 12  1  0  0  0
 11 35  1  0  0  0
 12 13  2  0  0  0
 12 36  1  0  0  0
 13 37  1  0  0  0
 14 15  1  0  0  0
 14 38  1  0  0  0
 15 16  2  0  0  0
 15 39  1  0  0  0
 16 17  1  0  0  0
 16 40  1  0  0  0
 17 18  2  0  0  0
 17 41  1  0  0  0
 18 42  1  0  0  0
 19 20  1  0  0  0
 19 43  1  0  0  0
 20 21  2  0  0  0
 20 44  1  0  0  0
 21 22  1  0  0  0
 21 45  1  0  0  0
 22 23  2  0  0  0
 22 46  1  0  0  0
 23 47  1  0  0  0
 24 25  2  0  0  0
 24 26  1  0  0  0
 26 48  1  0  0  0
M  END
> <s_m_entry_id>
145

> <s_m_entry_name>
dock_pv.144

> <s_m_Source_Path>
/home/csk/Desktop/cluster/DUD-E-result/kif11

> <s_m_Source_File>
dock_pv.maegz

> <i_m_Source_File_Index>
144

> <chembl_id>
CHEMBL2022586

> <chembl_pref_name>
None

> <i_lp_mmshare_version>
53161

> <i_f3d_flags>
0

> <r_lp_tautomer_probability>
1

> <s_lp_Force_Field>
OPLS_2005

> <r_lp_Energy>
28.203573

> <b_lp_Chiralities_Consistent>
1

> <s_lp_Variant>
CHEMBL4581_lig808-1

> <s_i_glide_gridfile>
glide-grid_3cjo

> <i_i_glide_lignum>
1194

> <i_i_glide_rotatable_bonds>
8

> <r_i_docking_score>
-8.32378678340035

> <r_i_glide_ligand_efficiency>
-0.320145645515398

> <r_i_glide_ligand_efficiency_sa>
-0.94843021512708

> <r_i_glide_ligand_efficiency_ln>
-1.95481401350942

> <r_i_glide_gscore>
-8.32378678340035

> <r_i_glide_lipo>
-4.70378184967659

> <r_i_glide_hbond>
-0.377006964329413

> <r_i_glide_metal>
0

> <r_i_glide_rewards>
-1.13878748484848

> <r_i_glide_evdw>
-39.6597442626953

> <r_i_glide_ecoul>
-8.14271068572998

> <r_i_glide_erotb>
1.10895123133058

> <r_i_glide_esite>
-0.0087678998821703

> <r_i_glide_emodel>
-69.4226544215905

> <r_i_glide_energy>
-47.8024549484253

> <r_i_glide_einternal>
8.88401985168457

> <i_i_glide_confnum>
25

> <i_i_glide_posenum>
108

> <r_i_glide_eff_state_penalty>
0

> <s_user_duplicate_titles>
CHEMBL4581_lig808

> <s_m_subgroup_title>
dock_pv

> <s_m_subgroupid>
dock_pv

> <b_m_subgroup_collapsed>
1

$$$$
CHEMBL4581_lig800
                    3D
 Schrodinger Suite 2021-1.
 53 55  0  0  1  0            999 V2000
   17.5680   18.3618  110.4496 C   0  0  0  0  0  0
   17.9927   17.1081  110.0301 C   0  0  0  0  0  0
   17.1230   16.0060  110.0632 C   0  0  0  0  0  0
   15.8261   16.2009  110.5591 C   0  0  0  0  0  0
   15.3896   17.4603  110.9578 C   0  0  0  0  0  0
   16.2639   18.5396  110.8958 C   0  0  0  0  0  0
   17.5968   14.5766  109.6675 C   0  0  0  0  0  0
   18.8592   14.5267  108.7446 C   0  0  0  0  0  0
   17.8839   13.9044  111.0559 C   0  0  0  0  0  0
   19.8822   13.5860  108.9607 C   0  0  0  0  0  0
   21.0209   13.5620  108.1586 C   0  0  0  0  0  0
   21.1179   14.4322  107.0771 C   0  0  0  0  0  0
   20.1332   15.3851  106.8496 C   0  0  0  0  0  0
   19.0247   15.4390  107.6882 C   0  0  0  0  0  0
   16.2434   13.6338  108.7667 S   0  0  0  0  0  0
   15.4885   14.4498  107.2808 C   0  0  0  0  0  0
   16.3588   14.0438  106.0226 C   0  0  1  0  0  0
   14.0681   13.8242  107.1864 C   0  0  0  0  0  0
   15.2795   15.9814  107.4375 C   0  0  0  0  0  0
   18.8789   14.4650  111.8797 C   0  0  0  0  0  0
   19.1179   13.9800  113.1619 C   0  0  0  0  0  0
   18.3689   12.9136  113.6446 C   0  0  0  0  0  0
   17.3995   12.3235  112.8439 C   0  0  0  0  0  0
   17.1644   12.8024  111.5580 C   0  0  0  0  0  0
   16.3180   12.6058  105.6835 N   0  0  0  0  0  0
   16.0445   14.7859  104.6937 C   0  0  0  0  0  0
   17.1180   14.7619  103.8532 O   0  0  0  0  0  0
   14.9633   15.3125  104.4302 O   0  0  0  0  0  0
   18.2643   19.1827  110.4420 H   0  0  0  0  0  0
   19.0223   17.0050  109.7249 H   0  0  0  0  0  0
   15.1403   15.3713  110.6221 H   0  0  0  0  0  0
   14.3827   17.6002  111.3234 H   0  0  0  0  0  0
   15.9317   19.5152  111.2228 H   0  0  0  0  0  0
   19.8094   12.8548  109.7520 H   0  0  0  0  0  0
   21.7975   12.8335  108.3362 H   0  0  0  0  0  0
   21.9819   14.3902  106.4291 H   0  0  0  0  0  0
   20.2284   16.0818  106.0301 H   0  0  0  0  0  0
   18.2888   16.1990  107.4895 H   0  0  0  0  0  0
   17.3852   14.2898  106.2663 H   0  0  0  0  0  0
   13.5189   14.1907  106.3181 H   0  0  0  0  0  0
   14.0977   12.7364  107.1080 H   0  0  0  0  0  0
   13.4696   14.0582  108.0667 H   0  0  0  0  0  0
   14.7654   16.4304  106.5905 H   0  0  0  0  0  0
   14.6362   16.2073  108.2872 H   0  0  0  0  0  0
   16.2073   16.5269  107.5631 H   0  0  0  0  0  0
   19.4652   15.3028  111.5317 H   0  0  0  0  0  0
   19.8791   14.4325  113.7801 H   0  0  0  0  0  0
   18.5442   12.5414  114.6451 H   0  0  0  0  0  0
   16.8095   11.4999  113.2211 H   0  0  0  0  0  0
   16.3895   12.3100  110.9918 H   0  0  0  0  0  0
   17.2005   12.3152  105.2715 H   0  0  0  0  0  0
   16.1678   12.0328  106.5095 H   0  0  0  0  0  0
   17.7888   14.1287  104.1579 H   0  0  0  0  0  0
  1  6  1  0  0  0
  1  2  2  0  0  0
  1 29  1  0  0  0
  2  3  1  0  0  0
  2 30  1  0  0  0
  3  7  1  0  0  0
  3  4  2  0  0  0
  4  5  1  0  0  0
  4 31  1  0  0  0
  5  6  2  0  0  0
  5 32  1  0  0  0
  6 33  1  0  0  0
  7 15  1  0  0  0
  7  8  1  0  0  0
  7  9  1  0  0  0
  8 14  1  0  0  0
  8 10  2  0  0  0
  9 20  2  0  0  0
  9 24  1  0  0  0
 10 11  1  0  0  0
 10 34  1  0  0  0
 11 12  2  0  0  0
 11 35  1  0  0  0
 12 13  1  0  0  0
 12 36  1  0  0  0
 13 14  2  0  0  0
 13 37  1  0  0  0
 14 38  1  0  0  0
 15 16  1  0  0  0
 16 17  1  0  0  0
 16 18  1  0  0  0
 16 19  1  0  0  0
 17 25  1  0  0  0
 17 26  1  0  0  0
 17 39  1  0  0  0
 18 40  1  0  0  0
 18 41  1  0  0  0
 18 42  1  0  0  0
 19 43  1  0  0  0
 19 44  1  0  0  0
 19 45  1  0  0  0
 20 21  1  0  0  0
 20 46  1  0  0  0
 21 22  2  0  0  0
 21 47  1  0  0  0
 22 23  1  0  0  0
 22 48  1  0  0  0
 23 24  2  0  0  0
 23 49  1  0  0  0
 24 50  1  0  0  0
 25 51  1  0  0  0
 25 52  1  0  0  0
 26 27  1  0  0  0
 26 28  2  0  0  0
 27 53  1  0  0  0
M  END
> <s_m_entry_id>
146

> <s_m_entry_name>
dock_pv.145

> <s_m_Source_Path>
/home/csk/Desktop/cluster/DUD-E-result/kif11

> <s_m_Source_File>
dock_pv.maegz

> <i_m_Source_File_Index>
145

> <chembl_id>
CHEMBL408179

> <chembl_pref_name>
None

> <i_lp_mmshare_version>
53161

> <i_f3d_flags>
0

> <r_lp_tautomer_probability>
1

> <s_lp_Force_Field>
OPLS_2005

> <r_lp_Energy>
35.495315

> <b_lp_Chiralities_Consistent>
1

> <s_lp_Variant>
CHEMBL4581_lig800-2

> <s_i_glide_gridfile>
glide-grid_3cjo

> <i_i_glide_lignum>
1185

> <i_i_glide_rotatable_bonds>
8

> <r_i_docking_score>
-8.31107176425073

> <r_i_glide_ligand_efficiency>
-0.296823991580383

> <r_i_glide_ligand_efficiency_sa>
-0.901332458419964

> <r_i_glide_ligand_efficiency_ln>
-1.91843938685956

> <r_i_glide_gscore>
-8.31107176425073

> <r_i_glide_lipo>
-4.64585766285995

> <r_i_glide_hbond>
-0.39231630076146

> <r_i_glide_metal>
0

> <r_i_glide_rewards>
-0.847923333333332

> <r_i_glide_evdw>
-42.606372833252

> <r_i_glide_ecoul>
-7.82898426055908

> <r_i_glide_erotb>
0.891159471452689

> <r_i_glide_esite>
-0.0114676580022131

> <r_i_glide_emodel>
-77.3469399989803

> <r_i_glide_energy>
-50.435357093811

> <r_i_glide_einternal>
2.89819836616516

> <i_i_glide_confnum>
12

> <i_i_glide_posenum>
389

> <r_i_glide_eff_state_penalty>
0

> <s_user_duplicate_titles>
CHEMBL4581_lig800

> <s_m_subgroup_title>
dock_pv

> <s_m_subgroupid>
dock_pv

> <b_m_subgroup_collapsed>
1

$$$$
CHEMBL4581_lig842
                    3D
 Schrodinger Suite 2021-1.
 45 47  0  0  1  0            999 V2000
   16.7791   14.0341  106.0144 C   0  0  0  0  0  0
   16.3099   12.7295  105.5941 N   0  0  0  0  0  0
   16.0702   14.4945  107.2978 C   0  0  0  0  0  0
   16.4957   13.5559  108.8034 S   0  0  0  0  0  0
   17.7377   14.5686  109.7518 C   0  0  0  0  0  0
   18.9964   14.5614  108.8341 C   0  0  0  0  0  0
   17.1811   15.9945  110.0490 C   0  0  0  0  0  0
   18.0143   13.9330  111.1537 C   0  0  0  0  0  0
   20.0081   13.5988  108.9912 C   0  0  0  0  0  0
   21.0938   13.5505  108.1178 C   0  0  0  0  0  0
   21.1507   14.4188  107.0322 C   0  0  0  0  0  0
   20.2046   15.4289  106.8960 C   0  0  0  0  0  0
   19.1427   15.5033  107.7977 C   0  0  0  0  0  0
   18.9779   14.5253  111.9881 C   0  0  0  0  0  0
   19.1910   14.0637  113.2829 C   0  0  0  0  0  0
   18.4587   12.9841  113.7596 C   0  0  0  0  0  0
   17.5203   12.3616  112.9478 C   0  0  0  0  0  0
   17.3054   12.8233  111.6532 C   0  0  0  0  0  0
   15.8080   16.2153  110.2295 C   0  0  0  0  0  0
   15.3122   17.4882  110.4962 C   0  0  0  0  0  0
   16.1930   18.5587  110.6006 C   0  0  0  0  0  0
   17.5614   18.3611  110.4485 C   0  0  0  0  0  0
   18.0484   17.0920  110.1698 C   0  0  0  0  0  0
   20.3318   16.3946  105.8180 C   0  0  0  0  0  0
   20.4370   17.1618  104.9601 N   0  0  0  0  0  0
   16.6060   14.7446  105.2053 H   0  0  0  0  0  0
   17.8566   13.9761  106.1600 H   0  0  0  0  0  0
   16.9919   12.3662  104.9363 H   0  0  0  0  0  0
   16.3168   12.0915  106.3834 H   0  0  0  0  0  0
   14.9891   14.4419  107.1648 H   0  0  0  0  0  0
   16.2851   15.5482  107.4625 H   0  0  0  0  0  0
   19.9424   12.8524  109.7683 H   0  0  0  0  0  0
   21.8526   12.7912  108.2359 H   0  0  0  0  0  0
   21.9741   14.3331  106.3357 H   0  0  0  0  0  0
   18.3994   16.2752  107.6600 H   0  0  0  0  0  0
   19.5568   15.3678  111.6432 H   0  0  0  0  0  0
   19.9256   14.5410  113.9142 H   0  0  0  0  0  0
   18.6200   12.6270  114.7670 H   0  0  0  0  0  0
   16.9424   11.5327  113.3276 H   0  0  0  0  0  0
   16.5507   12.3109  111.0774 H   0  0  0  0  0  0
   15.1168   15.3929  110.1693 H   0  0  0  0  0  0
   14.2516   17.6434  110.6292 H   0  0  0  0  0  0
   15.8157   19.5472  110.8199 H   0  0  0  0  0  0
   18.2527   19.1815  110.5552 H   0  0  0  0  0  0
   19.1157   16.9702  110.0644 H   0  0  0  0  0  0
  1  3  1  0  0  0
  1  2  1  0  0  0
  1 26  1  0  0  0
  1 27  1  0  0  0
  2 28  1  0  0  0
  2 29  1  0  0  0
  3  4  1  0  0  0
  3 30  1  0  0  0
  3 31  1  0  0  0
  4  5  1  0  0  0
  5  7  1  0  0  0
  5  8  1  0  0  0
  5  6  1  0  0  0
  6 13  1  0  0  0
  6  9  2  0  0  0
  7 19  2  0  0  0
  7 23  1  0  0  0
  8 14  2  0  0  0
  8 18  1  0  0  0
  9 10  1  0  0  0
  9 32  1  0  0  0
 10 11  2  0  0  0
 10 33  1  0  0  0
 11 12  1  0  0  0
 11 34  1  0  0  0
 12 13  2  0  0  0
 12 24  1  0  0  0
 13 35  1  0  0  0
 14 15  1  0  0  0
 14 36  1  0  0  0
 15 16  2  0  0  0
 15 37  1  0  0  0
 16 17  1  0  0  0
 16 38  1  0  0  0
 17 18  2  0  0  0
 17 39  1  0  0  0
 18 40  1  0  0  0
 19 20  1  0  0  0
 19 41  1  0  0  0
 20 21  2  0  0  0
 20 42  1  0  0  0
 21 22  1  0  0  0
 21 43  1  0  0  0
 22 23  2  0  0  0
 22 44  1  0  0  0
 23 45  1  0  0  0
 24 25  3  0  0  0
M  END
> <s_m_entry_id>
147

> <s_m_entry_name>
dock_pv.146

> <s_m_Source_Path>
/home/csk/Desktop/cluster/DUD-E-result/kif11

> <s_m_Source_File>
dock_pv.maegz

> <i_m_Source_File_Index>
146

> <chembl_id>
CHEMBL2023006

> <chembl_pref_name>
None

> <i_lp_mmshare_version>
53161

> <i_f3d_flags>
0

> <r_lp_tautomer_probability>
1

> <s_lp_Force_Field>
OPLS_2005

> <r_lp_Energy>
25.288831

> <b_lp_Chiralities_Consistent>
1

> <s_lp_Variant>
CHEMBL4581_lig842-1

> <s_i_glide_gridfile>
glide-grid_3cjo

> <i_i_glide_lignum>
1229

> <i_i_glide_rotatable_bonds>
6

> <r_i_docking_score>
-8.30926622112089

> <r_i_glide_ligand_efficiency>
-0.332370648844835

> <r_i_glide_ligand_efficiency_sa>
-0.971857671840855

> <r_i_glide_ligand_efficiency_ln>
-1.96954510302054

> <r_i_glide_gscore>
-8.30926622112089

> <r_i_glide_lipo>
-4.73240551639649

> <r_i_glide_hbond>
-0.302145483405525

> <r_i_glide_metal>
0

> <r_i_glide_rewards>
-1.49799277029283

> <r_i_glide_evdw>
-45.2334251403809

> <r_i_glide_ecoul>
-2.10088396072388

> <r_i_glide_erotb>
0.800081400101591

> <r_i_glide_esite>
0

> <r_i_glide_emodel>
-66.5064961548764

> <r_i_glide_energy>
-47.3343091011047

> <r_i_glide_einternal>
6.48009920120239

> <i_i_glide_confnum>
99

> <i_i_glide_posenum>
232

> <r_i_glide_eff_state_penalty>
0

> <s_user_duplicate_titles>
CHEMBL4581_lig842

> <s_m_subgroup_title>
dock_pv

> <s_m_subgroupid>
dock_pv

> <b_m_subgroup_collapsed>
1

$$$$
CHEMBL4581_lig840
                    3D
 Schrodinger Suite 2021-1.
 48 50  0  0  1  0            999 V2000
   14.9982   14.1358  106.4005 C   0  0  1  0  0  0
   14.2522   12.8578  106.4820 N   0  0  0  0  0  0
   15.3993   14.7035  107.7815 C   0  0  0  0  0  0
   16.3514   13.5476  108.8412 S   0  0  0  0  0  0
   17.6898   14.5067  109.7092 C   0  0  0  0  0  0
   17.2180   15.9600  110.0097 C   0  0  0  0  0  0
   17.9879   13.8951  111.1180 C   0  0  0  0  0  0
   18.9166   14.4259  108.7467 C   0  0  0  0  0  0
   18.0839   17.0600  109.8852 C   0  0  0  0  0  0
   17.6597   18.3449  110.2080 C   0  0  0  0  0  0
   16.3544   18.5648  110.6363 C   0  0  0  0  0  0
   15.4850   17.4906  110.7788 C   0  0  0  0  0  0
   15.9178   16.2022  110.4812 C   0  0  0  0  0  0
   18.9449   15.2005  107.5742 C   0  0  0  0  0  0
   20.0341   15.1624  106.7101 C   0  0  0  0  0  0
   21.1180   14.3440  107.0056 C   0  0  0  0  0  0
   21.1180   13.5620  108.1590 C   0  0  0  0  0  0
   20.0188   13.5952  109.0158 C   0  0  0  0  0  0
   17.3141   12.7725  111.6349 C   0  0  0  0  0  0
   17.5180   12.3619  112.9485 C   0  0  0  0  0  0
   18.4204   13.0377  113.7590 C   0  0  0  0  0  0
   19.1249   14.1261  113.2616 C   0  0  0  0  0  0
   18.9148   14.5455  111.9525 C   0  0  0  0  0  0
   16.2211   14.0129  105.4578 C   0  0  0  0  0  0
   16.7124   14.9995  104.9120 O   0  0  0  0  0  0
   16.7180   12.7473  105.3589 O   0  0  0  0  0  0
   14.2109   17.6999  111.2254 O   0  0  0  0  0  0
   14.3494   14.8752  105.9284 H   0  0  0  0  0  0
   14.1248   12.4496  105.5672 H   0  0  0  0  0  0
   14.7816   12.1750  107.0189 H   0  0  0  0  0  0
   14.4877   14.9583  108.3228 H   0  0  0  0  0  0
   15.9363   15.6428  107.6564 H   0  0  0  0  0  0
   19.1103   16.9301  109.5752 H   0  0  0  0  0  0
   18.3574   19.1620  110.1430 H   0  0  0  0  0  0
   16.0283   19.5619  110.8843 H   0  0  0  0  0  0
   15.2301   15.3827  110.6154 H   0  0  0  0  0  0
   18.1184   15.8465  107.3230 H   0  0  0  0  0  0
   20.0336   15.7617  105.8113 H   0  0  0  0  0  0
   21.9615   14.3082  106.3315 H   0  0  0  0  0  0
   21.9602   12.9226  108.3765 H   0  0  0  0  0  0
   20.0360   12.9610  109.8886 H   0  0  0  0  0  0
   16.5925   12.2148  111.0582 H   0  0  0  0  0  0
   16.9618   11.5244  113.3414 H   0  0  0  0  0  0
   18.5759   12.7144  114.7786 H   0  0  0  0  0  0
   19.8328   14.6469  113.8893 H   0  0  0  0  0  0
   19.4636   15.4033  111.5931 H   0  0  0  0  0  0
   17.5753   12.7621  104.8878 H   0  0  0  0  0  0
   14.0453   18.6249  111.4197 H   0  0  0  0  0  0
  1  3  1  0  0  0
  1 24  1  0  0  0
  1  2  1  0  0  0
  1 28  1  0  0  0
  2 29  1  0  0  0
  2 30  1  0  0  0
  3  4  1  0  0  0
  3 31  1  0  0  0
  3 32  1  0  0  0
  4  5  1  0  0  0
  5  7  1  0  0  0
  5  8  1  0  0  0
  5  6  1  0  0  0
  6  9  2  0  0  0
  6 13  1  0  0  0
  7 19  2  0  0  0
  7 23  1  0  0  0
  8 14  2  0  0  0
  8 18  1  0  0  0
  9 10  1  0  0  0
  9 33  1  0  0  0
 10 11  2  0  0  0
 10 34  1  0  0  0
 11 12  1  0  0  0
 11 35  1  0  0  0
 12 13  2  0  0  0
 12 27  1  0  0  0
 13 36  1  0  0  0
 14 15  1  0  0  0
 14 37  1  0  0  0
 15 16  2  0  0  0
 15 38  1  0  0  0
 16 17  1  0  0  0
 16 39  1  0  0  0
 17 18  2  0  0  0
 17 40  1  0  0  0
 18 41  1  0  0  0
 19 20  1  0  0  0
 19 42  1  0  0  0
 20 21  2  0  0  0
 20 43  1  0  0  0
 21 22  1  0  0  0
 21 44  1  0  0  0
 22 23  2  0  0  0
 22 45  1  0  0  0
 23 46  1  0  0  0
 24 25  2  0  0  0
 24 26  1  0  0  0
 26 47  1  0  0  0
 27 48  1  0  0  0
M  END
> <s_m_entry_id>
148

> <s_m_entry_name>
dock_pv.147

> <s_m_Source_Path>
/home/csk/Desktop/cluster/DUD-E-result/kif11

> <s_m_Source_File>
dock_pv.maegz

> <i_m_Source_File_Index>
147

> <chembl_id>
CHEMBL2023004

> <chembl_pref_name>
None

> <i_lp_mmshare_version>
53161

> <i_f3d_flags>
0

> <r_lp_tautomer_probability>
0.999999999997365

> <s_lp_Force_Field>
OPLS_2005

> <r_lp_Energy>
26.866677

> <b_lp_Chiralities_Consistent>
1

> <s_lp_Variant>
CHEMBL4581_lig840-1

> <s_i_glide_gridfile>
glide-grid_3cjo

> <i_i_glide_lignum>
1227

> <i_i_glide_rotatable_bonds>
9

> <r_i_docking_score>
-8.296074513952

> <r_i_glide_ligand_efficiency>
-0.307262019035259

> <r_i_glide_ligand_efficiency_sa>
-0.921786056093093

> <r_i_glide_ligand_efficiency_ln>
-1.93118937537039

> <r_i_glide_gscore>
-8.296074513952

> <r_i_glide_lipo>
-4.69410753367443

> <r_i_glide_hbond>
-0.304

> <r_i_glide_metal>
0

> <r_i_glide_rewards>
-0.938441393939393

> <r_i_glide_evdw>
-42.0593757629395

> <r_i_glide_ecoul>
-7.83979558944702

> <r_i_glide_erotb>
0.942581703466547

> <r_i_glide_esite>
-0.0231691632407037

> <r_i_glide_emodel>
-74.096093580088

> <r_i_glide_energy>
-49.8991713523865

> <r_i_glide_einternal>
4.83533096313477

> <i_i_glide_confnum>
116

> <i_i_glide_posenum>
328

> <r_i_glide_eff_state_penalty>
0

> <s_user_duplicate_titles>
CHEMBL4581_lig840

> <s_m_subgroup_title>
dock_pv

> <s_m_subgroupid>
dock_pv

> <b_m_subgroup_collapsed>
1

$$$$
CHEMBL4581_lig332
                    3D
 Schrodinger Suite 2021-1.
 39 42  0  0  1  0            999 V2000
   21.2901   15.8246  105.7452 C   0  0  0  0  0  0
   21.8453   14.6191  106.1591 C   0  0  0  0  0  0
   21.3309   13.9619  107.2769 C   0  0  0  0  0  0
   20.1927   16.3551  106.4167 C   0  0  0  0  0  0
   19.6558   15.7189  107.5409 C   0  0  0  0  0  0
   20.2441   14.5109  107.9752 C   0  0  0  0  0  0
   19.7881   13.8560  109.1394 N   0  0  0  0  0  0
   18.4946   14.2202  109.7238 C   0  0  2  0  0  0
   18.4346   16.3018  108.2431 C   0  0  2  0  0  0
   18.3120   15.7678  109.6906 C   0  0  1  0  0  0
   16.9743   16.2695  110.2936 C   0  0  0  0  0  0
   15.7842   15.9512  109.3717 C   0  0  0  0  0  0
   16.0596   16.4470  107.9407 C   0  0  0  0  0  0
   17.2962   15.9171  107.4686 O   0  0  0  0  0  0
   18.3105   13.6337  111.1218 C   0  0  0  0  0  0
   19.1175   14.0736  112.1784 C   0  0  0  0  0  0
   18.9140   13.5776  113.4616 C   0  0  0  0  0  0
   17.9086   12.6475  113.6960 C   0  0  0  0  0  0
   17.1181   12.1905  112.6464 C   0  0  0  0  0  0
   17.3130   12.6840  111.3578 C   0  0  0  0  0  0
   21.9176   12.8131  107.7042 F   0  0  0  0  0  0
   23.1852   13.9628  105.2943 Cl  0  0  0  0  0  0
   18.5188   17.3913  108.2675 H   0  0  0  0  0  0
   19.1174   16.2274  110.2659 H   0  0  0  0  0  0
   21.6909   16.3371  104.8826 H   0  0  0  0  0  0
   19.7609   17.2795  106.0654 H   0  0  0  0  0  0
   20.0439   12.8918  109.3008 H   0  0  0  0  0  0
   17.7293   13.7682  109.0907 H   0  0  0  0  0  0
   17.0285   17.3494  110.4457 H   0  0  0  0  0  0
   16.7996   15.8418  111.2824 H   0  0  0  0  0  0
   14.8716   16.4070  109.7586 H   0  0  0  0  0  0
   15.6046   14.8757  109.3548 H   0  0  0  0  0  0
   16.0790   17.5377  107.9011 H   0  0  0  0  0  0
   15.2618   16.1257  107.2711 H   0  0  0  0  0  0
   19.8952   14.8042  112.0044 H   0  0  0  0  0  0
   19.5265   13.9244  114.2773 H   0  0  0  0  0  0
   17.7478   12.2766  114.6966 H   0  0  0  0  0  0
   16.3368   11.4675  112.8367 H   0  0  0  0  0  0
   16.6847   12.3303  110.5521 H   0  0  0  0  0  0
  1  2  2  0  0  0
  1  4  1  0  0  0
  1 25  1  0  0  0
  2  3  1  0  0  0
  2 22  1  0  0  0
  3  6  2  0  0  0
  3 21  1  0  0  0
  4  5  2  0  0  0
  4 26  1  0  0  0
  5  9  1  0  0  0
  5  6  1  0  0  0
  6  7  1  0  0  0
  7  8  1  0  0  0
  7 27  1  0  0  0
  8 10  1  0  0  0
  8 15  1  0  0  0
  8 28  1  0  0  0
  9 14  1  0  0  0
  9 10  1  0  0  0
  9 23  1  0  0  0
 10 11  1  0  0  0
 10 24  1  0  0  0
 11 12  1  0  0  0
 11 29  1  0  0  0
 11 30  1  0  0  0
 12 13  1  0  0  0
 12 31  1  0  0  0
 12 32  1  0  0  0
 13 14  1  0  0  0
 13 33  1  0  0  0
 13 34  1  0  0  0
 15 16  2  0  0  0
 15 20  1  0  0  0
 16 17  1  0  0  0
 16 35  1  0  0  0
 17 18  2  0  0  0
 17 36  1  0  0  0
 18 19  1  0  0  0
 18 37  1  0  0  0
 19 20  2  0  0  0
 19 38  1  0  0  0
 20 39  1  0  0  0
M  END
> <s_m_entry_id>
149

> <s_m_entry_name>
dock_pv.148

> <s_m_Source_Path>
/home/csk/Desktop/cluster/DUD-E-result/kif11

> <s_m_Source_File>
dock_pv.maegz

> <i_m_Source_File_Index>
148

> <chembl_id>
CHEMBL1077337

> <chembl_pref_name>
None

> <i_lp_mmshare_version>
53161

> <i_f3d_flags>
0

> <r_lp_tautomer_probability>
1

> <s_lp_Force_Field>
OPLS_2005

> <r_lp_Energy>
26.164046

> <b_lp_Chiralities_Consistent>
1

> <s_lp_Variant>
CHEMBL4581_lig332-1

> <s_i_glide_gridfile>
glide-grid_3cjo

> <i_i_glide_lignum>
485

> <i_i_glide_rotatable_bonds>
1

> <r_i_docking_score>
-8.28414528515802

> <r_i_glide_ligand_efficiency>
-0.376552058416274

> <r_i_glide_ligand_efficiency_sa>
-1.05511367663451

> <r_i_glide_ligand_efficiency_ln>
-2.02494727923383

> <r_i_glide_gscore>
-8.28414528515802

> <r_i_glide_lipo>
-4.59125154061159

> <r_i_glide_hbond>
0

> <r_i_glide_metal>
0

> <r_i_glide_rewards>
-1.73500776423594

> <r_i_glide_evdw>
-37.6783142089844

> <r_i_glide_ecoul>
-1.72337305545807

> <r_i_glide_erotb>
0.18453568845743

> <r_i_glide_esite>
0

> <r_i_glide_emodel>
-58.0275765495395

> <r_i_glide_energy>
-39.4016872644424

> <r_i_glide_einternal>
0.486976712942123

> <i_i_glide_confnum>
2

> <i_i_glide_posenum>
60

> <r_i_glide_eff_state_penalty>
0

> <s_user_duplicate_titles>
CHEMBL4581_lig332,616340

> <s_m_subgroup_title>
dock_pv

> <s_m_subgroupid>
dock_pv

> <b_m_subgroup_collapsed>
1

$$$$
CHEMBL4581_lig262
                    3D
 Schrodinger Suite 2021-1.
 26 27  0  0  1  0            999 V2000
   21.1188   14.3937  107.0457 C   0  0  0  0  0  0
   20.8327   15.6423  106.4883 C   0  0  0  0  0  0
   19.7398   16.3629  106.9731 C   0  0  0  0  0  0
   19.0225   15.9177  108.0822 C   0  0  0  0  0  0
   19.3838   14.7239  108.7071 C   0  0  0  0  0  0
   20.4110   13.9595  108.1584 C   0  0  0  0  0  0
   18.7785   14.2944  109.9802 C   0  0  0  0  0  0
   17.9588   13.1654  110.0294 C   0  0  0  0  0  0
   17.5180   12.6782  111.2545 C   0  0  0  0  0  0
   17.9173   13.3158  112.4294 C   0  0  0  0  0  0
   18.6995   14.4686  112.3882 C   0  0  0  0  0  0
   19.1175   14.9635  111.1589 C   0  0  0  0  0  0
   21.7660   16.2793  105.4689 C   0  0  0  0  0  0
   22.7200   16.9144  106.1547 F   0  0  0  0  0  0
   22.3302   15.3752  104.6750 F   0  0  0  0  0  0
   21.1305   17.1624  104.6992 F   0  0  0  0  0  0
   17.4876   12.7826  113.7039 C   0  0  0  0  0  0
   17.1233   12.3622  114.7123 N   0  0  0  0  0  0
   22.1493   13.6418  106.5937 F   0  0  0  0  0  0
   19.5185   17.3340  106.5579 H   0  0  0  0  0  0
   18.2323   16.5314  108.4903 H   0  0  0  0  0  0
   20.6970   13.0277  108.6243 H   0  0  0  0  0  0
   17.6940   12.6407  109.1216 H   0  0  0  0  0  0
   16.8988   11.7907  111.2775 H   0  0  0  0  0  0
   18.9986   14.9762  113.2954 H   0  0  0  0  0  0
   19.7526   15.8376  111.1259 H   0  0  0  0  0  0
  1  6  1  0  0  0
  1  2  2  0  0  0
  1 19  1  0  0  0
  2  3  1  0  0  0
  2 13  1  0  0  0
  3  4  2  0  0  0
  3 20  1  0  0  0
  4  5  1  0  0  0
  4 21  1  0  0  0
  5  6  2  0  0  0
  5  7  1  0  0  0
  6 22  1  0  0  0
  7 12  1  0  0  0
  7  8  2  0  0  0
  8  9  1  0  0  0
  8 23  1  0  0  0
  9 10  2  0  0  0
  9 24  1  0  0  0
 10 11  1  0  0  0
 10 17  1  0  0  0
 11 12  2  0  0  0
 11 25  1  0  0  0
 12 26  1  0  0  0
 13 14  1  0  0  0
 13 15  1  0  0  0
 13 16  1  0  0  0
 17 18  3  0  0  0
M  END
> <s_m_entry_id>
150

> <s_m_entry_name>
dock_pv.149

> <s_m_Source_Path>
/home/csk/Desktop/cluster/DUD-E-result/kif11

> <s_m_Source_File>
dock_pv.maegz

> <i_m_Source_File_Index>
149

> <chembl_id>
CHEMBL468540

> <chembl_pref_name>
None

> <i_lp_mmshare_version>
53161

> <i_f3d_flags>
0

> <r_lp_tautomer_probability>
1

> <s_lp_Force_Field>
OPLS_2005

> <r_lp_Energy>
14.972031

> <b_lp_Chiralities_Consistent>
1

> <s_lp_Variant>
CHEMBL4581_lig262-1

> <s_i_glide_gridfile>
glide-grid_3cjo

> <i_i_glide_lignum>
387

> <i_i_glide_rotatable_bonds>
2

> <r_i_docking_score>
-8.27526150940875

> <r_i_glide_ligand_efficiency>
-0.435540079442566

> <r_i_glide_ligand_efficiency_sa>
-1.16219586492836

> <r_i_glide_ligand_efficiency_ln>
-2.09795652895549

> <r_i_glide_gscore>
-8.27526150940875

> <r_i_glide_lipo>
-3.49947704549128

> <r_i_glide_hbond>
0

> <r_i_glide_metal>
0

> <r_i_glide_rewards>
-3.49375177995961

> <r_i_glide_evdw>
-31.9861221313477

> <r_i_glide_ecoul>
0.428780019283295

> <r_i_glide_erotb>
0.252956419717026

> <r_i_glide_esite>
0

> <r_i_glide_emodel>
-44.187783610168

> <r_i_glide_energy>
-31.5573421120644

> <r_i_glide_einternal>
4.43106365203857

> <i_i_glide_confnum>
4

> <i_i_glide_posenum>
239

> <r_i_glide_eff_state_penalty>
0

> <s_user_duplicate_titles>
CHEMBL4581_lig262

> <s_m_subgroup_title>
dock_pv

> <s_m_subgroupid>
dock_pv

> <b_m_subgroup_collapsed>
1

$$$$
CHEMBL4581_lig181
                    3D
 Schrodinger Suite 2021-1.
 30 31  0  0  1  0            999 V2000
   17.6164   12.8340  111.8745 C   0  0  0  0  0  0
   18.5953   13.8202  112.0315 C   0  0  0  0  0  0
   19.1228   14.4507  110.9141 C   0  0  0  0  0  0
   18.6932   14.0949  109.6355 C   0  0  0  0  0  0
   17.6647   13.1622  109.4832 C   0  0  0  0  0  0
   17.1218   12.5394  110.6041 C   0  0  0  0  0  0
   19.4119   14.6348  108.4662 C   0  0  0  0  0  0
   20.5433   13.9623  108.0071 C   0  0  0  0  0  0
   21.2871   14.4697  106.9500 C   0  0  0  0  0  0
   20.9570   15.7120  106.4033 C   0  0  0  0  0  0
   19.7956   16.3621  106.8294 C   0  0  0  0  0  0
   19.0201   15.8246  107.8533 C   0  0  0  0  0  0
   21.8986   16.3894  105.4097 C   0  0  0  0  0  0
   22.7396   17.1636  106.0918 F   0  0  0  0  0  0
   21.2370   17.1617  104.5475 F   0  0  0  0  0  0
   22.6246   15.4976  104.7347 F   0  0  0  0  0  0
   17.1173   12.0969  112.9542 N   0  0  0  0  0  0
   17.3609   12.5318  114.3203 C   0  0  0  0  0  0
   18.9889   14.0733  113.0046 H   0  0  0  0  0  0
   19.9174   15.1734  111.0398 H   0  0  0  0  0  0
   17.3254   12.8762  108.4974 H   0  0  0  0  0  0
   16.3627   11.7830  110.4711 H   0  0  0  0  0  0
   20.8497   13.0381  108.4760 H   0  0  0  0  0  0
   22.1707   13.9396  106.6249 H   0  0  0  0  0  0
   19.5252   17.3180  106.4077 H   0  0  0  0  0  0
   18.1481   16.3580  108.2020 H   0  0  0  0  0  0
   16.2710   11.5628  112.7835 H   0  0  0  0  0  0
   16.7202   11.9612  114.9833 H   0  0  0  0  0  0
   18.3996   12.3621  114.6103 H   0  0  0  0  0  0
   17.1181   13.5866  114.4570 H   0  0  0  0  0  0
  1  6  1  0  0  0
  1  2  2  0  0  0
  1 17  1  0  0  0
  2  3  1  0  0  0
  2 19  1  0  0  0
  3  4  2  0  0  0
  3 20  1  0  0  0
  4  5  1  0  0  0
  4  7  1  0  0  0
  5  6  2  0  0  0
  5 21  1  0  0  0
  6 22  1  0  0  0
  7 12  1  0  0  0
  7  8  2  0  0  0
  8  9  1  0  0  0
  8 23  1  0  0  0
  9 10  2  0  0  0
  9 24  1  0  0  0
 10 11  1  0  0  0
 10 13  1  0  0  0
 11 12  2  0  0  0
 11 25  1  0  0  0
 12 26  1  0  0  0
 13 14  1  0  0  0
 13 15  1  0  0  0
 13 16  1  0  0  0
 17 18  1  0  0  0
 17 27  1  0  0  0
 18 28  1  0  0  0
 18 29  1  0  0  0
 18 30  1  0  0  0
M  END
> <s_m_entry_id>
151

> <s_m_entry_name>
dock_pv.150

> <s_m_Source_Path>
/home/csk/Desktop/cluster/DUD-E-result/kif11

> <s_m_Source_File>
dock_pv.maegz

> <i_m_Source_File_Index>
150

> <chembl_id>
CHEMBL243640

> <chembl_pref_name>
None

> <i_lp_mmshare_version>
53161

> <i_f3d_flags>
0

> <r_lp_tautomer_probability>
1

> <s_lp_Force_Field>
OPLS_2005

> <r_lp_Energy>
15.637252

> <b_lp_Chiralities_Consistent>
1

> <s_lp_Variant>
CHEMBL4581_lig181-1

> <s_i_glide_gridfile>
glide-grid_3cjo

> <i_i_glide_lignum>
277

> <i_i_glide_rotatable_bonds>
3

> <r_i_docking_score>
-8.274631809642

> <r_i_glide_ligand_efficiency>
-0.459701767202333

> <r_i_glide_ligand_efficiency_sa>
-1.2047594491374

> <r_i_glide_ligand_efficiency_ln>
-2.12695143924157

> <r_i_glide_gscore>
-8.274631809642

> <r_i_glide_lipo>
-3.6089712663413

> <r_i_glide_hbond>
-0.17480918633416

> <r_i_glide_metal>
0

> <r_i_glide_rewards>
-2.9747751223779

> <r_i_glide_evdw>
-30.2984752655029

> <r_i_glide_ecoul>
-1.85849106311798

> <r_i_glide_erotb>
0.277621188154205

> <r_i_glide_esite>
0

> <r_i_glide_emodel>
-42.4967878176538

> <r_i_glide_energy>
-32.1569663286209

> <r_i_glide_einternal>
4.85379981994629

> <i_i_glide_confnum>
3

> <i_i_glide_posenum>
114

> <r_i_glide_eff_state_penalty>
0

> <s_user_duplicate_titles>
CHEMBL4581_lig181

> <s_m_subgroup_title>
dock_pv

> <s_m_subgroupid>
dock_pv

> <b_m_subgroup_collapsed>
1

$$$$
CHEMBL4581_lig890
                    3D
 Schrodinger Suite 2021-1.
 51 53  0  0  1  0            999 V2000
   17.8598   14.5912  109.1479 C   0  0  2  0  0  0
   18.0118   13.9432  110.5599 C   0  0  0  0  0  0
   19.2082   14.6116  108.3590 C   0  0  0  0  0  0
   18.9721   14.4689  111.4396 C   0  0  0  0  0  0
   19.1179   13.9644  112.7264 C   0  0  0  0  0  0
   18.3183   12.9069  113.1515 C   0  0  0  0  0  0
   17.3646   12.3634  112.2961 C   0  0  0  0  0  0
   17.2116   12.8775  111.0136 C   0  0  0  0  0  0
   20.1890   13.6292  108.5773 C   0  0  0  0  0  0
   21.3291   13.5620  107.7787 C   0  0  0  0  0  0
   21.5179   14.4775  106.7494 C   0  0  0  0  0  0
   20.6161   15.5348  106.5701 C   0  0  0  0  0  0
   19.4649   15.5786  107.3691 C   0  0  0  0  0  0
   17.2266   15.9882  109.4241 C   0  0  0  0  0  0
   15.8343   16.1548  109.5212 C   0  0  0  0  0  0
   15.2825   17.3940  109.8369 C   0  0  0  0  0  0
   16.1169   18.4817  110.0714 C   0  0  0  0  0  0
   17.4978   18.3395  109.9883 C   0  0  0  0  0  0
   18.0440   17.1054  109.6583 C   0  0  0  0  0  0
   16.7470   13.5619  108.0806 S   0  0  0  0  0  0
   16.6326   14.3890  106.4633 C   0  0  0  0  0  0
   15.5859   13.7808  105.5181 C   0  0  0  0  0  0
   15.9181   12.4007  105.2056 N   0  0  0  0  0  0
   20.8495   16.5966  105.5251 C   0  0  0  0  0  0
   19.9181   17.1619  104.9594 O   0  0  0  0  0  0
   22.1167   16.8836  105.2285 N   0  0  0  0  0  0
   18.4790   12.3648  114.5538 C   0  0  0  0  0  0
   19.6058   15.2864  111.1307 H   0  0  0  0  0  0
   19.8613   14.3899  113.3861 H   0  0  0  0  0  0
   16.7223   11.5617  112.6261 H   0  0  0  0  0  0
   16.4452   12.4305  110.3995 H   0  0  0  0  0  0
   20.0420   12.8634  109.3247 H   0  0  0  0  0  0
   22.0465   12.7689  107.9309 H   0  0  0  0  0  0
   22.3945   14.3766  106.1250 H   0  0  0  0  0  0
   18.7364   16.3575  107.1898 H   0  0  0  0  0  0
   15.1632   15.3213  109.3768 H   0  0  0  0  0  0
   14.2113   17.5087  109.9130 H   0  0  0  0  0  0
   15.6931   19.4406  110.3325 H   0  0  0  0  0  0
   18.1554   19.1656  110.1933 H   0  0  0  0  0  0
   19.1179   17.0203  109.6237 H   0  0  0  0  0  0
   16.4136   15.4441  106.6238 H   0  0  0  0  0  0
   17.6055   14.3414  105.9739 H   0  0  0  0  0  0
   14.5923   13.8220  105.9663 H   0  0  0  0  0  0
   15.5437   14.3517  104.5902 H   0  0  0  0  0  0
   16.8771   12.3620  104.8719 H   0  0  0  0  0  0
   15.9021   11.8478  106.0583 H   0  0  0  0  0  0
   22.3084   17.5621  104.5082 H   0  0  0  0  0  0
   22.8698   16.4373  105.7265 H   0  0  0  0  0  0
   17.5399   11.9726  114.9475 H   0  0  0  0  0  0
   19.2367   11.5839  114.5893 H   0  0  0  0  0  0
   18.7957   13.1620  115.2184 H   0  0  0  0  0  0
  1  2  1  0  0  0
  1  3  1  0  0  0
  1 14  1  0  0  0
  1 20  1  0  0  0
  2  4  2  0  0  0
  2  8  1  0  0  0
  3  9  2  0  0  0
  3 13  1  0  0  0
  4  5  1  0  0  0
  4 28  1  0  0  0
  5  6  2  0  0  0
  5 29  1  0  0  0
  6  7  1  0  0  0
  6 27  1  0  0  0
  7  8  2  0  0  0
  7 30  1  0  0  0
  8 31  1  0  0  0
  9 10  1  0  0  0
  9 32  1  0  0  0
 10 11  2  0  0  0
 10 33  1  0  0  0
 11 12  1  0  0  0
 11 34  1  0  0  0
 12 13  2  0  0  0
 12 24  1  0  0  0
 13 35  1  0  0  0
 14 15  2  0  0  0
 14 19  1  0  0  0
 15 16  1  0  0  0
 15 36  1  0  0  0
 16 17  2  0  0  0
 16 37  1  0  0  0
 17 18  1  0  0  0
 17 38  1  0  0  0
 18 19  2  0  0  0
 18 39  1  0  0  0
 19 40  1  0  0  0
 20 21  1  0  0  0
 21 22  1  0  0  0
 21 41  1  0  0  0
 21 42  1  0  0  0
 22 23  1  0  0  0
 22 43  1  0  0  0
 22 44  1  0  0  0
 23 45  1  0  0  0
 23 46  1  0  0  0
 24 25  2  0  0  0
 24 26  1  0  0  0
 26 47  1  0  0  0
 26 48  1  0  0  0
 27 49  1  0  0  0
 27 50  1  0  0  0
 27 51  1  0  0  0
M  END
> <s_m_entry_id>
152

> <s_m_entry_name>
dock_pv.151

> <s_m_Source_Path>
/home/csk/Desktop/cluster/DUD-E-result/kif11

> <s_m_Source_File>
dock_pv.maegz

> <i_m_Source_File_Index>
151

> <chembl_id>
CHEMBL2325423

> <chembl_pref_name>
None

> <i_lp_mmshare_version>
53161

> <i_f3d_flags>
0

> <r_lp_tautomer_probability>
1

> <s_lp_Force_Field>
OPLS_2005

> <r_lp_Energy>
25.577061

> <b_lp_Chiralities_Consistent>
1

> <s_lp_Variant>
CHEMBL4581_lig890-2

> <s_i_glide_gridfile>
glide-grid_3cjo

> <i_i_glide_lignum>
1286

> <i_i_glide_rotatable_bonds>
7

> <r_i_docking_score>
-8.26792607850429

> <r_i_glide_ligand_efficiency>
-0.306219484389048

> <r_i_glide_ligand_efficiency_sa>
-0.918658452157894

> <r_i_glide_ligand_efficiency_ln>
-1.92463688366139

> <r_i_glide_gscore>
-8.26792607850429

> <r_i_glide_lipo>
-4.50292543494558

> <r_i_glide_hbond>
-0.335417207245606

> <r_i_glide_metal>
0

> <r_i_glide_rewards>
-1.38816277085119

> <r_i_glide_evdw>
-45.3215255737305

> <r_i_glide_ecoul>
-3.05411529541016

> <r_i_glide_erotb>
0.682772907536131

> <r_i_glide_esite>
0

> <r_i_glide_emodel>
-70.4406091067469

> <r_i_glide_energy>
-48.3756408691406

> <r_i_glide_einternal>
3.45548152923584

> <i_i_glide_confnum>
27

> <i_i_glide_posenum>
383

> <r_i_glide_eff_state_penalty>
0

> <s_user_duplicate_titles>
CHEMBL4581_lig890

> <s_m_subgroup_title>
dock_pv

> <s_m_subgroupid>
dock_pv

> <b_m_subgroup_collapsed>
1

$$$$
CHEMBL4581_lig867
                    3D
 Schrodinger Suite 2021-1.
 53 55  0  0  1  0            999 V2000
   17.5844   14.5327  109.5518 C   0  0  0  0  0  0
   17.1313   15.9892  109.8873 C   0  0  0  0  0  0
   18.8712   14.4709  108.6616 C   0  0  0  0  0  0
   18.0276   17.0702  109.8648 C   0  0  0  0  0  0
   17.6055   18.3513  110.1977 C   0  0  0  0  0  0
   16.2807   18.5735  110.5589 C   0  0  0  0  0  0
   15.3798   17.5178  110.6109 C   0  0  0  0  0  0
   15.8102   16.2362  110.2880 C   0  0  0  0  0  0
   19.9301   13.5971  108.9583 C   0  0  0  0  0  0
   21.0693   13.5618  108.1595 C   0  0  0  0  0  0
   21.1698   14.3620  107.0268 C   0  0  0  0  0  0
   20.1305   15.2467  106.7212 C   0  0  0  0  0  0
   19.0006   15.2976  107.5324 C   0  0  0  0  0  0
   17.8219   13.8728  110.9504 C   0  0  0  0  0  0
   17.1236   12.7339  111.3896 C   0  0  0  0  0  0
   17.3128   12.2406  112.6780 C   0  0  0  0  0  0
   18.2201   12.8524  113.5361 C   0  0  0  0  0  0
   18.9452   13.9602  113.1137 C   0  0  0  0  0  0
   18.7464   14.4625  111.8325 C   0  0  0  0  0  0
   16.4473   13.7859  108.7336 C   0  0  0  0  0  0
   15.9220   14.4834  107.4397 C   0  0  0  0  0  0
   14.4800   14.1398  106.9757 C   0  0  1  0  0  0
   14.3451   12.7620  106.4702 N   0  0  0  0  0  0
   13.3712   14.4340  108.0244 C   0  0  0  0  0  0
   22.3363   14.2301  106.3004 O   0  0  0  0  0  0
   22.6453   15.1978  105.3085 C   0  0  0  0  0  0
   13.2741   15.7707  108.2807 O   0  0  0  0  0  0
   12.6720   13.5652  108.5482 O   0  0  0  0  0  0
   19.0672   16.9293  109.6119 H   0  0  0  0  0  0
   18.3163   19.1600  110.1872 H   0  0  0  0  0  0
   15.9490   19.5661  110.8233 H   0  0  0  0  0  0
   14.3578   17.6893  110.9150 H   0  0  0  0  0  0
   15.1088   15.4258  110.3741 H   0  0  0  0  0  0
   19.8829   12.9207  109.7979 H   0  0  0  0  0  0
   21.8722   12.8799  108.3944 H   0  0  0  0  0  0
   20.1805   15.8930  105.8590 H   0  0  0  0  0  0
   18.2198   15.9955  107.2705 H   0  0  0  0  0  0
   16.4147   12.2136  110.7651 H   0  0  0  0  0  0
   16.7408   11.3876  113.0140 H   0  0  0  0  0  0
   18.3630   12.4644  114.5349 H   0  0  0  0  0  0
   19.6560   14.4325  113.7751 H   0  0  0  0  0  0
   19.3151   15.3281  111.5271 H   0  0  0  0  0  0
   16.7927   12.7852  108.4645 H   0  0  0  0  0  0
   15.5895   13.6034  109.3769 H   0  0  0  0  0  0
   15.9797   15.5660  107.5475 H   0  0  0  0  0  0
   16.6033   14.2528  106.6188 H   0  0  0  0  0  0
   14.2549   14.8003  106.1367 H   0  0  0  0  0  0
   14.9396   12.0969  106.9588 H   0  0  0  0  0  0
   13.3948   12.4291  106.5640 H   0  0  0  0  0  0
   23.6177   14.9690  104.8747 H   0  0  0  0  0  0
   21.9180   15.1827  104.5024 H   0  0  0  0  0  0
   22.6938   16.2040  105.7290 H   0  0  0  0  0  0
   13.8937   16.2950  107.7713 H   0  0  0  0  0  0
  1  2  1  0  0  0
  1  3  1  0  0  0
  1 14  1  0  0  0
  1 20  1  0  0  0
  2  4  2  0  0  0
  2  8  1  0  0  0
  3  9  2  0  0  0
  3 13  1  0  0  0
  4  5  1  0  0  0
  4 29  1  0  0  0
  5  6  2  0  0  0
  5 30  1  0  0  0
  6  7  1  0  0  0
  6 31  1  0  0  0
  7  8  2  0  0  0
  7 32  1  0  0  0
  8 33  1  0  0  0
  9 10  1  0  0  0
  9 34  1  0  0  0
 10 11  2  0  0  0
 10 35  1  0  0  0
 11 12  1  0  0  0
 11 25  1  0  0  0
 12 13  2  0  0  0
 12 36  1  0  0  0
 13 37  1  0  0  0
 14 15  2  0  0  0
 14 19  1  0  0  0
 15 16  1  0  0  0
 15 38  1  0  0  0
 16 17  2  0  0  0
 16 39  1  0  0  0
 17 18  1  0  0  0
 17 40  1  0  0  0
 18 19  2  0  0  0
 18 41  1  0  0  0
 19 42  1  0  0  0
 20 21  1  0  0  0
 20 43  1  0  0  0
 20 44  1  0  0  0
 21 22  1  0  0  0
 21 45  1  0  0  0
 21 46  1  0  0  0
 22 23  1  0  0  0
 22 24  1  0  0  0
 22 47  1  0  0  0
 23 48  1  0  0  0
 23 49  1  0  0  0
 24 27  1  0  0  0
 24 28  2  0  0  0
 25 26  1  0  0  0
 26 50  1  0  0  0
 26 51  1  0  0  0
 26 52  1  0  0  0
 27 53  1  0  0  0
M  END
> <s_m_entry_id>
153

> <s_m_entry_name>
dock_pv.152

> <s_m_Source_Path>
/home/csk/Desktop/cluster/DUD-E-result/kif11

> <s_m_Source_File>
dock_pv.maegz

> <i_m_Source_File_Index>
152

> <chembl_id>
CHEMBL2325435

> <chembl_pref_name>
None

> <i_lp_mmshare_version>
53161

> <i_f3d_flags>
0

> <r_lp_tautomer_probability>
1

> <s_lp_Force_Field>
OPLS_2005

> <r_lp_Energy>
35.724587

> <b_lp_Chiralities_Consistent>
1

> <s_lp_Variant>
CHEMBL4581_lig867-2

> <s_i_glide_gridfile>
glide-grid_3cjo

> <i_i_glide_lignum>
1258

> <i_i_glide_rotatable_bonds>
9

> <r_i_docking_score>
-8.26710413867396

> <r_i_glide_ligand_efficiency>
-0.295253719238356

> <r_i_glide_ligand_efficiency_sa>
-0.896564186748619

> <r_i_glide_ligand_efficiency_ln>
-1.90829036793086

> <r_i_glide_gscore>
-8.26710413867396

> <r_i_glide_lipo>
-5.00525792809457

> <r_i_glide_hbond>
-0.32

> <r_i_glide_metal>
0

> <r_i_glide_rewards>
-0.966069058630982

> <r_i_glide_evdw>
-44.0813674926758

> <r_i_glide_ecoul>
-4.88269948959351

> <r_i_glide_erotb>
0.960696146124403

> <r_i_glide_esite>
0

> <r_i_glide_emodel>
-68.2428590978827

> <r_i_glide_energy>
-48.9640669822693

> <r_i_glide_einternal>
8.21050548553467

> <i_i_glide_confnum>
69

> <i_i_glide_posenum>
59

> <r_i_glide_eff_state_penalty>
0

> <s_user_duplicate_titles>
CHEMBL4581_lig867

> <s_m_subgroup_title>
dock_pv

> <s_m_subgroupid>
dock_pv

> <b_m_subgroup_collapsed>
1

$$$$
CHEMBL4581_lig711
                    3D
 Schrodinger Suite 2021-1.
 49 52  0  0  1  0            999 V2000
   18.5792   17.1164  110.6510 C   0  0  0  0  0  0
   19.2129   16.1655  111.3590 C   0  0  0  0  0  0
   17.5898   14.5573  109.3953 C   0  0  0  0  0  0
   17.2365   17.0409  110.0489 C   0  0  0  0  0  0
   16.6903   15.8365  109.5249 C   0  0  0  0  0  0
   15.3416   15.8751  109.1193 C   0  0  0  0  0  0
   14.5901   17.0464  109.1588 C   0  0  0  0  0  0
   15.1634   18.2234  109.6183 C   0  0  0  0  0  0
   16.4787   18.2187  110.0666 C   0  0  0  0  0  0
   17.8790   14.0687  110.8612 C   0  0  0  0  0  0
   18.7238   14.8269  111.7108 C   0  0  0  0  0  0
   19.0645   14.3622  112.9858 C   0  0  0  0  0  0
   18.5250   13.1831  113.4841 C   0  0  0  0  0  0
   17.6456   12.4540  112.7001 C   0  0  0  0  0  0
   17.3458   12.8807  111.4095 C   0  0  0  0  0  0
   18.8888   14.7851  108.5620 C   0  0  0  0  0  0
   19.9459   13.8662  108.6430 C   0  0  0  0  0  0
   21.0386   13.9620  107.7826 C   0  0  0  0  0  0
   21.1007   14.9957  106.8507 C   0  0  0  0  0  0
   20.0991   15.9599  106.8063 C   0  0  0  0  0  0
   19.0032   15.8561  107.6574 C   0  0  0  0  0  0
   16.7270   13.1920  108.4608 S   0  0  0  0  0  0
   16.7549   13.5223  106.6545 C   0  0  0  0  0  0
   15.3984   14.0153  106.0907 C   0  0  1  0  0  0
   15.3289   14.2042  104.5524 C   0  0  0  0  0  0
   14.2588   13.1613  106.4809 N   0  0  0  0  0  0
   16.3179   13.5744  103.8478 O   0  0  0  0  0  0
   14.4213   14.8549  104.0353 O   0  0  0  0  0  0
   22.4360   15.0957  105.7585 Cl  0  0  0  0  0  0
   19.1091   18.0429  110.4793 H   0  0  0  0  0  0
   20.2095   16.3864  111.7136 H   0  0  0  0  0  0
   14.8402   14.9931  108.7549 H   0  0  0  0  0  0
   13.5618   17.0412  108.8266 H   0  0  0  0  0  0
   14.5849   19.1348  109.6472 H   0  0  0  0  0  0
   16.8953   19.1417  110.4542 H   0  0  0  0  0  0
   19.7200   14.9379  113.6224 H   0  0  0  0  0  0
   18.7693   12.8479  114.4816 H   0  0  0  0  0  0
   17.1891   11.5606  113.0917 H   0  0  0  0  0  0
   16.6639   12.2529  110.8580 H   0  0  0  0  0  0
   19.8885   13.0311  109.3277 H   0  0  0  0  0  0
   21.8236   13.2224  107.8262 H   0  0  0  0  0  0
   20.1584   16.7762  106.1010 H   0  0  0  0  0  0
   18.2194   16.5919  107.5637 H   0  0  0  0  0  0
   17.0178   12.5675  106.1952 H   0  0  0  0  0  0
   17.5527   14.2034  106.3726 H   0  0  0  0  0  0
   15.2309   15.0164  106.4899 H   0  0  0  0  0  0
   13.4927   13.2195  105.8234 H   0  0  0  0  0  0
   14.5278   12.1877  106.5833 H   0  0  0  0  0  0
   17.0209   13.1614  104.3638 H   0  0  0  0  0  0
  1  4  1  0  0  0
  1  2  2  0  0  0
  1 30  1  0  0  0
  2 11  1  0  0  0
  2 31  1  0  0  0
  3 10  1  0  0  0
  3  5  1  0  0  0
  3 16  1  0  0  0
  3 22  1  0  0  0
  4  5  2  0  0  0
  4  9  1  0  0  0
  5  6  1  0  0  0
  6  7  2  0  0  0
  6 32  1  0  0  0
  7  8  1  0  0  0
  7 33  1  0  0  0
  8  9  2  0  0  0
  8 34  1  0  0  0
  9 35  1  0  0  0
 10 11  2  0  0  0
 10 15  1  0  0  0
 11 12  1  0  0  0
 12 13  2  0  0  0
 12 36  1  0  0  0
 13 14  1  0  0  0
 13 37  1  0  0  0
 14 15  2  0  0  0
 14 38  1  0  0  0
 15 39  1  0  0  0
 16 17  2  0  0  0
 16 21  1  0  0  0
 17 18  1  0  0  0
 17 40  1  0  0  0
 18 19  2  0  0  0
 18 41  1  0  0  0
 19 20  1  0  0  0
 19 29  1  0  0  0
 20 21  2  0  0  0
 20 42  1  0  0  0
 21 43  1  0  0  0
 22 23  1  0  0  0
 23 24  1  0  0  0
 23 44  1  0  0  0
 23 45  1  0  0  0
 24 25  1  0  0  0
 24 26  1  0  0  0
 24 46  1  0  0  0
 25 27  1  0  0  0
 25 28  2  0  0  0
 26 47  1  0  0  0
 26 48  1  0  0  0
 27 49  1  0  0  0
M  END
> <s_m_entry_id>
154

> <s_m_entry_name>
dock_pv.153

> <s_m_Source_Path>
/home/csk/Desktop/cluster/DUD-E-result/kif11

> <s_m_Source_File>
dock_pv.maegz

> <i_m_Source_File_Index>
153

> <chembl_id>
CHEMBL3633537

> <chembl_pref_name>
None

> <i_lp_mmshare_version>
53161

> <i_f3d_flags>
0

> <r_lp_tautomer_probability>
1

> <s_lp_Force_Field>
OPLS_2005

> <r_lp_Energy>
38.085484

> <b_lp_Chiralities_Consistent>
1

> <s_lp_Variant>
CHEMBL4581_lig711-1

> <s_i_glide_gridfile>
glide-grid_3cjo

> <i_i_glide_lignum>
1054

> <i_i_glide_rotatable_bonds>
6

> <r_i_docking_score>
-8.26402133287111

> <r_i_glide_ligand_efficiency>
-0.284966252857624

> <r_i_glide_ligand_efficiency_sa>
-0.875506612424431

> <r_i_glide_ligand_efficiency_ln>
-1.8922513277276

> <r_i_glide_gscore>
-8.26402133287111

> <r_i_glide_lipo>
-4.99361252182709

> <r_i_glide_hbond>
-0.12971630997521

> <r_i_glide_metal>
0

> <r_i_glide_rewards>
-0.637432587408209

> <r_i_glide_evdw>
-46.6857986450195

> <r_i_glide_ecoul>
-4.79590654373169

> <r_i_glide_erotb>
0.556243797332807

> <r_i_glide_esite>
-0.00582779718267528

> <r_i_glide_emodel>
-77.2981665180896

> <r_i_glide_energy>
-51.4817051887512

> <r_i_glide_einternal>
4.58675193786621

> <i_i_glide_confnum>
74

> <i_i_glide_posenum>
123

> <r_i_glide_eff_state_penalty>
0

> <s_user_duplicate_titles>
CHEMBL4581_lig711

> <s_m_subgroup_title>
dock_pv

> <s_m_subgroupid>
dock_pv

> <b_m_subgroup_collapsed>
1

$$$$
CHEMBL4581_lig375
                    3D
 Schrodinger Suite 2021-1.
 51 54  0  0  1  0            999 V2000
   21.5226   15.8666  105.7595 C   0  0  0  0  0  0
   21.9897   14.6176  106.1587 C   0  0  0  0  0  0
   21.3889   13.9621  107.2299 C   0  0  0  0  0  0
   20.4269   16.4352  106.3945 C   0  0  0  0  0  0
   19.8183   15.8148  107.4847 C   0  0  0  0  0  0
   20.3093   14.5581  107.9021 C   0  0  0  0  0  0
   19.7772   13.9139  109.0368 N   0  0  0  0  0  0
   18.5162   14.3722  109.6261 C   0  0  2  0  0  0
   18.6340   16.4796  108.1741 C   0  0  2  0  0  0
   18.4302   15.9281  109.6024 C   0  0  1  0  0  0
   17.1107   16.5107  110.1673 C   0  0  0  0  0  0
   15.9217   16.3079  109.2109 C   0  0  0  0  0  0
   16.2592   16.7624  107.7679 C   0  0  1  0  0  0
   17.5076   16.2133  107.3469 O   0  0  0  0  0  0
   18.3106   13.7873  111.0216 C   0  0  0  0  0  0
   17.3148   12.8300  111.2414 C   0  0  0  0  0  0
   17.1197   12.3125  112.5190 C   0  0  0  0  0  0
   17.9103   12.7619  113.5750 C   0  0  0  0  0  0
   18.9082   13.7064  113.3590 C   0  0  0  0  0  0
   19.1173   14.2140  112.0819 C   0  0  0  0  0  0
   15.1394   16.4393  106.7431 C   0  0  0  0  0  0
   14.9511   15.0059  106.5262 N   0  0  1  0  0  0
   19.2437   16.3292  110.2075 H   0  0  0  0  0  0
   18.7831   17.5616  108.2286 H   0  0  0  0  0  0
   21.9091   12.7805  107.6428 F   0  0  0  0  0  0
   22.3134   16.7437  104.5117 Cl  0  0  0  0  0  0
   15.8689   14.4581  105.5285 C   0  0  0  0  0  0
   16.0951   12.9604  105.7854 C   0  0  0  0  0  0
   16.7142   12.7620  107.0438 O   0  0  0  0  0  0
   22.8359   14.1683  105.6608 H   0  0  0  0  0  0
   20.0699   17.4013  106.0694 H   0  0  0  0  0  0
   19.9601   12.9300  109.1745 H   0  0  0  0  0  0
   17.7153   13.9784  109.0018 H   0  0  0  0  0  0
   17.2407   17.5815  110.3378 H   0  0  0  0  0  0
   16.8766   16.0870  111.1448 H   0  0  0  0  0  0
   15.6254   15.2581  109.2121 H   0  0  0  0  0  0
   15.0580   16.8623  109.5805 H   0  0  0  0  0  0
   16.3555   17.8496  107.7641 H   0  0  0  0  0  0
   16.6980   12.4858  110.4245 H   0  0  0  0  0  0
   16.3569   11.5654  112.6915 H   0  0  0  0  0  0
   17.7589   12.3635  114.5681 H   0  0  0  0  0  0
   19.5292   14.0417  114.1741 H   0  0  0  0  0  0
   19.8996   14.9416  111.9208 H   0  0  0  0  0  0
   15.3260   16.9465  105.7943 H   0  0  0  0  0  0
   14.2001   16.8445  107.1208 H   0  0  0  0  0  0
   15.1667   14.5102  107.3823 H   0  0  0  0  0  0
   16.8322   14.9645  105.4657 H   0  0  0  0  0  0
   15.4098   14.5876  104.5485 H   0  0  0  0  0  0
   16.7170   12.5204  105.0069 H   0  0  0  0  0  0
   15.1460   12.4213  105.7694 H   0  0  0  0  0  0
   16.4833   11.8675  107.3426 H   0  0  0  0  0  0
  1  2  2  0  0  0
  1  4  1  0  0  0
  1 26  1  0  0  0
  2  3  1  0  0  0
  2 30  1  0  0  0
  3 25  1  0  0  0
  3  6  2  0  0  0
  4  5  2  0  0  0
  4 31  1  0  0  0
  5  9  1  0  0  0
  5  6  1  0  0  0
  6  7  1  0  0  0
  7  8  1  0  0  0
  7 32  1  0  0  0
  8 10  1  0  0  0
  8 15  1  0  0  0
  8 33  1  0  0  0
  9 10  1  0  0  0
  9 24  1  0  0  0
  9 14  1  0  0  0
 10 23  1  0  0  0
 10 11  1  0  0  0
 11 12  1  0  0  0
 11 34  1  0  0  0
 11 35  1  0  0  0
 12 13  1  0  0  0
 12 36  1  0  0  0
 12 37  1  0  0  0
 13 14  1  0  0  0
 13 21  1  0  0  0
 13 38  1  0  0  0
 15 16  2  0  0  0
 15 20  1  0  0  0
 16 17  1  0  0  0
 16 39  1  0  0  0
 17 18  2  0  0  0
 17 40  1  0  0  0
 18 19  1  0  0  0
 18 41  1  0  0  0
 19 20  2  0  0  0
 19 42  1  0  0  0
 20 43  1  0  0  0
 21 22  1  0  0  0
 21 44  1  0  0  0
 21 45  1  0  0  0
 22 27  1  0  0  0
 22 46  1  0  0  0
 27 28  1  0  0  0
 27 47  1  0  0  0
 27 48  1  0  0  0
 28 29  1  0  0  0
 28 49  1  0  0  0
 28 50  1  0  0  0
 29 51  1  0  0  0
M  END
> <s_m_entry_id>
155

> <s_m_entry_name>
dock_pv.154

> <s_m_Source_Path>
/home/csk/Desktop/cluster/DUD-E-result/kif11

> <s_m_Source_File>
dock_pv.maegz

> <i_m_Source_File_Index>
154

> <chembl_id>
CHEMBL1096002

> <chembl_pref_name>
None

> <i_lp_mmshare_version>
53161

> <i_f3d_flags>
0

> <r_lp_tautomer_probability>
1

> <s_lp_Force_Field>
OPLS_2005

> <r_lp_Energy>
27.264159

> <b_lp_Chiralities_Consistent>
1

> <s_lp_Variant>
CHEMBL4581_lig375-1

> <s_i_glide_gridfile>
glide-grid_3cjo

> <i_i_glide_lignum>
528

> <i_i_glide_rotatable_bonds>
6

> <r_i_docking_score>
-8.25828462282164

> <r_i_glide_ligand_efficiency>
-0.305862393437838

> <r_i_glide_ligand_efficiency_sa>
-0.917587179305443

> <r_i_glide_ligand_efficiency_ln>
-1.92239251173029

> <r_i_glide_gscore>
-8.25828462282164

> <r_i_glide_lipo>
-4.59009330276843

> <r_i_glide_hbond>
-0.32

> <r_i_glide_metal>
0

> <r_i_glide_rewards>
-1.21427373566246

> <r_i_glide_evdw>
-38.1261978149414

> <r_i_glide_ecoul>
-5.77365207672119

> <r_i_glide_erotb>
0.638440117864506

> <r_i_glide_esite>
0

> <r_i_glide_emodel>
-63.975817046279

> <r_i_glide_energy>
-43.8998498916626

> <r_i_glide_einternal>
3.45939564704895

> <i_i_glide_confnum>
76

> <i_i_glide_posenum>
249

> <r_i_glide_eff_state_penalty>
0

> <s_user_duplicate_titles>
CHEMBL4581_lig375,615945

> <s_m_subgroup_title>
dock_pv

> <s_m_subgroupid>
dock_pv

> <b_m_subgroup_collapsed>
1

$$$$
CHEMBL4581_lig104
                    3D
 Schrodinger Suite 2021-1.
 48 50  0  0  1  0            999 V2000
   22.5239   14.1362  106.0518 C   0  0  0  0  0  0
   22.7419   15.2045  105.1868 C   0  0  0  0  0  0
   21.9169   16.3232  105.2386 C   0  0  0  0  0  0
   20.8410   16.3486  106.1183 C   0  0  0  0  0  0
   20.5835   15.2607  106.9683 C   0  0  0  0  0  0
   21.4718   14.1677  106.9588 C   0  0  0  0  0  0
   21.3829   13.1620  107.8585 F   0  0  0  0  0  0
   22.1340   17.3711  104.4157 F   0  0  0  0  0  0
   19.4301   15.3399  107.8740 C   0  0  0  0  0  0
   18.9763   16.4213  108.3469 N   0  0  0  0  0  0
   17.8805   16.2156  109.1044 N   0  0  0  0  0  0
   17.5249   14.7668  109.1963 C   0  0  1  0  0  0
   18.6107   14.1547  108.2896 C   0  0  0  0  0  0
   17.6531   14.1970  110.6480 C   0  0  0  0  0  0
   17.2517   12.8835  110.9460 C   0  0  0  0  0  0
   17.3558   12.3695  112.2346 C   0  0  0  0  0  0
   17.9279   13.1352  113.2413 C   0  0  0  0  0  0
   18.4027   14.4097  112.9595 C   0  0  0  0  0  0
   18.2632   14.9382  111.6780 C   0  0  0  0  0  0
   17.0184   17.2565  109.2376 C   0  0  0  0  0  0
   16.9310   17.7402  110.4875 N   0  0  0  0  0  0
   16.3982   17.7389  108.2863 O   0  0  0  0  0  0
   15.9553   18.7396  110.9117 C   0  0  0  0  0  0
   16.0952   14.5771  108.5507 C   0  0  0  0  0  0
   14.6066   18.1132  111.2970 C   0  0  0  0  0  0
   15.5843   13.1619  108.2649 C   0  0  0  0  0  0
   14.6523   13.1621  107.2063 O   0  0  0  0  0  0
   23.1633   13.2714  106.0256 H   0  0  0  0  0  0
   23.5465   15.1625  104.4716 H   0  0  0  0  0  0
   20.2040   17.2235  106.1217 H   0  0  0  0  0  0
   19.2144   13.4215  108.8248 H   0  0  0  0  0  0
   18.2067   13.6746  107.3975 H   0  0  0  0  0  0
   16.8774   12.2173  110.1901 H   0  0  0  0  0  0
   16.9863   11.3803  112.4483 H   0  0  0  0  0  0
   18.0191   12.7319  114.2407 H   0  0  0  0  0  0
   18.8767   14.9912  113.7345 H   0  0  0  0  0  0
   18.6669   15.9225  111.4984 H   0  0  0  0  0  0
   17.5504   17.3823  111.1965 H   0  0  0  0  0  0
   16.3706   19.2767  111.7591 H   0  0  0  0  0  0
   15.8061   19.4985  110.1390 H   0  0  0  0  0  0
   15.3400   15.0794  109.1578 H   0  0  0  0  0  0
   16.0951   15.1116  107.5955 H   0  0  0  0  0  0
   13.9054   18.8852  111.6160 H   0  0  0  0  0  0
   14.1523   17.5895  110.4543 H   0  0  0  0  0  0
   14.7185   17.4097  112.1229 H   0  0  0  0  0  0
   16.4002   12.5001  107.9802 H   0  0  0  0  0  0
   15.1183   12.7621  109.1600 H   0  0  0  0  0  0
   14.5078   12.2431  106.9585 H   0  0  0  0  0  0
  1  2  2  0  0  0
  1  6  1  0  0  0
  1 28  1  0  0  0
  2  3  1  0  0  0
  2 29  1  0  0  0
  3  4  2  0  0  0
  3  8  1  0  0  0
  4  5  1  0  0  0
  4 30  1  0  0  0
  5  9  1  0  0  0
  5  6  2  0  0  0
  6  7  1  0  0  0
  9 13  1  0  0  0
  9 10  2  0  0  0
 10 11  1  0  0  0
 11 20  1  0  0  0
 11 12  1  0  0  0
 12 14  1  0  0  0
 12 24  1  0  0  0
 12 13  1  0  0  0
 13 31  1  0  0  0
 13 32  1  0  0  0
 14 15  2  0  0  0
 14 19  1  0  0  0
 15 16  1  0  0  0
 15 33  1  0  0  0
 16 17  2  0  0  0
 16 34  1  0  0  0
 17 18  1  0  0  0
 17 35  1  0  0  0
 18 19  2  0  0  0
 18 36  1  0  0  0
 19 37  1  0  0  0
 20 21  1  0  0  0
 20 22  2  0  0  0
 21 23  1  0  0  0
 21 38  1  0  0  0
 23 25  1  0  0  0
 23 39  1  0  0  0
 23 40  1  0  0  0
 24 26  1  0  0  0
 24 41  1  0  0  0
 24 42  1  0  0  0
 25 43  1  0  0  0
 25 44  1  0  0  0
 25 45  1  0  0  0
 26 27  1  0  0  0
 26 46  1  0  0  0
 26 47  1  0  0  0
 27 48  1  0  0  0
M  END
> <s_m_entry_id>
156

> <s_m_entry_name>
dock_pv.155

> <s_m_Source_Path>
/home/csk/Desktop/cluster/DUD-E-result/kif11

> <s_m_Source_File>
dock_pv.maegz

> <i_m_Source_File_Index>
155

> <chembl_id>
CHEMBL382406

> <chembl_pref_name>
None

> <i_lp_mmshare_version>
53161

> <i_f3d_flags>
0

> <r_lp_tautomer_probability>
1

> <s_lp_Force_Field>
OPLS_2005

> <r_lp_Energy>
31.826092

> <b_lp_Chiralities_Consistent>
1

> <s_lp_Variant>
CHEMBL4581_lig104-1

> <s_i_glide_gridfile>
glide-grid_3cjo

> <i_i_glide_lignum>
176

> <i_i_glide_rotatable_bonds>
8

> <r_i_docking_score>
-8.25789980492839

> <r_i_glide_ligand_efficiency>
-0.305848140923274

> <r_i_glide_ligand_efficiency_sa>
-0.917544421761795

> <r_i_glide_ligand_efficiency_ln>
-1.92230293246896

> <r_i_glide_gscore>
-8.25789980492839

> <r_i_glide_lipo>
-3.95399830620159

> <r_i_glide_hbond>
-0.117659670128223

> <r_i_glide_metal>
0

> <r_i_glide_rewards>
-2.5466222744014

> <r_i_glide_evdw>
-40.4578552246094

> <r_i_glide_ecoul>
-2.98894333839417

> <r_i_glide_erotb>
0.831614707792419

> <r_i_glide_esite>
0

> <r_i_glide_emodel>
-62.5277027132074

> <r_i_glide_energy>
-43.4467985630035

> <r_i_glide_einternal>
4.4479455947876

> <i_i_glide_confnum>
57

> <i_i_glide_posenum>
222

> <r_i_glide_eff_state_penalty>
0

> <s_user_duplicate_titles>
CHEMBL4581_lig104,347754

> <s_m_subgroup_title>
dock_pv

> <s_m_subgroupid>
dock_pv

> <b_m_subgroup_collapsed>
1

$$$$
CHEMBL4581_lig538
                    3D
 Schrodinger Suite 2021-1.
 64 67  0  0  1  0            999 V2000
   18.2612   16.3599  107.1938 N   0  0  0  0  0  0
   17.5219   15.5764  107.9109 C   0  0  0  0  0  0
   18.0736   14.4772  108.5999 N   0  0  0  0  0  0
   19.3962   14.0403  108.4571 C   0  0  0  0  0  0
   19.5139   15.9331  106.9070 C   0  0  0  0  0  0
   20.0904   14.7708  107.4006 C   0  0  0  0  0  0
   21.2832   14.4509  106.7288 C   0  0  0  0  0  0
   21.6759   15.4653  105.8680 C   0  0  0  0  0  0
   20.5189   16.7494  105.7584 S   0  0  0  0  0  0
   19.9163   13.1621  109.1479 O   0  0  0  0  0  0
   15.9943   15.8905  107.9222 C   0  0  2  0  0  0
   15.4920   15.9954  106.4987 N   0  0  0  0  0  0
   15.6820   17.0652  108.9118 C   0  0  0  0  0  0
   14.6845   16.9943  106.0247 C   0  0  0  0  0  0
   14.7097   17.3653  104.5475 C   0  0  0  0  0  0
   13.9404   17.6447  106.7594 O   0  0  0  0  0  0
   15.7530   14.8057  105.6405 C   0  0  0  0  0  0
   14.9876   13.5381  106.0597 C   0  0  0  0  0  0
   17.2519   13.6323  109.5184 C   0  0  0  0  0  0
   17.6349   13.5528  111.0023 C   0  0  0  0  0  0
   18.4859   14.4857  111.6113 C   0  0  0  0  0  0
   18.8369   14.3412  112.9509 C   0  0  0  0  0  0
   18.3265   13.2756  113.6872 C   0  0  0  0  0  0
   17.4614   12.3622  113.0961 C   0  0  0  0  0  0
   17.1201   12.4928  111.7531 C   0  0  0  0  0  0
   16.2746   16.9650  110.3318 C   0  0  0  0  0  0
   15.1086   12.4437  104.9886 C   0  0  0  0  0  0
   14.3178   11.2894  105.3590 N   0  0  0  0  0  0
   13.5708   17.9445  103.9694 C   0  0  0  0  0  0
   15.8713   17.6288  102.4265 C   0  0  0  0  0  0
   15.8668   17.2251  103.7603 C   0  0  0  0  0  0
   14.7227   18.1885  101.8647 C   0  0  0  0  0  0
   13.5753   18.3510  102.6391 C   0  0  0  0  0  0
   14.7267   18.6528  100.4203 C   0  0  0  0  0  0
   23.1180   15.5322  104.9584 Cl  0  0  0  0  0  0
   22.2986   12.8545  106.9601 Br  0  0  0  0  0  0
   15.4114   15.0506  108.2821 H   0  0  0  0  0  0
   15.9953   18.0127  108.4694 H   0  0  0  0  0  0
   14.6023   17.1348  109.0444 H   0  0  0  0  0  0
   15.4578   14.9814  104.6085 H   0  0  0  0  0  0
   16.8197   14.5879  105.5736 H   0  0  0  0  0  0
   15.3762   13.1620  107.0067 H   0  0  0  0  0  0
   13.9361   13.7858  106.2147 H   0  0  0  0  0  0
   16.1985   13.8925  109.5214 H   0  0  0  0  0  0
   17.2782   12.6125  109.1225 H   0  0  0  0  0  0
   18.8952   15.3127  111.0494 H   0  0  0  0  0  0
   19.5064   15.0497  113.4146 H   0  0  0  0  0  0
   18.5972   13.1544  114.7268 H   0  0  0  0  0  0
   17.0435   11.5620  113.6841 H   0  0  0  0  0  0
   16.4561   11.7693  111.3003 H   0  0  0  0  0  0
   15.9162   17.7826  110.9584 H   0  0  0  0  0  0
   15.9892   16.0321  110.8181 H   0  0  0  0  0  0
   17.3626   17.0290  110.3230 H   0  0  0  0  0  0
   14.7591   12.8101  104.0217 H   0  0  0  0  0  0
   16.1505   12.1414  104.8672 H   0  0  0  0  0  0
   14.6812   10.9062  106.2346 H   0  0  0  0  0  0
   13.3582   11.5498  105.5369 H   0  0  0  0  0  0
   12.6713   18.0890  104.5512 H   0  0  0  0  0  0
   16.7701   17.5209  101.8380 H   0  0  0  0  0  0
   16.7795   16.8321  104.1854 H   0  0  0  0  0  0
   12.6877   18.7992  102.2164 H   0  0  0  0  0  0
   14.6191   17.8074   99.7421 H   0  0  0  0  0  0
   13.9288   19.3709  100.2268 H   0  0  0  0  0  0
   15.6627   19.1585  100.1883 H   0  0  0  0  0  0
  1  5  1  0  0  0
  1  2  2  0  0  0
  2 11  1  0  0  0
  2  3  1  0  0  0
  3 19  1  0  0  0
  3  4  1  0  0  0
  4 10  2  0  0  0
  4  6  1  0  0  0
  5  9  1  0  0  0
  5  6  2  0  0  0
  6  7  1  0  0  0
  7  8  2  0  0  0
  7 36  1  0  0  0
  8  9  1  0  0  0
  8 35  1  0  0  0
 11 12  1  0  0  0
 11 13  1  0  0  0
 11 37  1  0  0  0
 12 14  1  0  0  0
 12 17  1  0  0  0
 13 26  1  0  0  0
 13 38  1  0  0  0
 13 39  1  0  0  0
 14 15  1  0  0  0
 14 16  2  0  0  0
 15 29  2  0  0  0
 15 31  1  0  0  0
 17 18  1  0  0  0
 17 40  1  0  0  0
 17 41  1  0  0  0
 18 27  1  0  0  0
 18 42  1  0  0  0
 18 43  1  0  0  0
 19 20  1  0  0  0
 19 44  1  0  0  0
 19 45  1  0  0  0
 20 21  2  0  0  0
 20 25  1  0  0  0
 21 22  1  0  0  0
 21 46  1  0  0  0
 22 23  2  0  0  0
 22 47  1  0  0  0
 23 24  1  0  0  0
 23 48  1  0  0  0
 24 25  2  0  0  0
 24 49  1  0  0  0
 25 50  1  0  0  0
 26 51  1  0  0  0
 26 52  1  0  0  0
 26 53  1  0  0  0
 27 28  1  0  0  0
 27 54  1  0  0  0
 27 55  1  0  0  0
 28 56  1  0  0  0
 28 57  1  0  0  0
 29 33  1  0  0  0
 29 58  1  0  0  0
 30 32  1  0  0  0
 30 31  2  0  0  0
 30 59  1  0  0  0
 31 60  1  0  0  0
 32 33  2  0  0  0
 32 34  1  0  0  0
 33 61  1  0  0  0
 34 62  1  0  0  0
 34 63  1  0  0  0
 34 64  1  0  0  0
M  END
> <s_m_entry_id>
157

> <s_m_entry_name>
dock_pv.156

> <s_m_Source_Path>
/home/csk/Desktop/cluster/DUD-E-result/kif11

> <s_m_Source_File>
dock_pv.maegz

> <i_m_Source_File_Index>
156

> <chembl_id>
CHEMBL1829427

> <chembl_pref_name>
None

> <i_lp_mmshare_version>
53161

> <i_f3d_flags>
0

> <r_lp_tautomer_probability>
1

> <s_lp_Force_Field>
OPLS_2005

> <r_lp_Energy>
52.598077

> <b_lp_Chiralities_Consistent>
1

> <s_lp_Variant>
CHEMBL4581_lig538-1

> <s_i_glide_gridfile>
glide-grid_3cjo

> <i_i_glide_lignum>
800

> <i_i_glide_rotatable_bonds>
10

> <r_i_docking_score>
-8.2525801740606

> <r_i_glide_ligand_efficiency>
-0.22923833816835

> <r_i_glide_ligand_efficiency_sa>
-0.75692831438524

> <r_i_glide_ligand_efficiency_ln>
-1.8004900350298

> <r_i_glide_gscore>
-8.2525801740606

> <r_i_glide_lipo>
-4.90631691190968

> <r_i_glide_hbond>
-0.32

> <r_i_glide_metal>
0

> <r_i_glide_rewards>
-0.0543980664112529

> <r_i_glide_evdw>
-53.010684967041

> <r_i_glide_ecoul>
-4.66223478317261

> <r_i_glide_erotb>
0.378004270088276

> <r_i_glide_esite>
0

> <r_i_glide_emodel>
-76.4544321455499

> <r_i_glide_energy>
-57.6729197502136

> <r_i_glide_einternal>
9.48338890075684

> <i_i_glide_confnum>
111

> <i_i_glide_posenum>
187

> <r_i_glide_eff_state_penalty>
0

> <s_user_duplicate_titles>
CHEMBL4581_lig538

> <s_m_subgroup_title>
dock_pv

> <s_m_subgroupid>
dock_pv

> <b_m_subgroup_collapsed>
1

$$$$
CHEMBL4581_lig357
                    3D
 Schrodinger Suite 2021-1.
 61 64  0  0  1  0            999 V2000
   21.5894   15.4031  106.1428 C   0  0  0  0  0  0
   21.9190   14.1121  106.5615 C   0  0  0  0  0  0
   21.2693   13.5621  107.6581 C   0  0  0  0  0  0
   20.5216   16.0778  106.7451 C   0  0  0  0  0  0
   19.8449   15.5279  107.8398 C   0  0  0  0  0  0
   20.2455   14.2579  108.2957 C   0  0  0  0  0  0
   19.6369   13.6339  109.3948 N   0  0  0  0  0  0
   18.4481   14.2130  110.0153 C   0  0  2  0  0  0
   18.7220   16.2883  108.5402 C   0  0  2  0  0  0
   18.5231   15.7695  109.9887 C   0  0  1  0  0  0
   17.2908   16.4704  110.6050 C   0  0  0  0  0  0
   16.0553   16.3706  109.6959 C   0  0  0  0  0  0
   16.3824   16.7903  108.2429 C   0  0  1  0  0  0
   17.5395   16.0954  107.7689 O   0  0  0  0  0  0
   18.2399   13.6180  111.4059 C   0  0  0  0  0  0
   19.0400   14.0239  112.4820 C   0  0  0  0  0  0
   18.8805   13.4370  113.7329 C   0  0  0  0  0  0
   17.9154   12.4513  113.9107 C   0  0  0  0  0  0
   17.1178   12.0423  112.8478 C   0  0  0  0  0  0
   17.2772   12.6241  111.5938 C   0  0  0  0  0  0
   15.1966   16.5591  107.2840 C   0  0  0  0  0  0
   14.9158   15.1411  107.0302 N   0  0  0  0  0  0
   19.3984   16.0909  110.5547 H   0  0  0  0  0  0
   18.9673   17.3518  108.5700 H   0  0  0  0  0  0
   22.4551   16.0918  105.1067 C   0  0  0  0  0  0
   23.3337   16.8512  105.7597 F   0  0  0  0  0  0
   23.1170   15.1766  104.3966 F   0  0  0  0  0  0
   21.7563   16.8829  104.2933 F   0  0  0  0  0  0
   15.2931   14.4798  105.9262 C   0  0  0  0  0  0
   15.1556   13.1514  106.0567 N   0  0  0  0  0  0
   15.7019   15.0296  104.9018 O   0  0  0  0  0  0
   15.2601   12.2124  104.9407 C   0  0  0  0  0  0
   14.0220   12.2026  104.0117 C   0  0  0  0  0  0
   12.8205   11.3880  104.5264 C   0  0  0  0  0  0
   13.1186   10.0042  104.5582 O   0  0  0  0  0  0
   22.7225   13.5570  106.0995 H   0  0  0  0  0  0
   21.5625   12.5823  108.0044 H   0  0  0  0  0  0
   20.2577   17.0711  106.4099 H   0  0  0  0  0  0
   19.7335   12.6379  109.5355 H   0  0  0  0  0  0
   17.5961   13.9009  109.4078 H   0  0  0  0  0  0
   17.5236   17.5237  110.7724 H   0  0  0  0  0  0
   17.0572   16.0601  111.5872 H   0  0  0  0  0  0
   15.2573   16.9986  110.0941 H   0  0  0  0  0  0
   15.6668   15.3515  109.7114 H   0  0  0  0  0  0
   16.5855   17.8639  108.2254 H   0  0  0  0  0  0
   19.8065   14.7714  112.3457 H   0  0  0  0  0  0
   19.5183   13.7260  114.5549 H   0  0  0  0  0  0
   17.7939   11.9903  114.8807 H   0  0  0  0  0  0
   16.3690   11.2764  112.9949 H   0  0  0  0  0  0
   16.6601   12.2892  110.7723 H   0  0  0  0  0  0
   15.4001   17.0836  106.3470 H   0  0  0  0  0  0
   14.2957   17.0226  107.6878 H   0  0  0  0  0  0
   14.3901   14.6474  107.7345 H   0  0  0  0  0  0
   15.0637   12.7438  106.9753 H   0  0  0  0  0  0
   15.4145   11.2160  105.3577 H   0  0  0  0  0  0
   16.1668   12.4120  104.3644 H   0  0  0  0  0  0
   14.3075   11.8280  103.0312 H   0  0  0  0  0  0
   13.7010   13.2285  103.8254 H   0  0  0  0  0  0
   11.9296   11.5718  103.9249 H   0  0  0  0  0  0
   12.5864   11.7026  105.5422 H   0  0  0  0  0  0
   12.3968    9.5339  105.0069 H   0  0  0  0  0  0
  1  4  1  0  0  0
  1 25  1  0  0  0
  1  2  2  0  0  0
  2  3  1  0  0  0
  2 36  1  0  0  0
  3  6  2  0  0  0
  3 37  1  0  0  0
  4  5  2  0  0  0
  4 38  1  0  0  0
  5  6  1  0  0  0
  5  9  1  0  0  0
  6  7  1  0  0  0
  7  8  1  0  0  0
  7 39  1  0  0  0
  8 10  1  0  0  0
  8 15  1  0  0  0
  8 40  1  0  0  0
  9 10  1  0  0  0
  9 24  1  0  0  0
  9 14  1  0  0  0
 10 23  1  0  0  0
 10 11  1  0  0  0
 11 12  1  0  0  0
 11 41  1  0  0  0
 11 42  1  0  0  0
 12 13  1  0  0  0
 12 43  1  0  0  0
 12 44  1  0  0  0
 13 21  1  0  0  0
 13 14  1  0  0  0
 13 45  1  0  0  0
 15 20  1  0  0  0
 15 16  2  0  0  0
 16 17  1  0  0  0
 16 46  1  0  0  0
 17 18  2  0  0  0
 17 47  1  0  0  0
 18 19  1  0  0  0
 18 48  1  0  0  0
 19 20  2  0  0  0
 19 49  1  0  0  0
 20 50  1  0  0  0
 21 22  1  0  0  0
 21 51  1  0  0  0
 21 52  1  0  0  0
 22 29  1  0  0  0
 22 53  1  0  0  0
 25 26  1  0  0  0
 25 27  1  0  0  0
 25 28  1  0  0  0
 29 30  1  0  0  0
 29 31  2  0  0  0
 30 32  1  0  0  0
 30 54  1  0  0  0
 32 33  1  0  0  0
 32 55  1  0  0  0
 32 56  1  0  0  0
 33 34  1  0  0  0
 33 57  1  0  0  0
 33 58  1  0  0  0
 34 35  1  0  0  0
 34 59  1  0  0  0
 34 60  1  0  0  0
 35 61  1  0  0  0
M  END
> <s_m_entry_id>
158

> <s_m_entry_name>
dock_pv.157

> <s_m_Source_Path>
/home/csk/Desktop/cluster/DUD-E-result/kif11

> <s_m_Source_File>
dock_pv.maegz

> <i_m_Source_File_Index>
157

> <chembl_id>
CHEMBL1085895

> <chembl_pref_name>
None

> <i_lp_mmshare_version>
53161

> <i_f3d_flags>
0

> <r_lp_tautomer_probability>
1

> <s_lp_Force_Field>
OPLS_2005

> <r_lp_Energy>
23.320025

> <b_lp_Chiralities_Consistent>
1

> <s_lp_Variant>
CHEMBL4581_lig357-1

> <s_i_glide_gridfile>
glide-grid_3cjo

> <i_i_glide_lignum>
510

> <i_i_glide_rotatable_bonds>
10

> <r_i_docking_score>
-8.22917326516663

> <r_i_glide_ligand_efficiency>
-0.249368886823231

> <r_i_glide_ligand_efficiency_sa>
-0.79985926438612

> <r_i_glide_ligand_efficiency_ln>
-1.83012552579424

> <r_i_glide_gscore>
-8.22917326516663

> <r_i_glide_lipo>
-4.81870073559344

> <r_i_glide_hbond>
-0.164961958201332

> <r_i_glide_metal>
0

> <r_i_glide_rewards>
-1.29144097855281

> <r_i_glide_evdw>
-39.5890502929688

> <r_i_glide_ecoul>
-4.70092391967773

> <r_i_glide_erotb>
0.75045559535857

> <r_i_glide_esite>
-0.0199340855775254

> <r_i_glide_emodel>
-63.2832754342441

> <r_i_glide_energy>
-44.2899742126465

> <r_i_glide_einternal>
3.42877984046936

> <i_i_glide_confnum>
41

> <i_i_glide_posenum>
23

> <r_i_glide_eff_state_penalty>
0

> <s_user_duplicate_titles>
CHEMBL4581_lig357,615592

> <s_m_subgroup_title>
dock_pv

> <s_m_subgroupid>
dock_pv

> <b_m_subgroup_collapsed>
1

$$$$
CHEMBL4581_lig852
                    3D
 Schrodinger Suite 2021-1.
 48 50  0  0  1  0            999 V2000
   15.9638   13.1474  105.7786 C   0  0  0  0  0  0
   16.3169   13.4709  104.4064 N   0  0  0  0  0  0
   16.8841   13.9131  106.7378 C   0  0  0  0  0  0
   16.7115   13.4547  108.4925 S   0  0  0  0  0  0
   17.8545   14.5446  109.4862 C   0  0  0  0  0  0
   19.1791   14.5680  108.6633 C   0  0  0  0  0  0
   17.2217   15.9536  109.7077 C   0  0  0  0  0  0
   18.0555   13.9573  110.9236 C   0  0  0  0  0  0
   20.1890   13.6252  108.8992 C   0  0  0  0  0  0
   21.2983   13.5596  108.0612 C   0  0  0  0  0  0
   21.4138   14.4043  106.9585 C   0  0  0  0  0  0
   20.4550   15.4006  106.7605 C   0  0  0  0  0  0
   19.3611   15.4886  107.6141 C   0  0  0  0  0  0
   18.9594   14.5909  111.7944 C   0  0  0  0  0  0
   19.1202   14.1591  113.1076 C   0  0  0  0  0  0
   18.3947   13.0675  113.5695 C   0  0  0  0  0  0
   17.5177   12.4023  112.7220 C   0  0  0  0  0  0
   17.3490   12.8409  111.4107 C   0  0  0  0  0  0
   15.8296   16.1277  109.8011 C   0  0  0  0  0  0
   15.2817   17.3823  110.0557 C   0  0  0  0  0  0
   16.1186   18.4806  110.2312 C   0  0  0  0  0  0
   17.4997   18.3328  110.1505 C   0  0  0  0  0  0
   18.0423   17.0816  109.8820 C   0  0  0  0  0  0
   22.6261   14.2427  106.0404 C   0  0  0  0  0  0
   22.7173   15.1621  104.9685 O   0  0  0  0  0  0
   16.0779   12.0719  105.9276 H   0  0  0  0  0  0
   14.9181   13.3939  105.9668 H   0  0  0  0  0  0
   17.2875   13.1729  104.2429 H   0  0  0  0  0  0
   15.7495   12.9231  103.7760 H   0  0  0  0  0  0
   16.7269   14.9876  106.6316 H   0  0  0  0  0  0
   17.9116   13.6938  106.4443 H   0  0  0  0  0  0
   20.0949   12.8966  109.6922 H   0  0  0  0  0  0
   22.0485   12.8025  108.2371 H   0  0  0  0  0  0
   20.5393   16.0996  105.9420 H   0  0  0  0  0  0
   18.6152   16.2413  107.4046 H   0  0  0  0  0  0
   19.5349   15.4416  111.4623 H   0  0  0  0  0  0
   19.8082   14.6711  113.7652 H   0  0  0  0  0  0
   18.5130   12.7348  114.5909 H   0  0  0  0  0  0
   16.9469   11.5615  113.0862 H   0  0  0  0  0  0
   16.6404   12.2941  110.8094 H   0  0  0  0  0  0
   15.1560   15.2905  109.6973 H   0  0  0  0  0  0
   14.2094   17.5027  110.1267 H   0  0  0  0  0  0
   15.6974   19.4526  110.4434 H   0  0  0  0  0  0
   18.1602   19.1676  110.3114 H   0  0  0  0  0  0
   19.1179   16.9937  109.8459 H   0  0  0  0  0  0
   23.5225   14.3626  106.6420 H   0  0  0  0  0  0
   22.6663   13.2251  105.6506 H   0  0  0  0  0  0
   21.9717   15.0134  104.3834 H   0  0  0  0  0  0
  1  3  1  0  0  0
  1  2  1  0  0  0
  1 26  1  0  0  0
  1 27  1  0  0  0
  2 28  1  0  0  0
  2 29  1  0  0  0
  3  4  1  0  0  0
  3 30  1  0  0  0
  3 31  1  0  0  0
  4  5  1  0  0  0
  5  7  1  0  0  0
  5  8  1  0  0  0
  5  6  1  0  0  0
  6 13  1  0  0  0
  6  9  2  0  0  0
  7 19  2  0  0  0
  7 23  1  0  0  0
  8 14  2  0  0  0
  8 18  1  0  0  0
  9 10  1  0  0  0
  9 32  1  0  0  0
 10 11  2  0  0  0
 10 33  1  0  0  0
 11 12  1  0  0  0
 11 24  1  0  0  0
 12 13  2  0  0  0
 12 34  1  0  0  0
 13 35  1  0  0  0
 14 15  1  0  0  0
 14 36  1  0  0  0
 15 16  2  0  0  0
 15 37  1  0  0  0
 16 17  1  0  0  0
 16 38  1  0  0  0
 17 18  2  0  0  0
 17 39  1  0  0  0
 18 40  1  0  0  0
 19 20  1  0  0  0
 19 41  1  0  0  0
 20 21  2  0  0  0
 20 42  1  0  0  0
 21 22  1  0  0  0
 21 43  1  0  0  0
 22 23  2  0  0  0
 22 44  1  0  0  0
 23 45  1  0  0  0
 24 25  1  0  0  0
 24 46  1  0  0  0
 24 47  1  0  0  0
 25 48  1  0  0  0
M  END
> <s_m_entry_id>
159

> <s_m_entry_name>
dock_pv.158

> <s_m_Source_Path>
/home/csk/Desktop/cluster/DUD-E-result/kif11

> <s_m_Source_File>
dock_pv.maegz

> <i_m_Source_File_Index>
158

> <chembl_id>
CHEMBL2024130

> <chembl_pref_name>
None

> <i_lp_mmshare_version>
53161

> <i_f3d_flags>
0

> <r_lp_tautomer_probability>
1

> <s_lp_Force_Field>
OPLS_2005

> <r_lp_Energy>
24.661117

> <b_lp_Chiralities_Consistent>
1

> <s_lp_Variant>
CHEMBL4581_lig852-1

> <s_i_glide_gridfile>
glide-grid_3cjo

> <i_i_glide_lignum>
1239

> <i_i_glide_rotatable_bonds>
8

> <r_i_docking_score>
-8.22864877814625

> <r_i_glide_ligand_efficiency>
-0.32914595112585

> <r_i_glide_ligand_efficiency_sa>
-0.962428598520285

> <r_i_glide_ligand_efficiency_ln>
-1.95043635312573

> <r_i_glide_gscore>
-8.22864877814625

> <r_i_glide_lipo>
-4.9579621440016

> <r_i_glide_hbond>
-0.16

> <r_i_glide_metal>
0

> <r_i_glide_rewards>
-1.14287039393939

> <r_i_glide_evdw>
-43.2568473815918

> <r_i_glide_ecoul>
-4.93819427490234

> <r_i_glide_erotb>
0.935755270109688

> <r_i_glide_esite>
0

> <r_i_glide_emodel>
-70.4039446524978

> <r_i_glide_energy>
-48.1950416564941

> <r_i_glide_einternal>
4.25313854217529

> <i_i_glide_confnum>
77

> <i_i_glide_posenum>
90

> <r_i_glide_eff_state_penalty>
0

> <s_user_duplicate_titles>
CHEMBL4581_lig852

> <s_m_subgroup_title>
dock_pv

> <s_m_subgroupid>
dock_pv

> <b_m_subgroup_collapsed>
1

$$$$
CHEMBL4581_lig249
                    3D
 Schrodinger Suite 2021-1.
 47 49  0  0  1  0            999 V2000
   21.0939   13.5618  108.1340 C   0  0  0  0  0  0
   21.1245   14.4197  107.0364 C   0  0  0  0  0  0
   20.1603   15.4055  106.8753 C   0  0  0  0  0  0
   19.1138   15.4865  107.7840 C   0  0  0  0  0  0
   18.9938   14.5628  108.8395 C   0  0  0  0  0  0
   20.0166   13.6154  109.0136 C   0  0  0  0  0  0
   17.7358   14.5668  109.7573 C   0  0  0  0  0  0
   17.1809   15.9918  110.0610 C   0  0  0  0  0  0
   16.5070   13.5484  108.7977 S   0  0  0  0  0  0
   18.0115   13.9318  111.1577 C   0  0  0  0  0  0
   15.8100   16.2074  110.2708 C   0  0  0  0  0  0
   15.3164   17.4819  110.5378 C   0  0  0  0  0  0
   16.1955   18.5567  110.6155 C   0  0  0  0  0  0
   17.5610   18.3613  110.4416 C   0  0  0  0  0  0
   18.0483   17.0926  110.1597 C   0  0  0  0  0  0
   18.9731   14.5274  111.9926 C   0  0  0  0  0  0
   19.1848   14.0688  113.2879 C   0  0  0  0  0  0
   18.4559   12.9855  113.7612 C   0  0  0  0  0  0
   17.5180   12.3618  112.9510 C   0  0  0  0  0  0
   17.3018   12.8222  111.6566 C   0  0  0  0  0  0
   15.9676   14.5635  107.3801 C   0  0  0  0  0  0
   16.6468   14.1434  106.0541 C   0  0  1  0  0  0
   16.1081   12.8826  105.5049 N   0  0  0  0  0  0
   16.5276   15.2549  104.9810 C   0  0  0  0  0  0
   17.5181   15.1608  104.0485 O   0  0  0  0  0  0
   15.6611   16.1282  105.0038 O   0  0  0  0  0  0
   21.8653   12.8159  108.2580 H   0  0  0  0  0  0
   21.9350   14.3450  106.3258 H   0  0  0  0  0  0
   20.2146   16.0936  106.0422 H   0  0  0  0  0  0
   18.3600   16.2417  107.6208 H   0  0  0  0  0  0
   19.9649   12.8832  109.8049 H   0  0  0  0  0  0
   15.1163   15.3845  110.2303 H   0  0  0  0  0  0
   14.2584   17.6359  110.6906 H   0  0  0  0  0  0
   15.8196   19.5465  110.8368 H   0  0  0  0  0  0
   18.2526   19.1825  110.5327 H   0  0  0  0  0  0
   19.1149   16.9720  110.0378 H   0  0  0  0  0  0
   19.5504   15.3705  111.6467 H   0  0  0  0  0  0
   19.9173   14.5494  113.9198 H   0  0  0  0  0  0
   18.6185   12.6262  114.7674 H   0  0  0  0  0  0
   16.9418   11.5316  113.3306 H   0  0  0  0  0  0
   16.5466   12.3108  111.0811 H   0  0  0  0  0  0
   14.8831   14.4810  107.2945 H   0  0  0  0  0  0
   16.1614   15.6121  107.6040 H   0  0  0  0  0  0
   17.7065   13.9975  106.2617 H   0  0  0  0  0  0
   16.8247   12.4145  104.9604 H   0  0  0  0  0  0
   15.8682   12.2445  106.2585 H   0  0  0  0  0  0
   18.0033   14.3245  104.1589 H   0  0  0  0  0  0
  1  2  2  0  0  0
  1  6  1  0  0  0
  1 27  1  0  0  0
  2  3  1  0  0  0
  2 28  1  0  0  0
  3  4  2  0  0  0
  3 29  1  0  0  0
  4  5  1  0  0  0
  4 30  1  0  0  0
  5  7  1  0  0  0
  5  6  2  0  0  0
  6 31  1  0  0  0
  7  8  1  0  0  0
  7  9  1  0  0  0
  7 10  1  0  0  0
  8 15  1  0  0  0
  8 11  2  0  0  0
  9 21  1  0  0  0
 10 16  2  0  0  0
 10 20  1  0  0  0
 11 12  1  0  0  0
 11 32  1  0  0  0
 12 13  2  0  0  0
 12 33  1  0  0  0
 13 14  1  0  0  0
 13 34  1  0  0  0
 14 15  2  0  0  0
 14 35  1  0  0  0
 15 36  1  0  0  0
 16 17  1  0  0  0
 16 37  1  0  0  0
 17 18  2  0  0  0
 17 38  1  0  0  0
 18 19  1  0  0  0
 18 39  1  0  0  0
 19 20  2  0  0  0
 19 40  1  0  0  0
 20 41  1  0  0  0
 21 22  1  0  0  0
 21 42  1  0  0  0
 21 43  1  0  0  0
 22 23  1  0  0  0
 22 24  1  0  0  0
 22 44  1  0  0  0
 23 45  1  0  0  0
 23 46  1  0  0  0
 24 25  1  0  0  0
 24 26  2  0  0  0
 25 47  1  0  0  0
M  END
> <s_m_entry_id>
160

> <s_m_entry_name>
dock_pv.159

> <s_m_Source_Path>
/home/csk/Desktop/cluster/DUD-E-result/kif11

> <s_m_Source_File>
dock_pv.maegz

> <i_m_Source_File_Index>
159

> <chembl_id>
CHEMBL399251

> <chembl_pref_name>
None

> <i_lp_mmshare_version>
53161

> <i_f3d_flags>
0

> <r_lp_tautomer_probability>
1

> <s_lp_Force_Field>
OPLS_2005

> <r_lp_Energy>
25.713513

> <b_lp_Chiralities_Consistent>
1

> <s_lp_Variant>
CHEMBL4581_lig249-1

> <s_i_glide_gridfile>
glide-grid_3cjo

> <i_i_glide_lignum>
374

> <i_i_glide_rotatable_bonds>
8

> <r_i_docking_score>
-8.22403653270723

> <r_i_glide_ligand_efficiency>
-0.316309097411816

> <r_i_glide_ligand_efficiency_sa>
-0.937064456466308

> <r_i_glide_ligand_efficiency_ln>
-1.93138799444141

> <r_i_glide_gscore>
-8.22403653270723

> <r_i_glide_lipo>
-4.73568324247479

> <r_i_glide_hbond>
-0.167882113949665

> <r_i_glide_metal>
0

> <r_i_glide_rewards>
-1.04752821212121

> <r_i_glide_evdw>
-43.41357421875

> <r_i_glide_ecoul>
-7.38933706283569

> <r_i_glide_erotb>
1.01804310155625

> <r_i_glide_esite>
-0.0119067953549518

> <r_i_glide_emodel>
-76.7285337140726

> <r_i_glide_energy>
-50.8029112815857

> <r_i_glide_einternal>
2.56292796134949

> <i_i_glide_confnum>
156

> <i_i_glide_posenum>
75

> <r_i_glide_eff_state_penalty>
0

> <s_user_duplicate_titles>
CHEMBL4581_lig249

> <s_m_subgroup_title>
dock_pv

> <s_m_subgroupid>
dock_pv

> <b_m_subgroup_collapsed>
1

$$$$
CHEMBL4581_lig478
                    3D
 Schrodinger Suite 2021-1.
 48 50  0  0  1  0            999 V2000
   16.4247   13.4646  108.9654 S   0  0  0  0  0  0
   15.5178   14.5117  107.7697 C   0  0  0  0  0  0
   15.2242   13.8946  106.3870 C   0  0  1  0  0  0
   16.5124   13.4649  105.6600 C   0  0  0  0  0  0
   16.3179   13.3271  104.2694 O   0  0  0  0  0  0
   14.3181   12.7620  106.5203 N   0  0  0  0  0  0
   17.7282   14.5133  109.7802 C   0  0  0  0  0  0
   17.1987   15.9549  110.0460 C   0  0  0  0  0  0
   18.0904   13.9502  111.1931 C   0  0  0  0  0  0
   18.0522   17.0642  109.9455 C   0  0  0  0  0  0
   17.5908   18.3430  110.2155 C   0  0  0  0  0  0
   16.2622   18.5422  110.5708 C   0  0  0  0  0  0
   15.3984   17.4592  110.6907 C   0  0  0  0  0  0
   15.8703   16.1748  110.4415 C   0  0  0  0  0  0
   17.4748   12.8163  111.7540 C   0  0  0  0  0  0
   17.7687   12.4118  113.0503 C   0  0  0  0  0  0
   18.7027   13.1138  113.8004 C   0  0  0  0  0  0
   19.3436   14.2246  113.2662 C   0  0  0  0  0  0
   19.0418   14.6344  111.9717 C   0  0  0  0  0  0
   18.9416   14.4496  108.7955 C   0  0  0  0  0  0
   18.9783   15.2615  107.6479 C   0  0  0  0  0  0
   20.0523   15.2163  106.7637 C   0  0  0  0  0  0
   21.1173   14.3623  107.0189 C   0  0  0  0  0  0
   21.1179   13.5620  108.1588 C   0  0  0  0  0  0
   20.0313   13.5938  109.0279 C   0  0  0  0  0  0
   14.5697   14.7805  108.2367 H   0  0  0  0  0  0
   16.0430   15.4540  107.6326 H   0  0  0  0  0  0
   14.7199   14.6539  105.7883 H   0  0  0  0  0  0
   17.2812   14.2261  105.7822 H   0  0  0  0  0  0
   16.9268   12.5433  106.0744 H   0  0  0  0  0  0
   17.2050   13.1584  103.9116 H   0  0  0  0  0  0
   14.1756   12.3692  105.6001 H   0  0  0  0  0  0
   14.7875   12.0308  107.0485 H   0  0  0  0  0  0
   19.0942   16.9463  109.6897 H   0  0  0  0  0  0
   18.2837   19.1638  110.1596 H   0  0  0  0  0  0
   15.9056   19.5412  110.7788 H   0  0  0  0  0  0
   14.3707   17.6153  110.9847 H   0  0  0  0  0  0
   15.1913   15.3441  110.5583 H   0  0  0  0  0  0
   16.7351   12.2371  111.2240 H   0  0  0  0  0  0
   17.2586   11.5620  113.4744 H   0  0  0  0  0  0
   18.9296   12.7924  114.8069 H   0  0  0  0  0  0
   20.0744   14.7629  113.8511 H   0  0  0  0  0  0
   19.5472   15.5048  111.5785 H   0  0  0  0  0  0
   18.1695   15.9415  107.4290 H   0  0  0  0  0  0
   20.0582   15.8419  105.8830 H   0  0  0  0  0  0
   21.9511   14.3187  106.3330 H   0  0  0  0  0  0
   21.9488   12.9001  108.3480 H   0  0  0  0  0  0
   20.0481   12.9361  109.8833 H   0  0  0  0  0  0
  1  7  1  0  0  0
  1  2  1  0  0  0
  2  3  1  0  0  0
  2 26  1  0  0  0
  2 27  1  0  0  0
  3  4  1  0  0  0
  3  6  1  0  0  0
  3 28  1  0  0  0
  4  5  1  0  0  0
  4 29  1  0  0  0
  4 30  1  0  0  0
  5 31  1  0  0  0
  6 32  1  0  0  0
  6 33  1  0  0  0
  7  8  1  0  0  0
  7  9  1  0  0  0
  7 20  1  0  0  0
  8 14  1  0  0  0
  8 10  2  0  0  0
  9 15  2  0  0  0
  9 19  1  0  0  0
 10 11  1  0  0  0
 10 34  1  0  0  0
 11 12  2  0  0  0
 11 35  1  0  0  0
 12 13  1  0  0  0
 12 36  1  0  0  0
 13 14  2  0  0  0
 13 37  1  0  0  0
 14 38  1  0  0  0
 15 16  1  0  0  0
 15 39  1  0  0  0
 16 17  2  0  0  0
 16 40  1  0  0  0
 17 18  1  0  0  0
 17 41  1  0  0  0
 18 19  2  0  0  0
 18 42  1  0  0  0
 19 43  1  0  0  0
 20 21  2  0  0  0
 20 25  1  0  0  0
 21 22  1  0  0  0
 21 44  1  0  0  0
 22 23  2  0  0  0
 22 45  1  0  0  0
 23 24  1  0  0  0
 23 46  1  0  0  0
 24 25  2  0  0  0
 24 47  1  0  0  0
 25 48  1  0  0  0
M  END
> <s_m_entry_id>
161

> <s_m_entry_name>
dock_pv.160

> <s_m_Source_Path>
/home/csk/Desktop/cluster/DUD-E-result/kif11

> <s_m_Source_File>
dock_pv.maegz

> <i_m_Source_File_Index>
160

> <chembl_id>
CHEMBL1818526

> <chembl_pref_name>
None

> <i_lp_mmshare_version>
53161

> <i_f3d_flags>
0

> <r_lp_tautomer_probability>
1

> <s_lp_Force_Field>
OPLS_2005

> <r_lp_Energy>
28.874878

> <b_lp_Chiralities_Consistent>
1

> <s_lp_Variant>
CHEMBL4581_lig478-1

> <s_i_glide_gridfile>
glide-grid_3cjo

> <i_i_glide_lignum>
701

> <i_i_glide_rotatable_bonds>
8

> <r_i_docking_score>
-8.21877959252953

> <r_i_glide_ligand_efficiency>
-0.328751183701181

> <r_i_glide_ligand_efficiency_sa>
-0.961274291569323

> <r_i_glide_ligand_efficiency_ln>
-1.94809706037894

> <r_i_glide_gscore>
-8.21877959252953

> <r_i_glide_lipo>
-4.7170309581278

> <r_i_glide_hbond>
-0.456

> <r_i_glide_metal>
0

> <r_i_glide_rewards>
-1.15120372727273

> <r_i_glide_evdw>
-41.0261840820312

> <r_i_glide_ecoul>
-6.23300123214722

> <r_i_glide_erotb>
1.09171448179464

> <r_i_glide_esite>
0

> <r_i_glide_emodel>
-70.0771680473991

> <r_i_glide_energy>
-47.2591853141785

> <r_i_glide_einternal>
4.14150905609131

> <i_i_glide_confnum>
112

> <i_i_glide_posenum>
170

> <r_i_glide_eff_state_penalty>
0

> <s_user_duplicate_titles>
CHEMBL4581_lig478

> <s_m_subgroup_title>
dock_pv

> <s_m_subgroupid>
dock_pv

> <b_m_subgroup_collapsed>
1

$$$$
CHEMBL4581_lig106
                    3D
 Schrodinger Suite 2021-1.
 41 43  0  0  1  0            999 V2000
   22.6930   14.2364  106.0003 C   0  0  0  0  0  0
   22.6137   15.3841  105.2244 C   0  0  0  0  0  0
   21.5599   16.2754  105.4024 C   0  0  0  0  0  0
   20.5768   16.0076  106.3549 C   0  0  0  0  0  0
   20.6507   14.8548  107.1550 C   0  0  0  0  0  0
   21.7204   13.9616  106.9591 C   0  0  0  0  0  0
   21.8626   12.8442  107.7099 F   0  0  0  0  0  0
   21.4866   17.3896  104.6440 F   0  0  0  0  0  0
   19.6194   14.6173  108.1784 C   0  0  0  0  0  0
   19.8201   14.1554  109.3444 N   0  0  0  0  0  0
   18.6641   14.1460  110.0679 N   0  0  0  0  0  0
   17.5194   14.6929  109.2941 C   0  0  2  0  0  0
   18.1679   14.9049  107.9187 C   0  0  0  0  0  0
   17.0024   16.0552  109.8489 C   0  0  0  0  0  0
   15.6365   16.3056  110.0500 C   0  0  0  0  0  0
   15.2022   17.5451  110.5076 C   0  0  0  0  0  0
   16.1259   18.5558  110.7524 C   0  0  0  0  0  0
   17.4852   18.3344  110.5593 C   0  0  0  0  0  0
   17.9185   17.0860  110.1180 C   0  0  0  0  0  0
   18.7168   14.0358  111.4201 C   0  0  0  0  0  0
   17.9190   13.0680  111.9044 N   0  0  0  0  0  0
   19.4702   14.7051  112.1324 O   0  0  0  0  0  0
   17.7619   12.7620  113.3201 C   0  0  0  0  0  0
   16.4109   13.6025  109.1740 C   0  0  0  0  0  0
   23.5176   13.5620  105.8514 H   0  0  0  0  0  0
   23.3658   15.5623  104.4752 H   0  0  0  0  0  0
   19.7823   16.7294  106.4763 H   0  0  0  0  0  0
   18.0152   15.9209  107.5508 H   0  0  0  0  0  0
   17.7916   14.2208  107.1551 H   0  0  0  0  0  0
   14.8912   15.5550  109.8447 H   0  0  0  0  0  0
   14.1484   17.7275  110.6593 H   0  0  0  0  0  0
   15.7901   19.5206  111.1041 H   0  0  0  0  0  0
   18.1925   19.1322  110.7487 H   0  0  0  0  0  0
   18.9761   16.9289  109.9704 H   0  0  0  0  0  0
   17.4030   12.4979  111.2511 H   0  0  0  0  0  0
   17.0333   11.9602  113.4509 H   0  0  0  0  0  0
   18.7110   12.4406  113.7553 H   0  0  0  0  0  0
   17.4089   13.6369  113.8713 H   0  0  0  0  0  0
   15.6533   13.8820  108.4405 H   0  0  0  0  0  0
   16.8217   12.6448  108.8448 H   0  0  0  0  0  0
   15.8987   13.4252  110.1203 H   0  0  0  0  0  0
  1  2  2  0  0  0
  1  6  1  0  0  0
  1 25  1  0  0  0
  2  3  1  0  0  0
  2 26  1  0  0  0
  3  4  2  0  0  0
  3  8  1  0  0  0
  4  5  1  0  0  0
  4 27  1  0  0  0
  5  9  1  0  0  0
  5  6  2  0  0  0
  6  7  1  0  0  0
  9 13  1  0  0  0
  9 10  2  0  0  0
 10 11  1  0  0  0
 11 12  1  0  0  0
 11 20  1  0  0  0
 12 13  1  0  0  0
 12 14  1  0  0  0
 12 24  1  0  0  0
 13 28  1  0  0  0
 13 29  1  0  0  0
 14 15  2  0  0  0
 14 19  1  0  0  0
 15 16  1  0  0  0
 15 30  1  0  0  0
 16 17  2  0  0  0
 16 31  1  0  0  0
 17 18  1  0  0  0
 17 32  1  0  0  0
 18 19  2  0  0  0
 18 33  1  0  0  0
 19 34  1  0  0  0
 20 21  1  0  0  0
 20 22  2  0  0  0
 21 23  1  0  0  0
 21 35  1  0  0  0
 23 36  1  0  0  0
 23 37  1  0  0  0
 23 38  1  0  0  0
 24 39  1  0  0  0
 24 40  1  0  0  0
 24 41  1  0  0  0
M  END
> <s_m_entry_id>
162

> <s_m_entry_name>
dock_pv.161

> <s_m_Source_Path>
/home/csk/Desktop/cluster/DUD-E-result/kif11

> <s_m_Source_File>
dock_pv.maegz

> <i_m_Source_File_Index>
161

> <chembl_id>
CHEMBL206883

> <chembl_pref_name>
None

> <i_lp_mmshare_version>
53161

> <i_f3d_flags>
0

> <r_lp_tautomer_probability>
1

> <s_lp_Force_Field>
OPLS_2005

> <r_lp_Energy>
28.812949

> <b_lp_Chiralities_Consistent>
1

> <s_lp_Variant>
CHEMBL4581_lig106-1

> <s_i_glide_gridfile>
glide-grid_3cjo

> <i_i_glide_lignum>
180

> <i_i_glide_rotatable_bonds>
4

> <r_i_docking_score>
-8.21666196868701

> <r_i_glide_ligand_efficiency>
-0.342360915361959

> <r_i_glide_ligand_efficiency_sa>
-0.987539765095521

> <r_i_glide_ligand_efficiency_ln>
-1.96662424715642

> <r_i_glide_gscore>
-8.21666196868701

> <r_i_glide_lipo>
-3.38462053173793

> <r_i_glide_hbond>
0

> <r_i_glide_metal>
0

> <r_i_glide_rewards>
-2.96334520522086

> <r_i_glide_evdw>
-41.4012031555176

> <r_i_glide_ecoul>
-2.12287664413452

> <r_i_glide_erotb>
0.519795422667838

> <r_i_glide_esite>
0

> <r_i_glide_emodel>
-63.2249586066445

> <r_i_glide_energy>
-43.5240797996521

> <r_i_glide_einternal>
2.67849063873291

> <i_i_glide_confnum>
9

> <i_i_glide_posenum>
253

> <r_i_glide_eff_state_penalty>
0

> <s_user_duplicate_titles>
CHEMBL4581_lig106

> <s_m_subgroup_title>
dock_pv

> <s_m_subgroupid>
dock_pv

> <b_m_subgroup_collapsed>
1

$$$$
CHEMBL4581_lig868
                    3D
 Schrodinger Suite 2021-1.
 47 49  0  0  1  0            999 V2000
   17.6729   14.4860  109.5946 C   0  0  0  0  0  0
   16.4632   13.4099  108.6746 S   0  0  0  0  0  0
   16.0662   14.2563  107.1071 C   0  0  0  0  0  0
   14.8060   13.7426  106.3868 C   0  0  0  0  0  0
   17.9521   13.9101  111.0229 C   0  0  0  0  0  0
   18.9453   14.4740  108.6942 C   0  0  0  0  0  0
   17.0770   15.9061  109.8438 C   0  0  0  0  0  0
   17.2839   12.7898  111.5539 C   0  0  0  0  0  0
   17.5165   12.3723  112.8615 C   0  0  0  0  0  0
   18.4312   13.0526  113.6562 C   0  0  0  0  0  0
   19.1205   14.1473  113.1480 C   0  0  0  0  0  0
   18.8859   14.5673  111.8428 C   0  0  0  0  0  0
   20.0141   13.6038  108.9581 C   0  0  0  0  0  0
   21.1181   13.5619  108.1130 C   0  0  0  0  0  0
   21.1611   14.3624  106.9716 C   0  0  0  0  0  0
   20.1277   15.2565  106.7119 C   0  0  0  0  0  0
   19.0382   15.3187  107.5738 C   0  0  0  0  0  0
   15.7123   16.0671  110.1296 C   0  0  0  0  0  0
   15.1809   17.3231  110.4076 C   0  0  0  0  0  0
   16.0129   18.4380  110.4097 C   0  0  0  0  0  0
   17.3695   18.3047  110.1355 C   0  0  0  0  0  0
   17.8956   17.0498  109.8487 C   0  0  0  0  0  0
   15.0322   12.4502  105.7583 N   0  0  0  0  0  0
   22.3404   14.2522  106.0212 C   0  0  0  0  0  0
   15.9433   15.3186  107.3155 H   0  0  0  0  0  0
   16.9184   14.1662  106.4324 H   0  0  0  0  0  0
   13.9706   13.6749  107.0863 H   0  0  0  0  0  0
   14.5116   14.4492  105.6090 H   0  0  0  0  0  0
   16.5521   12.2335  110.9898 H   0  0  0  0  0  0
   16.9650   11.5387  113.2657 H   0  0  0  0  0  0
   18.6057   12.7289  114.6725 H   0  0  0  0  0  0
   19.8350   14.6732  113.7644 H   0  0  0  0  0  0
   19.4281   15.4240  111.4715 H   0  0  0  0  0  0
   19.9859   12.9236  109.7956 H   0  0  0  0  0  0
   21.9235   12.8726  108.3192 H   0  0  0  0  0  0
   20.1572   15.8913  105.8390 H   0  0  0  0  0  0
   18.2424   16.0093  107.3398 H   0  0  0  0  0  0
   15.0572   15.2108  110.1512 H   0  0  0  0  0  0
   14.1292   17.4322  110.6292 H   0  0  0  0  0  0
   15.6056   19.4125  110.6368 H   0  0  0  0  0  0
   18.0191   19.1671  110.1539 H   0  0  0  0  0  0
   18.9562   16.9770  109.6579 H   0  0  0  0  0  0
   15.3534   11.7788  106.4578 H   0  0  0  0  0  0
   14.1615   12.0800  105.4051 H   0  0  0  0  0  0
   23.2455   14.6501  106.4795 H   0  0  0  0  0  0
   22.5312   13.2059  105.7789 H   0  0  0  0  0  0
   22.1581   14.7730  105.0804 H   0  0  0  0  0  0
  1  2  1  0  0  0
  1  7  1  0  0  0
  1  5  1  0  0  0
  1  6  1  0  0  0
  2  3  1  0  0  0
  3  4  1  0  0  0
  3 25  1  0  0  0
  3 26  1  0  0  0
  4 23  1  0  0  0
  4 27  1  0  0  0
  4 28  1  0  0  0
  5 12  1  0  0  0
  5  8  2  0  0  0
  6 13  2  0  0  0
  6 17  1  0  0  0
  7 18  2  0  0  0
  7 22  1  0  0  0
  8  9  1  0  0  0
  8 29  1  0  0  0
  9 10  2  0  0  0
  9 30  1  0  0  0
 10 11  1  0  0  0
 10 31  1  0  0  0
 11 12  2  0  0  0
 11 32  1  0  0  0
 12 33  1  0  0  0
 13 14  1  0  0  0
 13 34  1  0  0  0
 14 15  2  0  0  0
 14 35  1  0  0  0
 15 16  1  0  0  0
 15 24  1  0  0  0
 16 17  2  0  0  0
 16 36  1  0  0  0
 17 37  1  0  0  0
 18 19  1  0  0  0
 18 38  1  0  0  0
 19 20  2  0  0  0
 19 39  1  0  0  0
 20 21  1  0  0  0
 20 40  1  0  0  0
 21 22  2  0  0  0
 21 41  1  0  0  0
 22 42  1  0  0  0
 23 43  1  0  0  0
 23 44  1  0  0  0
 24 45  1  0  0  0
 24 46  1  0  0  0
 24 47  1  0  0  0
M  END
> <s_m_entry_id>
163

> <s_m_entry_name>
dock_pv.162

> <s_m_Source_Path>
/home/csk/Desktop/cluster/DUD-E-result/kif11

> <s_m_Source_File>
dock_pv.maegz

> <i_m_Source_File_Index>
162

> <chembl_id>
CHEMBL1945658

> <chembl_pref_name>
None

> <i_lp_mmshare_version>
53161

> <i_f3d_flags>
0

> <r_lp_tautomer_probability>
1

> <s_lp_Force_Field>
OPLS_2005

> <r_lp_Energy>
25.436719

> <b_lp_Chiralities_Consistent>
1

> <s_lp_Variant>
CHEMBL4581_lig868-1

> <s_i_glide_gridfile>
glide-grid_3cjo

> <i_i_glide_lignum>
1259

> <i_i_glide_rotatable_bonds>
6

> <r_i_docking_score>
-8.20144485218954

> <r_i_glide_ligand_efficiency>
-0.341726868841231

> <r_i_glide_ligand_efficiency_sa>
-0.985710858453308

> <r_i_glide_ligand_efficiency_ln>
-1.96298209291059

> <r_i_glide_gscore>
-8.20144485218954

> <r_i_glide_lipo>
-4.95800034425349

> <r_i_glide_hbond>
-0.32

> <r_i_glide_metal>
0

> <r_i_glide_rewards>
-1.25195721212121

> <r_i_glide_evdw>
-42.1509666442871

> <r_i_glide_ecoul>
-2.74205255508423

> <r_i_glide_erotb>
0.847368919662158

> <r_i_glide_esite>
0

> <r_i_glide_emodel>
-63.7267795369483

> <r_i_glide_energy>
-44.8930191993713

> <r_i_glide_einternal>
6.37214326858521

> <i_i_glide_confnum>
67

> <i_i_glide_posenum>
185

> <r_i_glide_eff_state_penalty>
0

> <s_user_duplicate_titles>
CHEMBL4581_lig868

> <s_m_subgroup_title>
dock_pv

> <s_m_subgroupid>
dock_pv

> <b_m_subgroup_collapsed>
1

$$$$
CHEMBL4581_lig309
                    3D
 Schrodinger Suite 2021-1.
 46 49  0  0  1  0            999 V2000
   19.8890   13.6800  108.5589 N   0  0  0  0  0  0
   19.0981   15.6675  107.8855 C   0  0  0  0  0  0
   18.8453   14.5605  108.6614 C   0  0  0  0  0  0
   17.5618   14.3128  109.4413 C   0  0  2  0  0  0
   16.6665   15.4970  109.2745 N   0  0  0  0  0  0
   17.3208   16.8236  109.1718 C   0  0  0  0  0  0
   18.1307   16.8236  107.8526 C   0  0  0  0  0  0
   20.7821   14.1430  107.6127 C   0  0  0  0  0  0
   20.3217   15.4262  107.1930 C   0  0  0  0  0  0
   21.0763   16.1541  106.2606 C   0  0  0  0  0  0
   22.2415   15.5864  105.7525 C   0  0  0  0  0  0
   22.6491   14.3149  106.1417 C   0  0  0  0  0  0
   21.9353   13.5619  107.0733 C   0  0  0  0  0  0
   17.8749   13.9624  110.8887 C   0  0  0  0  0  0
   18.8154   14.6795  111.6434 C   0  0  0  0  0  0
   19.0829   14.3166  112.9628 C   0  0  0  0  0  0
   18.3968   13.2502  113.5416 C   0  0  0  0  0  0
   17.4511   12.5542  112.7932 C   0  0  0  0  0  0
   17.1988   12.8951  111.4725 C   0  0  0  0  0  0
   15.3070   15.4303  109.3206 C   0  0  0  0  0  0
   14.6029   16.4425  109.3588 O   0  0  0  0  0  0
   14.5979   14.0618  109.1987 C   0  0  0  0  0  0
   13.0938   14.1358  108.8296 C   0  0  0  0  0  0
   12.9189   14.5683  107.4559 N   0  0  0  0  0  0
   16.7169   11.5622  113.3598 O   0  0  0  0  0  0
   19.8978   12.7947  109.0458 H   0  0  0  0  0  0
   17.0885   13.4293  109.0163 H   0  0  0  0  0  0
   17.9862   16.9548  110.0256 H   0  0  0  0  0  0
   16.6263   17.6644  109.2196 H   0  0  0  0  0  0
   17.4706   16.7619  106.9856 H   0  0  0  0  0  0
   18.6898   17.7508  107.7679 H   0  0  0  0  0  0
   20.7563   17.1364  105.9416 H   0  0  0  0  0  0
   22.8264   16.1339  105.0278 H   0  0  0  0  0  0
   23.5459   13.9034  105.7033 H   0  0  0  0  0  0
   22.2714   12.5778  107.3615 H   0  0  0  0  0  0
   19.3508   15.5101  111.2056 H   0  0  0  0  0  0
   19.8179   14.8605  113.5368 H   0  0  0  0  0  0
   18.5844   12.9733  114.5692 H   0  0  0  0  0  0
   16.4734   12.3289  110.9070 H   0  0  0  0  0  0
   14.7037   13.5624  110.1588 H   0  0  0  0  0  0
   15.0944   13.4394  108.4545 H   0  0  0  0  0  0
   12.5524   14.8184  109.4860 H   0  0  0  0  0  0
   12.6221   13.1623  108.9425 H   0  0  0  0  0  0
   11.9352   14.6408  107.2344 H   0  0  0  0  0  0
   13.2985   15.5029  107.3611 H   0  0  0  0  0  0
   16.0085   11.2078  112.8059 H   0  0  0  0  0  0
  1  8  1  0  0  0
  1  3  1  0  0  0
  1 26  1  0  0  0
  2  7  1  0  0  0
  2  9  1  0  0  0
  2  3  2  0  0  0
  3  4  1  0  0  0
  4  5  1  0  0  0
  4 14  1  0  0  0
  4 27  1  0  0  0
  5  6  1  0  0  0
  5 20  1  0  0  0
  6  7  1  0  0  0
  6 28  1  0  0  0
  6 29  1  0  0  0
  7 30  1  0  0  0
  7 31  1  0  0  0
  8 13  1  0  0  0
  8  9  2  0  0  0
  9 10  1  0  0  0
 10 11  2  0  0  0
 10 32  1  0  0  0
 11 12  1  0  0  0
 11 33  1  0  0  0
 12 13  2  0  0  0
 12 34  1  0  0  0
 13 35  1  0  0  0
 14 15  2  0  0  0
 14 19  1  0  0  0
 15 16  1  0  0  0
 15 36  1  0  0  0
 16 17  2  0  0  0
 16 37  1  0  0  0
 17 18  1  0  0  0
 17 38  1  0  0  0
 18 19  2  0  0  0
 18 25  1  0  0  0
 19 39  1  0  0  0
 20 21  2  0  0  0
 20 22  1  0  0  0
 22 23  1  0  0  0
 22 40  1  0  0  0
 22 41  1  0  0  0
 23 24  1  0  0  0
 23 42  1  0  0  0
 23 43  1  0  0  0
 24 44  1  0  0  0
 24 45  1  0  0  0
 25 46  1  0  0  0
M  END
> <s_m_entry_id>
164

> <s_m_entry_name>
dock_pv.163

> <s_m_Source_Path>
/home/csk/Desktop/cluster/DUD-E-result/kif11

> <s_m_Source_File>
dock_pv.maegz

> <i_m_Source_File_Index>
163

> <chembl_id>
CHEMBL590607

> <chembl_pref_name>
None

> <i_lp_mmshare_version>
53161

> <i_f3d_flags>
0

> <r_lp_tautomer_probability>
0.999999999997365

> <s_lp_Force_Field>
OPLS_2005

> <r_lp_Energy>
21.734195

> <b_lp_Chiralities_Consistent>
1

> <s_lp_Variant>
CHEMBL4581_lig309-1

> <s_i_glide_gridfile>
glide-grid_3cjo

> <i_i_glide_lignum>
456

> <i_i_glide_rotatable_bonds>
5

> <r_i_docking_score>
-8.20103067350502

> <r_i_glide_ligand_efficiency>
-0.328041226940201

> <r_i_glide_ligand_efficiency_sa>
-0.959198365409079

> <r_i_glide_ligand_efficiency_ln>
-1.94389003467795

> <r_i_glide_gscore>
-8.20103067350502

> <r_i_glide_lipo>
-4.64696440291859

> <r_i_glide_hbond>
-0.32

> <r_i_glide_metal>
0

> <r_i_glide_rewards>
-1.42864653957995

> <r_i_glide_evdw>
-36.1557846069336

> <r_i_glide_ecoul>
-3.33961200714111

> <r_i_glide_erotb>
0.503311300411364

> <r_i_glide_esite>
0

> <r_i_glide_emodel>
-57.9201041642101

> <r_i_glide_energy>
-39.4953966140747

> <r_i_glide_einternal>
3.16370844841003

> <i_i_glide_confnum>
11

> <i_i_glide_posenum>
171

> <r_i_glide_eff_state_penalty>
0

> <s_user_duplicate_titles>
CHEMBL4581_lig309,590943

> <s_m_subgroup_title>
dock_pv

> <s_m_subgroupid>
dock_pv

> <b_m_subgroup_collapsed>
1

$$$$
CHEMBL4581_lig700
                    3D
 Schrodinger Suite 2021-1.
 51 54  0  0  1  0            999 V2000
   18.4963   17.4058  110.8190 C   0  0  0  0  0  0
   19.3474   16.2246  111.3330 C   0  0  0  0  0  0
   17.4051   14.8508  109.4889 C   0  0  0  0  0  0
   17.0172   17.2281  110.4573 C   0  0  0  0  0  0
   16.4935   16.0801  109.8004 C   0  0  0  0  0  0
   15.1137   16.0908  109.4940 C   0  0  0  0  0  0
   14.2872   17.1641  109.8013 C   0  0  0  0  0  0
   14.8140   18.2749  110.4344 C   0  0  0  0  0  0
   16.1655   18.2980  110.7496 C   0  0  0  0  0  0
   17.7737   14.2414  110.8839 C   0  0  0  0  0  0
   18.6869   14.9155  111.7384 C   0  0  0  0  0  0
   19.0349   14.3604  112.9755 C   0  0  0  0  0  0
   18.5001   13.1557  113.4040 C   0  0  0  0  0  0
   17.6032   12.4868  112.5886 C   0  0  0  0  0  0
   17.2394   13.0236  111.3565 C   0  0  0  0  0  0
   18.6381   15.1444  108.5946 C   0  0  0  0  0  0
   18.6912   16.2670  107.7499 C   0  0  0  0  0  0
   19.7054   16.3936  106.8021 C   0  0  0  0  0  0
   20.7156   15.4465  106.7191 C   0  0  0  0  0  0
   20.7028   14.3599  107.5833 C   0  0  0  0  0  0
   19.6799   14.2079  108.5171 C   0  0  0  0  0  0
   16.5033   13.6042  108.4383 S   0  0  0  0  0  0
   16.3814   14.4141  106.8017 C   0  0  0  0  0  0
   15.3460   13.7736  105.8684 C   0  0  1  0  0  0
   15.2547   14.5405  104.5309 C   0  0  0  0  0  0
   15.6491   12.3642  105.5793 N   0  0  0  0  0  0
   16.3373   14.3200  103.7241 O   0  0  0  0  0  0
   14.3242   15.3032  104.2795 O   0  0  0  0  0  0
   21.9198   13.1591  107.4501 Cl  0  0  0  0  0  0
   18.5777   18.2065  111.5602 H   0  0  0  0  0  0
   18.9898   17.8440  109.9503 H   0  0  0  0  0  0
   19.9690   16.5889  112.1512 H   0  0  0  0  0  0
   20.0773   15.9594  110.5778 H   0  0  0  0  0  0
   14.6251   15.2539  109.0233 H   0  0  0  0  0  0
   13.2370   17.1259  109.5532 H   0  0  0  0  0  0
   14.1809   19.1106  110.6874 H   0  0  0  0  0  0
   16.5580   19.1611  111.2591 H   0  0  0  0  0  0
   19.7425   14.8602  113.6211 H   0  0  0  0  0  0
   18.7729   12.7466  114.3656 H   0  0  0  0  0  0
   17.1582   11.5650  112.9243 H   0  0  0  0  0  0
   16.5235   12.4589  110.7816 H   0  0  0  0  0  0
   17.9084   17.0113  107.7669 H   0  0  0  0  0  0
   19.7161   17.2412  106.1336 H   0  0  0  0  0  0
   21.4982   15.5476  105.9821 H   0  0  0  0  0  0
   19.6624   13.3240  109.1396 H   0  0  0  0  0  0
   16.1480   15.4690  106.9451 H   0  0  0  0  0  0
   17.3636   14.3637  106.3312 H   0  0  0  0  0  0
   14.3623   13.8520  106.3310 H   0  0  0  0  0  0
   16.6164   12.1642  105.7827 H   0  0  0  0  0  0
   15.1534   11.7510  106.2203 H   0  0  0  0  0  0
   16.9209   13.6586  104.1179 H   0  0  0  0  0  0
  1  4  1  0  0  0
  1  2  1  0  0  0
  1 30  1  0  0  0
  1 31  1  0  0  0
  2 11  1  0  0  0
  2 32  1  0  0  0
  2 33  1  0  0  0
  3 10  1  0  0  0
  3  5  1  0  0  0
  3 16  1  0  0  0
  3 22  1  0  0  0
  4  5  2  0  0  0
  4  9  1  0  0  0
  5  6  1  0  0  0
  6  7  2  0  0  0
  6 34  1  0  0  0
  7  8  1  0  0  0
  7 35  1  0  0  0
  8  9  2  0  0  0
  8 36  1  0  0  0
  9 37  1  0  0  0
 10 11  2  0  0  0
 10 15  1  0  0  0
 11 12  1  0  0  0
 12 13  2  0  0  0
 12 38  1  0  0  0
 13 14  1  0  0  0
 13 39  1  0  0  0
 14 15  2  0  0  0
 14 40  1  0  0  0
 15 41  1  0  0  0
 16 17  2  0  0  0
 16 21  1  0  0  0
 17 18  1  0  0  0
 17 42  1  0  0  0
 18 19  2  0  0  0
 18 43  1  0  0  0
 19 20  1  0  0  0
 19 44  1  0  0  0
 20 21  2  0  0  0
 20 29  1  0  0  0
 21 45  1  0  0  0
 22 23  1  0  0  0
 23 24  1  0  0  0
 23 46  1  0  0  0
 23 47  1  0  0  0
 24 25  1  0  0  0
 24 26  1  0  0  0
 24 48  1  0  0  0
 25 27  1  0  0  0
 25 28  2  0  0  0
 26 49  1  0  0  0
 26 50  1  0  0  0
 27 51  1  0  0  0
M  END
> <s_m_entry_id>
165

> <s_m_entry_name>
dock_pv.164

> <s_m_Source_Path>
/home/csk/Desktop/cluster/DUD-E-result/kif11

> <s_m_Source_File>
dock_pv.maegz

> <i_m_Source_File_Index>
164

> <chembl_id>
CHEMBL3633532

> <chembl_pref_name>
None

> <i_lp_mmshare_version>
53161

> <i_f3d_flags>
0

> <r_lp_tautomer_probability>
1

> <s_lp_Force_Field>
OPLS_2005

> <r_lp_Energy>
40.272952

> <b_lp_Chiralities_Consistent>
1

> <s_lp_Variant>
CHEMBL4581_lig700-1

> <s_i_glide_gridfile>
glide-grid_3cjo

> <i_i_glide_lignum>
1043

> <i_i_glide_rotatable_bonds>
6

> <r_i_docking_score>
-8.19982986921057

> <r_i_glide_ligand_efficiency>
-0.282752754110709

> <r_i_glide_ligand_efficiency_sa>
-0.868706042988282

> <r_i_glide_ligand_efficiency_ln>
-1.87755311030441

> <r_i_glide_gscore>
-8.19982986921057

> <r_i_glide_lipo>
-4.69929484220942

> <r_i_glide_hbond>
-0.243336394659623

> <r_i_glide_metal>
0

> <r_i_glide_rewards>
-0.637488031628132

> <r_i_glide_evdw>
-44.9293098449707

> <r_i_glide_ecoul>
-6.14691877365112

> <r_i_glide_erotb>
0.55146896642267

> <r_i_glide_esite>
-0.0026762588398652

> <r_i_glide_emodel>
-72.1536358416556

> <r_i_glide_energy>
-51.0762286186218

> <r_i_glide_einternal>
4.89344358444214

> <i_i_glide_confnum>
254

> <i_i_glide_posenum>
97

> <r_i_glide_eff_state_penalty>
0

> <s_user_duplicate_titles>
CHEMBL4581_lig700

> <s_m_subgroup_title>
dock_pv

> <s_m_subgroupid>
dock_pv

> <b_m_subgroup_collapsed>
1

$$$$
CHEMBL4581_lig394
                    3D
 Schrodinger Suite 2021-1.
 47 50  0  0  1  0            999 V2000
   22.1778   15.1794  105.8118 C   0  0  0  0  0  0
   22.5943   13.9633  106.3366 C   0  0  0  0  0  0
   21.8969   13.3333  107.3613 C   0  0  0  0  0  0
   20.9949   15.7859  106.2178 C   0  0  0  0  0  0
   20.2390   15.1624  107.2125 C   0  0  0  0  0  0
   20.7251   13.9618  107.8018 C   0  0  0  0  0  0
   19.8144   13.5875  108.7656 N   0  0  0  0  0  0
   18.9837   15.4415  107.8202 C   0  0  0  0  0  0
   18.7558   14.4595  108.7603 C   0  0  0  0  0  0
   17.4783   14.3281  109.5831 C   0  0  2  0  0  0
   16.6939   15.5925  109.4984 N   0  0  1  0  0  0
   16.6102   16.0921  108.1112 C   0  0  0  0  0  0
   17.9843   16.5428  107.5817 C   0  0  0  0  0  0
   17.7726   13.8543  111.0121 C   0  0  0  0  0  0
   18.7111   14.5163  111.8147 C   0  0  0  0  0  0
   18.9126   14.1182  113.1369 C   0  0  0  0  0  0
   18.1424   13.0902  113.6823 C   0  0  0  0  0  0
   17.1923   12.4420  112.8947 C   0  0  0  0  0  0
   17.0559   12.7797  111.5479 C   0  0  0  0  0  0
   16.3200   11.5620  113.4746 O   0  0  0  0  0  0
   15.3262   15.4252  110.0087 C   0  0  0  0  0  0
   23.0597   15.8704  104.8273 C   0  0  0  0  0  0
   14.5873   16.7622  110.2726 C   0  0  0  0  0  0
   15.2278   17.4783  111.3587 N   0  0  0  0  0  0
   23.5180   13.5444  105.9753 H   0  0  0  0  0  0
   22.2410   12.4026  107.7820 H   0  0  0  0  0  0
   20.6656   16.7189  105.7866 H   0  0  0  0  0  0
   19.8367   12.7705  109.3595 H   0  0  0  0  0  0
   16.8880   13.5418  109.1067 H   0  0  0  0  0  0
   15.9693   16.9679  108.0345 H   0  0  0  0  0  0
   16.1511   15.3444  107.4608 H   0  0  0  0  0  0
   17.8880   16.7615  106.5197 H   0  0  0  0  0  0
   18.2861   17.4825  108.0475 H   0  0  0  0  0  0
   19.2715   15.3503  111.4159 H   0  0  0  0  0  0
   19.6357   14.6335  113.7514 H   0  0  0  0  0  0
   18.2535   12.8217  114.7236 H   0  0  0  0  0  0
   16.3122   12.2762  110.9470 H   0  0  0  0  0  0
   15.6513   11.1904  112.8758 H   0  0  0  0  0  0
   15.3984   14.9033  110.9588 H   0  0  0  0  0  0
   14.7298   14.7802  109.3602 H   0  0  0  0  0  0
   22.5420   16.6721  104.3005 H   0  0  0  0  0  0
   23.9159   16.2731  105.3699 H   0  0  0  0  0  0
   23.4227   15.1615  104.0819 H   0  0  0  0  0  0
   13.5535   16.5714  110.5590 H   0  0  0  0  0  0
   14.5303   17.3969  109.3902 H   0  0  0  0  0  0
   16.2058   17.5966  111.1236 H   0  0  0  0  0  0
   14.8471   18.4091  111.4626 H   0  0  0  0  0  0
  1  2  2  0  0  0
  1 22  1  0  0  0
  1  4  1  0  0  0
  2  3  1  0  0  0
  2 25  1  0  0  0
  3  6  2  0  0  0
  3 26  1  0  0  0
  4  5  2  0  0  0
  4 27  1  0  0  0
  5  8  1  0  0  0
  5  6  1  0  0  0
  6  7  1  0  0  0
  7  9  1  0  0  0
  7 28  1  0  0  0
  8 13  1  0  0  0
  8  9  2  0  0  0
  9 10  1  0  0  0
 10 11  1  0  0  0
 10 14  1  0  0  0
 10 29  1  0  0  0
 11 12  1  0  0  0
 11 21  1  0  0  0
 12 13  1  0  0  0
 12 30  1  0  0  0
 12 31  1  0  0  0
 13 32  1  0  0  0
 13 33  1  0  0  0
 14 15  2  0  0  0
 14 19  1  0  0  0
 15 16  1  0  0  0
 15 34  1  0  0  0
 16 17  2  0  0  0
 16 35  1  0  0  0
 17 18  1  0  0  0
 17 36  1  0  0  0
 18 19  2  0  0  0
 18 20  1  0  0  0
 19 37  1  0  0  0
 20 38  1  0  0  0
 21 23  1  0  0  0
 21 39  1  0  0  0
 21 40  1  0  0  0
 22 41  1  0  0  0
 22 42  1  0  0  0
 22 43  1  0  0  0
 23 24  1  0  0  0
 23 44  1  0  0  0
 23 45  1  0  0  0
 24 46  1  0  0  0
 24 47  1  0  0  0
M  END
> <s_m_entry_id>
166

> <s_m_entry_name>
dock_pv.165

> <s_m_Source_Path>
/home/csk/Desktop/cluster/DUD-E-result/kif11

> <s_m_Source_File>
dock_pv.maegz

> <i_m_Source_File_Index>
165

> <chembl_id>
CHEMBL1163163

> <chembl_pref_name>
None

> <i_lp_mmshare_version>
53161

> <i_f3d_flags>
0

> <r_lp_tautomer_probability>
0.999999999997365

> <s_lp_Force_Field>
OPLS_2005

> <r_lp_Energy>
29.606216

> <b_lp_Chiralities_Consistent>
1

> <s_lp_Variant>
CHEMBL4581_lig394-1

> <s_i_glide_gridfile>
glide-grid_3cjo

> <i_i_glide_lignum>
564

> <i_i_glide_rotatable_bonds>
4

> <r_i_docking_score>
-8.19802356806847

> <r_i_glide_ligand_efficiency>
-0.341584315336186

> <r_i_glide_ligand_efficiency_sa>
-0.985299662990952

> <r_i_glide_ligand_efficiency_ln>
-1.96216322262793

> <r_i_glide_gscore>
-8.19802356806847

> <r_i_glide_lipo>
-4.61930162870948

> <r_i_glide_hbond>
-0.32

> <r_i_glide_metal>
0

> <r_i_glide_rewards>
-1.31761736363636

> <r_i_glide_evdw>
-28.9250755310059

> <r_i_glide_ecoul>
-5.71072053909302

> <r_i_glide_erotb>
0.361757281691611

> <r_i_glide_esite>
0

> <r_i_glide_emodel>
-48.5463923089803

> <r_i_glide_energy>
-34.6357960700989

> <r_i_glide_einternal>
2.97863483428955

> <i_i_glide_confnum>
1

> <i_i_glide_posenum>
199

> <r_i_glide_eff_state_penalty>
0

> <s_user_duplicate_titles>
CHEMBL4581_lig394,644864

> <s_m_subgroup_title>
dock_pv

> <s_m_subgroupid>
dock_pv

> <b_m_subgroup_collapsed>
1

$$$$
CHEMBL4581_lig99
                    3D
 Schrodinger Suite 2021-1.
 55 57  0  0  1  0            999 V2000
   22.7181   14.2095  106.0408 C   0  0  0  0  0  0
   22.7168   15.3630  105.2660 C   0  0  0  0  0  0
   21.6795   16.2798  105.3901 C   0  0  0  0  0  0
   20.6469   16.0417  106.2943 C   0  0  0  0  0  0
   20.6482   14.8888  107.0981 C   0  0  0  0  0  0
   21.6985   13.9621  106.9588 C   0  0  0  0  0  0
   21.7785   12.8468  107.7228 F   0  0  0  0  0  0
   21.6697   17.3944  104.6275 F   0  0  0  0  0  0
   19.5580   14.6779  108.0604 C   0  0  0  0  0  0
   19.6519   14.1027  109.1871 N   0  0  0  0  0  0
   18.4696   14.1488  109.8610 N   0  0  0  0  0  0
   17.3990   14.8234  109.0735 C   0  0  2  0  0  0
   18.1574   15.1179  107.7670 C   0  0  0  0  0  0
   16.9365   16.1508  109.7479 C   0  0  0  0  0  0
   17.8813   17.1679  109.9573 C   0  0  0  0  0  0
   17.5185   18.3635  110.5595 C   0  0  0  0  0  0
   16.2013   18.5614  110.9556 C   0  0  0  0  0  0
   15.2511   17.5631  110.7749 C   0  0  0  0  0  0
   15.6181   16.3604  110.1800 C   0  0  0  0  0  0
   18.5021   14.0918  111.2170 C   0  0  0  0  0  0
   17.6959   13.1482  111.7334 N   0  0  0  0  0  0
   19.2386   14.8013  111.9092 O   0  0  0  0  0  0
   17.4698   12.9346  113.1635 C   0  0  0  0  0  0
   16.2411   13.8059  108.7697 C   0  0  0  0  0  0
   18.7045   12.4320  113.9192 C   0  0  0  0  0  0
   15.1937   14.2711  107.7121 C   0  0  0  0  0  0
   14.7253   13.1802  106.7231 C   0  0  0  0  0  0
   15.8111   12.6218  105.7807 C   0  0  0  0  0  0
   16.3180   13.6444  104.8855 N   0  0  0  0  0  0
   23.5181   13.5053  105.9321 H   0  0  0  0  0  0
   23.5096   15.5384  104.5592 H   0  0  0  0  0  0
   19.8691   16.7872  106.3703 H   0  0  0  0  0  0
   17.7938   14.5426  106.9163 H   0  0  0  0  0  0
   18.1008   16.1704  107.4891 H   0  0  0  0  0  0
   18.9106   17.0309  109.6593 H   0  0  0  0  0  0
   18.2587   19.1357  110.7161 H   0  0  0  0  0  0
   15.9169   19.4924  111.4220 H   0  0  0  0  0  0
   14.2346   17.7235  111.1027 H   0  0  0  0  0  0
   14.8611   15.6029  110.0812 H   0  0  0  0  0  0
   17.2036   12.5396  111.0972 H   0  0  0  0  0  0
   17.1179   13.8608  113.6197 H   0  0  0  0  0  0
   16.6644   12.2086  113.2766 H   0  0  0  0  0  0
   16.6941   12.8705  108.4361 H   0  0  0  0  0  0
   15.7230   13.5277  109.6885 H   0  0  0  0  0  0
   18.4483   12.1503  114.9395 H   0  0  0  0  0  0
   19.1184   11.5621  113.4188 H   0  0  0  0  0  0
   19.4820   13.1938  113.9830 H   0  0  0  0  0  0
   14.3077   14.6514  108.2219 H   0  0  0  0  0  0
   15.5655   15.1227  107.1405 H   0  0  0  0  0  0
   14.2947   12.3619  107.2960 H   0  0  0  0  0  0
   13.9033   13.5723  106.1230 H   0  0  0  0  0  0
   16.6466   12.2156  106.3503 H   0  0  0  0  0  0
   15.4116   11.7967  105.1896 H   0  0  0  0  0  0
   17.2424   13.3556  104.5541 H   0  0  0  0  0  0
   15.7210   13.7348  104.0749 H   0  0  0  0  0  0
  1  6  1  0  0  0
  1  2  2  0  0  0
  1 30  1  0  0  0
  2  3  1  0  0  0
  2 31  1  0  0  0
  3  4  2  0  0  0
  3  8  1  0  0  0
  4  5  1  0  0  0
  4 32  1  0  0  0
  5  9  1  0  0  0
  5  6  2  0  0  0
  6  7  1  0  0  0
  9 10  2  0  0  0
  9 13  1  0  0  0
 10 11  1  0  0  0
 11 20  1  0  0  0
 11 12  1  0  0  0
 12 14  1  0  0  0
 12 24  1  0  0  0
 12 13  1  0  0  0
 13 33  1  0  0  0
 13 34  1  0  0  0
 14 15  2  0  0  0
 14 19  1  0  0  0
 15 16  1  0  0  0
 15 35  1  0  0  0
 16 17  2  0  0  0
 16 36  1  0  0  0
 17 18  1  0  0  0
 17 37  1  0  0  0
 18 19  2  0  0  0
 18 38  1  0  0  0
 19 39  1  0  0  0
 20 21  1  0  0  0
 20 22  2  0  0  0
 21 23  1  0  0  0
 21 40  1  0  0  0
 23 25  1  0  0  0
 23 41  1  0  0  0
 23 42  1  0  0  0
 24 26  1  0  0  0
 24 43  1  0  0  0
 24 44  1  0  0  0
 25 45  1  0  0  0
 25 46  1  0  0  0
 25 47  1  0  0  0
 26 27  1  0  0  0
 26 48  1  0  0  0
 26 49  1  0  0  0
 27 28  1  0  0  0
 27 50  1  0  0  0
 27 51  1  0  0  0
 28 29  1  0  0  0
 28 52  1  0  0  0
 28 53  1  0  0  0
 29 54  1  0  0  0
 29 55  1  0  0  0
M  END
> <s_m_entry_id>
167

> <s_m_entry_name>
dock_pv.166

> <s_m_Source_Path>
/home/csk/Desktop/cluster/DUD-E-result/kif11

> <s_m_Source_File>
dock_pv.maegz

> <i_m_Source_File_Index>
166

> <chembl_id>
CHEMBL207992

> <chembl_pref_name>
None

> <i_lp_mmshare_version>
53161

> <i_f3d_flags>
0

> <r_lp_tautomer_probability>
1

> <s_lp_Force_Field>
OPLS_2005

> <r_lp_Energy>
36.535563

> <b_lp_Chiralities_Consistent>
1

> <s_lp_Variant>
CHEMBL4581_lig99-1

> <s_i_glide_gridfile>
glide-grid_3cjo

> <i_i_glide_lignum>
166

> <i_i_glide_rotatable_bonds>
9

> <r_i_docking_score>
-8.19621850872299

> <r_i_glide_ligand_efficiency>
-0.282628224438724

> <r_i_glide_ligand_efficiency_sa>
-0.868323448382174

> <r_i_glide_ligand_efficiency_ln>
-1.87672620032895

> <r_i_glide_gscore>
-8.19621850872299

> <r_i_glide_lipo>
-3.54295161353261

> <r_i_glide_hbond>
-0.16

> <r_i_glide_metal>
0

> <r_i_glide_rewards>
-2.4001463176743

> <r_i_glide_evdw>
-45.6736450195312

> <r_i_glide_ecoul>
-4.43431615829468

> <r_i_glide_erotb>
0.855709097204677

> <r_i_glide_esite>
0

> <r_i_glide_emodel>
-72.0591950167621

> <r_i_glide_energy>
-50.1079611778259

> <r_i_glide_einternal>
6.7833194732666

> <i_i_glide_confnum>
60

> <i_i_glide_posenum>
274

> <r_i_glide_eff_state_penalty>
0

> <s_user_duplicate_titles>
CHEMBL4581_lig99,347634

> <s_m_subgroup_title>
dock_pv

> <s_m_subgroupid>
dock_pv

> <b_m_subgroup_collapsed>
1

$$$$
CHEMBL4581_lig92
                    3D
 Schrodinger Suite 2021-1.
 64 67  0  0  1  0            999 V2000
   22.5736   14.3726  105.8187 C   0  0  0  0  0  0
   22.7179   15.4548  104.9590 C   0  0  0  0  0  0
   21.8217   16.5221  105.0172 C   0  0  0  0  0  0
   20.7781   16.4948  105.9347 C   0  0  0  0  0  0
   20.6046   15.3986  106.7943 C   0  0  0  0  0  0
   21.5277   14.3356  106.7376 C   0  0  0  0  0  0
   21.5118   13.3017  107.6118 F   0  0  0  0  0  0
   21.9253   17.5620  104.1608 F   0  0  0  0  0  0
   19.4754   15.4231  107.7315 C   0  0  0  0  0  0
   18.9629   16.4680  108.2273 N   0  0  0  0  0  0
   17.8675   16.1809  108.9751 N   0  0  0  0  0  0
   17.5655   14.7180  108.9637 C   0  0  1  0  0  0
   18.7693   14.1873  108.1711 C   0  0  0  0  0  0
   17.5700   14.0676  110.3810 C   0  0  0  0  0  0
   18.2283   14.6879  111.4594 C   0  0  0  0  0  0
   18.3130   14.0655  112.7001 C   0  0  0  0  0  0
   17.7586   12.8024  112.8801 C   0  0  0  0  0  0
   17.1188   12.1632  111.8229 C   0  0  0  0  0  0
   17.0210   12.7936  110.5884 C   0  0  0  0  0  0
   16.9939   17.1846  109.2851 C   0  0  0  0  0  0
   16.3875   17.0536  110.4799 N   0  0  0  0  0  0
   16.8015   18.1632  108.5589 O   0  0  0  0  0  0
   15.2351   17.8378  110.9335 C   0  0  0  0  0  0
   16.2266   14.5450  108.1452 C   0  0  0  0  0  0
   15.4892   19.3502  111.0823 C   0  0  0  0  0  0
   15.8712   13.1619  107.5560 C   0  0  0  0  0  0
   15.3022   13.1743  106.1187 C   0  0  0  0  0  0
   16.3188   13.5891  105.0303 C   0  0  0  0  0  0
   16.0401   14.8986  104.4394 N   0  0  0  0  0  0
   16.2295   15.2207  103.1457 C   0  0  0  0  0  0
   15.7954   16.5478  102.7861 C   0  0  0  0  0  0
   16.7167   14.4611  102.3038 O   0  0  0  0  0  0
   14.7682   17.2149  103.4191 N   0  0  0  0  0  0
   16.2372   17.2509  101.7611 N   0  0  0  0  0  0
   15.5187   18.3620  101.7408 C   0  0  0  0  0  0
   14.5869   18.3990  102.7623 C   0  0  0  0  0  0
   23.2828   13.5612  105.7754 H   0  0  0  0  0  0
   23.5109   15.4394  104.2315 H   0  0  0  0  0  0
   20.0968   17.3338  105.9600 H   0  0  0  0  0  0
   19.4313   13.5748  108.7884 H   0  0  0  0  0  0
   18.4946   13.5970  107.3020 H   0  0  0  0  0  0
   18.7128   15.6451  111.3372 H   0  0  0  0  0  0
   18.8270   14.5531  113.5145 H   0  0  0  0  0  0
   17.8388   12.3126  113.8379 H   0  0  0  0  0  0
   16.7129   11.1696  111.9507 H   0  0  0  0  0  0
   16.5536   12.2393  109.7955 H   0  0  0  0  0  0
   16.6656   16.2812  111.0668 H   0  0  0  0  0  0
   14.4029   17.6725  110.2474 H   0  0  0  0  0  0
   14.9125   17.4359  111.8956 H   0  0  0  0  0  0
   16.2519   15.2443  107.3072 H   0  0  0  0  0  0
   15.3876   14.8869  108.7537 H   0  0  0  0  0  0
   14.6097   19.8491  111.4887 H   0  0  0  0  0  0
   16.3176   19.5593  111.7585 H   0  0  0  0  0  0
   15.7012   19.8302  110.1273 H   0  0  0  0  0  0
   15.1158   12.7430  108.2113 H   0  0  0  0  0  0
   16.7115   12.4695  107.5965 H   0  0  0  0  0  0
   14.4092   13.7996  106.0760 H   0  0  0  0  0  0
   14.9506   12.1680  105.8913 H   0  0  0  0  0  0
   16.3164   12.8232  104.2527 H   0  0  0  0  0  0
   17.3322   13.5811  105.4253 H   0  0  0  0  0  0
   15.8877   15.6515  105.0923 H   0  0  0  0  0  0
   14.2425   16.8818  104.2160 H   0  0  0  0  0  0
   15.6836   19.1317  100.9994 H   0  0  0  0  0  0
   13.8436   19.1237  103.0607 H   0  0  0  0  0  0
  1  6  1  0  0  0
  1  2  2  0  0  0
  1 37  1  0  0  0
  2  3  1  0  0  0
  2 38  1  0  0  0
  3  4  2  0  0  0
  3  8  1  0  0  0
  4  5  1  0  0  0
  4 39  1  0  0  0
  5  9  1  0  0  0
  5  6  2  0  0  0
  6  7  1  0  0  0
  9 10  2  0  0  0
  9 13  1  0  0  0
 10 11  1  0  0  0
 11 20  1  0  0  0
 11 12  1  0  0  0
 12 24  1  0  0  0
 12 13  1  0  0  0
 12 14  1  0  0  0
 13 40  1  0  0  0
 13 41  1  0  0  0
 14 19  1  0  0  0
 14 15  2  0  0  0
 15 16  1  0  0  0
 15 42  1  0  0  0
 16 17  2  0  0  0
 16 43  1  0  0  0
 17 18  1  0  0  0
 17 44  1  0  0  0
 18 19  2  0  0  0
 18 45  1  0  0  0
 19 46  1  0  0  0
 20 21  1  0  0  0
 20 22  2  0  0  0
 21 23  1  0  0  0
 21 47  1  0  0  0
 23 25  1  0  0  0
 23 48  1  0  0  0
 23 49  1  0  0  0
 24 26  1  0  0  0
 24 50  1  0  0  0
 24 51  1  0  0  0
 25 52  1  0  0  0
 25 53  1  0  0  0
 25 54  1  0  0  0
 26 27  1  0  0  0
 26 55  1  0  0  0
 26 56  1  0  0  0
 27 28  1  0  0  0
 27 57  1  0  0  0
 27 58  1  0  0  0
 28 29  1  0  0  0
 28 59  1  0  0  0
 28 60  1  0  0  0
 29 30  1  0  0  0
 29 61  1  0  0  0
 30 32  2  0  0  0
 30 31  1  0  0  0
 31 33  1  0  0  0
 31 34  2  0  0  0
 33 36  1  0  0  0
 33 62  1  0  0  0
 34 35  1  0  0  0
 35 63  1  0  0  0
 35 36  2  0  0  0
 36 64  1  0  0  0
M  END
> <s_m_entry_id>
168

> <s_m_entry_name>
dock_pv.167

> <s_m_Source_Path>
/home/csk/Desktop/cluster/DUD-E-result/kif11

> <s_m_Source_File>
dock_pv.maegz

> <i_m_Source_File_Index>
167

> <chembl_id>
CHEMBL209310

> <chembl_pref_name>
None

> <i_lp_mmshare_version>
53161

> <i_f3d_flags>
0

> <r_lp_tautomer_probability>
0.499999999999999

> <s_lp_Force_Field>
OPLS_2005

> <r_lp_Energy>
36.475681

> <b_lp_Chiralities_Consistent>
1

> <s_lp_Variant>
CHEMBL4581_lig92-2

> <s_i_glide_gridfile>
glide-grid_3cjo

> <i_i_glide_lignum>
151

> <i_i_glide_rotatable_bonds>
12

> <r_i_docking_score>
-8.19247894485844

> <r_i_glide_ligand_efficiency>
-0.227568859579401

> <r_i_glide_ligand_efficiency_sa>
-0.751415817547528

> <r_i_glide_ligand_efficiency_ln>
-1.78737757056546

> <r_i_glide_gscore>
-8.19247894485844

> <r_i_glide_lipo>
-4.02798479683002

> <r_i_glide_hbond>
-0.236185932732597

> <r_i_glide_metal>
0

> <r_i_glide_rewards>
-1.59864418663706

> <r_i_glide_evdw>
-51.7477188110352

> <r_i_glide_ecoul>
-3.67792081832886

> <r_i_glide_erotb>
0.833277185377532

> <r_i_glide_esite>
-0.0238671507351997

> <r_i_glide_emodel>
-75.8875522479303

> <r_i_glide_energy>
-55.425639629364

> <r_i_glide_einternal>
15.56813621521

> <i_i_glide_confnum>
63

> <i_i_glide_posenum>
352

> <r_i_glide_eff_state_penalty>
0

> <s_user_duplicate_titles>
CHEMBL4581_lig92

> <s_m_subgroup_title>
dock_pv

> <s_m_subgroupid>
dock_pv

> <b_m_subgroup_collapsed>
1

$$$$
CHEMBL4581_lig838
                    3D
 Schrodinger Suite 2021-1.
 49 51  0  0  1  0            999 V2000
   14.6651   14.0233  106.9319 C   0  0  0  0  0  0
   14.7410   12.7621  106.2242 N   0  0  0  0  0  0
   16.0532   14.4662  107.4272 C   0  0  0  0  0  0
   16.5332   13.7941  108.7486 C   0  0  0  0  0  0
   17.6318   14.5709  109.5894 C   0  0  0  0  0  0
   18.9232   14.5373  108.7074 C   0  0  0  0  0  0
   17.1423   16.0182  109.9205 C   0  0  0  0  0  0
   17.8817   13.9163  110.9877 C   0  0  0  0  0  0
   19.0549   15.3995  107.6053 C   0  0  0  0  0  0
   20.1482   15.3134  106.7507 C   0  0  0  0  0  0
   21.1475   14.3773  107.0010 C   0  0  0  0  0  0
   21.0761   13.5618  108.1294 C   0  0  0  0  0  0
   19.9595   13.6210  108.9579 C   0  0  0  0  0  0
   17.1706   12.7927  111.4427 C   0  0  0  0  0  0
   17.3774   12.2971  112.7275 C   0  0  0  0  0  0
   18.3177   12.8859  113.5651 C   0  0  0  0  0  0
   19.0591   13.9747  113.1241 C   0  0  0  0  0  0
   18.8409   14.4829  111.8479 C   0  0  0  0  0  0
   15.7831   16.2830  110.1623 C   0  0  0  0  0  0
   15.3444   17.5652  110.4730 C   0  0  0  0  0  0
   16.2640   18.6017  110.5635 C   0  0  0  0  0  0
   17.6180   18.3617  110.3548 C   0  0  0  0  0  0
   18.0531   17.0830  110.0297 C   0  0  0  0  0  0
   22.3321   14.2477  106.0605 C   0  0  0  0  0  0
   13.9556   13.9536  107.7582 H   0  0  0  0  0  0
   14.2664   14.7660  106.2387 H   0  0  0  0  0  0
   15.1200   12.0337  106.8256 H   0  0  0  0  0  0
   13.8173   12.4509  105.9600 H   0  0  0  0  0  0
   16.0001   15.5456  107.5610 H   0  0  0  0  0  0
   16.7885   14.3149  106.6353 H   0  0  0  0  0  0
   16.8949   12.7916  108.5098 H   0  0  0  0  0  0
   15.6488   13.6220  109.3597 H   0  0  0  0  0  0
   18.2894   16.1275  107.3833 H   0  0  0  0  0  0
   20.2086   15.9672  105.8927 H   0  0  0  0  0  0
   21.8568   12.8430  108.3288 H   0  0  0  0  0  0
   19.9021   12.9204  109.7765 H   0  0  0  0  0  0
   16.4365   12.2893  110.8339 H   0  0  0  0  0  0
   16.7949   11.4574  113.0766 H   0  0  0  0  0  0
   18.4743   12.4931  114.5600 H   0  0  0  0  0  0
   19.7976   14.4276  113.7687 H   0  0  0  0  0  0
   19.4270   15.3313  111.5297 H   0  0  0  0  0  0
   15.0423   15.5020  110.1200 H   0  0  0  0  0  0
   14.2966   17.7544  110.6506 H   0  0  0  0  0  0
   15.9207   19.5946  110.8155 H   0  0  0  0  0  0
   18.3341   19.1625  110.4514 H   0  0  0  0  0  0
   19.1123   16.9278  109.8798 H   0  0  0  0  0  0
   23.2502   14.5729  106.5506 H   0  0  0  0  0  0
   22.4668   13.2035  105.7756 H   0  0  0  0  0  0
   22.1938   14.8211  105.1430 H   0  0  0  0  0  0
  1  2  1  0  0  0
  1  3  1  0  0  0
  1 25  1  0  0  0
  1 26  1  0  0  0
  2 27  1  0  0  0
  2 28  1  0  0  0
  3  4  1  0  0  0
  3 29  1  0  0  0
  3 30  1  0  0  0
  4  5  1  0  0  0
  4 31  1  0  0  0
  4 32  1  0  0  0
  5  7  1  0  0  0
  5  8  1  0  0  0
  5  6  1  0  0  0
  6 13  1  0  0  0
  6  9  2  0  0  0
  7 19  2  0  0  0
  7 23  1  0  0  0
  8 14  2  0  0  0
  8 18  1  0  0  0
  9 10  1  0  0  0
  9 33  1  0  0  0
 10 11  2  0  0  0
 10 34  1  0  0  0
 11 12  1  0  0  0
 11 24  1  0  0  0
 12 13  2  0  0  0
 12 35  1  0  0  0
 13 36  1  0  0  0
 14 15  1  0  0  0
 14 37  1  0  0  0
 15 16  2  0  0  0
 15 38  1  0  0  0
 16 17  1  0  0  0
 16 39  1  0  0  0
 17 18  2  0  0  0
 17 40  1  0  0  0
 18 41  1  0  0  0
 19 20  1  0  0  0
 19 42  1  0  0  0
 20 21  2  0  0  0
 20 43  1  0  0  0
 21 22  1  0  0  0
 21 44  1  0  0  0
 22 23  2  0  0  0
 22 45  1  0  0  0
 23 46  1  0  0  0
 24 47  1  0  0  0
 24 48  1  0  0  0
 24 49  1  0  0  0
M  END
> <s_m_entry_id>
169

> <s_m_entry_name>
dock_pv.168

> <s_m_Source_Path>
/home/csk/Desktop/cluster/DUD-E-result/kif11

> <s_m_Source_File>
dock_pv.maegz

> <i_m_Source_File_Index>
168

> <chembl_id>
CHEMBL2023002

> <chembl_pref_name>
None

> <i_lp_mmshare_version>
53161

> <i_f3d_flags>
0

> <r_lp_tautomer_probability>
1

> <s_lp_Force_Field>
OPLS_2005

> <r_lp_Energy>
29.621321

> <b_lp_Chiralities_Consistent>
1

> <s_lp_Variant>
CHEMBL4581_lig838-1

> <s_i_glide_gridfile>
glide-grid_3cjo

> <i_i_glide_lignum>
1225

> <i_i_glide_rotatable_bonds>
6

> <r_i_docking_score>
-8.19198849745812

> <r_i_glide_ligand_efficiency>
-0.341332854060755

> <r_i_glide_ligand_efficiency_sa>
-0.984574323158841

> <r_i_glide_ligand_efficiency_ln>
-1.96071875329952

> <r_i_glide_gscore>
-8.19198849745812

> <r_i_glide_lipo>
-5.02882061177835

> <r_i_glide_hbond>
-0.32

> <r_i_glide_metal>
0

> <r_i_glide_rewards>
-1.31661992424242

> <r_i_glide_evdw>
-40.2174491882324

> <r_i_glide_ecoul>
-3.00266695022583

> <r_i_glide_erotb>
0.934724540508144

> <r_i_glide_esite>
0

> <r_i_glide_emodel>
-60.1594316238046

> <r_i_glide_energy>
-43.2201161384583

> <r_i_glide_einternal>
6.08177042007446

> <i_i_glide_confnum>
43

> <i_i_glide_posenum>
227

> <r_i_glide_eff_state_penalty>
0

> <s_user_duplicate_titles>
CHEMBL4581_lig838

> <s_m_subgroup_title>
dock_pv

> <s_m_subgroupid>
dock_pv

> <b_m_subgroup_collapsed>
1

$$$$
CHEMBL4581_lig89
                    3D
 Schrodinger Suite 2021-1.
 53 56  0  0  1  0            999 V2000
   22.7180   14.2159  106.0126 C   0  0  0  0  0  0
   22.7176   15.3743  105.2452 C   0  0  0  0  0  0
   21.6762   16.2871  105.3626 C   0  0  0  0  0  0
   20.6396   16.0393  106.2576 C   0  0  0  0  0  0
   20.6425   14.8840  107.0588 C   0  0  0  0  0  0
   21.6977   13.9622  106.9252 C   0  0  0  0  0  0
   21.7830   12.8467  107.6896 F   0  0  0  0  0  0
   21.6696   17.4047  104.6056 F   0  0  0  0  0  0
   19.5556   14.6772  108.0261 C   0  0  0  0  0  0
   19.6498   14.0740  109.1367 N   0  0  0  0  0  0
   18.5021   14.1899  109.8635 N   0  0  0  0  0  0
   17.4221   14.8680  109.0802 C   0  0  2  0  0  0
   18.1679   15.1652  107.7636 C   0  0  0  0  0  0
   16.9561   16.1950  109.7571 C   0  0  0  0  0  0
   17.9006   17.2115  109.9567 C   0  0  0  0  0  0
   17.5442   18.4045  110.5592 C   0  0  0  0  0  0
   16.2286   18.6143  110.9585 C   0  0  0  0  0  0
   15.2765   17.6144  110.7893 C   0  0  0  0  0  0
   15.6414   16.4058  110.2014 C   0  0  0  0  0  0
   18.6409   14.2732  111.2175 C   0  0  0  0  0  0
   17.7771   13.5330  111.9395 N   0  0  0  0  0  0
   19.5155   14.9534  111.7667 O   0  0  0  0  0  0
   16.2462   13.8668  108.7837 C   0  0  0  0  0  0
   15.2380   14.3479  107.6955 C   0  0  0  0  0  0
   13.9243   13.5613  107.6593 C   0  0  0  0  0  0
   13.0156   14.1544  106.6965 N   0  0  0  0  0  0
   17.6407   13.5402  113.4210 C   0  0  0  0  0  0
   17.5264   12.0190  113.3151 C   0  0  0  0  0  0
   17.4694   12.0889  111.7807 C   0  0  0  0  0  0
   23.5182   13.5116  105.9025 H   0  0  0  0  0  0
   23.5177   15.5607  104.5543 H   0  0  0  0  0  0
   19.8622   16.7847  106.3301 H   0  0  0  0  0  0
   17.7894   14.6218  106.9000 H   0  0  0  0  0  0
   18.1412   16.2245  107.5121 H   0  0  0  0  0  0
   18.9275   17.0752  109.6528 H   0  0  0  0  0  0
   18.2964   19.1619  110.7127 H   0  0  0  0  0  0
   15.9483   19.5557  111.4133 H   0  0  0  0  0  0
   14.2607   17.7775  111.1165 H   0  0  0  0  0  0
   14.8785   15.6512  110.0977 H   0  0  0  0  0  0
   16.6582   12.9094  108.4571 H   0  0  0  0  0  0
   15.7189   13.6331  109.7103 H   0  0  0  0  0  0
   15.0168   15.4067  107.8270 H   0  0  0  0  0  0
   15.6896   14.2709  106.7059 H   0  0  0  0  0  0
   14.1123   12.5287  107.3590 H   0  0  0  0  0  0
   13.4495   13.5633  108.6418 H   0  0  0  0  0  0
   12.1626   13.6164  106.6434 H   0  0  0  0  0  0
   12.7528   15.0851  106.9865 H   0  0  0  0  0  0
   18.5826   13.8003  113.9048 H   0  0  0  0  0  0
   16.7183   14.0137  113.7452 H   0  0  0  0  0  0
   16.5819   11.6590  113.7300 H   0  0  0  0  0  0
   18.4533   11.5623  113.6597 H   0  0  0  0  0  0
   16.4639   11.9394  111.3838 H   0  0  0  0  0  0
   18.3179   11.5524  111.3585 H   0  0  0  0  0  0
  1  6  1  0  0  0
  1  2  2  0  0  0
  1 30  1  0  0  0
  2  3  1  0  0  0
  2 31  1  0  0  0
  3  4  2  0  0  0
  3  8  1  0  0  0
  4  5  1  0  0  0
  4 32  1  0  0  0
  5  9  1  0  0  0
  5  6  2  0  0  0
  6  7  1  0  0  0
  9 10  2  0  0  0
  9 13  1  0  0  0
 10 11  1  0  0  0
 11 20  1  0  0  0
 11 12  1  0  0  0
 12 14  1  0  0  0
 12 23  1  0  0  0
 12 13  1  0  0  0
 13 33  1  0  0  0
 13 34  1  0  0  0
 14 15  2  0  0  0
 14 19  1  0  0  0
 15 16  1  0  0  0
 15 35  1  0  0  0
 16 17  2  0  0  0
 16 36  1  0  0  0
 17 18  1  0  0  0
 17 37  1  0  0  0
 18 19  2  0  0  0
 18 38  1  0  0  0
 19 39  1  0  0  0
 20 21  1  0  0  0
 20 22  2  0  0  0
 21 27  1  0  0  0
 21 29  1  0  0  0
 23 24  1  0  0  0
 23 40  1  0  0  0
 23 41  1  0  0  0
 24 25  1  0  0  0
 24 42  1  0  0  0
 24 43  1  0  0  0
 25 26  1  0  0  0
 25 44  1  0  0  0
 25 45  1  0  0  0
 26 46  1  0  0  0
 26 47  1  0  0  0
 27 28  1  0  0  0
 27 48  1  0  0  0
 27 49  1  0  0  0
 28 29  1  0  0  0
 28 50  1  0  0  0
 28 51  1  0  0  0
 29 52  1  0  0  0
 29 53  1  0  0  0
M  END
> <s_m_entry_id>
170

> <s_m_entry_name>
dock_pv.169

> <s_m_Source_Path>
/home/csk/Desktop/cluster/DUD-E-result/kif11

> <s_m_Source_File>
dock_pv.maegz

> <i_m_Source_File_Index>
169

> <chembl_id>
CHEMBL210264

> <chembl_pref_name>
None

> <i_lp_mmshare_version>
53161

> <i_f3d_flags>
0

> <r_lp_tautomer_probability>
1

> <s_lp_Force_Field>
OPLS_2005

> <r_lp_Energy>
55.680087

> <b_lp_Chiralities_Consistent>
1

> <s_lp_Variant>
CHEMBL4581_lig89-1

> <s_i_glide_gridfile>
glide-grid_3cjo

> <i_i_glide_lignum>
142

> <i_i_glide_rotatable_bonds>
7

> <r_i_docking_score>
-8.18084764210281

> <r_i_glide_ligand_efficiency>
-0.282098194555269

> <r_i_glide_ligand_efficiency_sa>
-0.866695028654947

> <r_i_glide_ligand_efficiency_ln>
-1.87320666164448

> <r_i_glide_gscore>
-8.18084764210281

> <r_i_glide_lipo>
-3.93022358763863

> <r_i_glide_hbond>
0

> <r_i_glide_metal>
0

> <r_i_glide_rewards>
-2.49239341363636

> <r_i_glide_evdw>
-44.5075454711914

> <r_i_glide_ecoul>
-1.82007002830505

> <r_i_glide_erotb>
0.740157136977513

> <r_i_glide_esite>
0

> <r_i_glide_emodel>
-66.7076179756489

> <r_i_glide_energy>
-46.3276154994965

> <r_i_glide_einternal>
3.37173843383789

> <i_i_glide_confnum>
78

> <i_i_glide_posenum>
343

> <r_i_glide_eff_state_penalty>
0

> <s_user_duplicate_titles>
CHEMBL4581_lig89

> <s_m_subgroup_title>
dock_pv

> <s_m_subgroupid>
dock_pv

> <b_m_subgroup_collapsed>
1

$$$$
CHEMBL4581_lig480
                    3D
 Schrodinger Suite 2021-1.
 52 54  0  0  1  0            999 V2000
   17.1157   13.5237  107.2661 S   0  0  0  0  0  0
   16.7917   14.2917  105.6421 C   0  0  0  0  0  0
   16.0736   13.3321  104.6646 C   0  0  2  0  0  0
   15.8815   13.8973  103.2421 C   0  0  0  0  0  0
   17.1181   13.9622  102.5586 O   0  0  0  0  0  0
   14.7727   12.9614  105.2038 N   0  0  0  0  0  0
   17.9729   14.7619  108.3375 C   0  0  0  0  0  0
   18.0538   14.1937  109.7822 C   0  0  0  0  0  0
   19.3577   14.9260  107.6418 C   0  0  0  0  0  0
   17.0753   13.3163  110.2755 C   0  0  0  0  0  0
   17.1188   12.8682  111.5844 C   0  0  0  0  0  0
   18.1331   13.3117  112.4412 C   0  0  0  0  0  0
   19.1182   14.1652  111.9571 C   0  0  0  0  0  0
   19.0859   14.5977  110.6389 C   0  0  0  0  0  0
   20.3594   13.9620  107.8357 C   0  0  0  0  0  0
   21.5181   13.9647  107.0613 C   0  0  0  0  0  0
   21.7407   15.0041  106.1590 C   0  0  0  0  0  0
   20.8013   16.0252  106.0192 C   0  0  0  0  0  0
   19.6130   15.9783  106.7460 C   0  0  0  0  0  0
   17.1663   16.0781  108.5074 C   0  0  0  0  0  0
   17.8058   17.2013  109.0590 C   0  0  0  0  0  0
   17.0939   18.3621  109.3373 C   0  0  0  0  0  0
   15.7394   18.4382  109.0256 C   0  0  0  0  0  0
   15.0893   17.3471  108.4581 C   0  0  0  0  0  0
   15.7955   16.1751  108.2083 C   0  0  0  0  0  0
   18.2303   12.9682  113.7709 O   0  0  0  0  0  0
   17.1161   12.3674  114.4124 C   0  0  0  0  0  0
   16.2041   15.2008  105.7778 H   0  0  0  0  0  0
   17.7387   14.6053  105.2067 H   0  0  0  0  0  0
   16.6519   12.4084  104.5962 H   0  0  0  0  0  0
   15.2174   13.2533  102.6528 H   0  0  0  0  0  0
   15.4246   14.8884  103.2685 H   0  0  0  0  0  0
   17.8023   13.5618  103.1297 H   0  0  0  0  0  0
   14.3522   12.2237  104.6559 H   0  0  0  0  0  0
   14.9127   12.5775  106.1306 H   0  0  0  0  0  0
   16.2528   12.9726  109.6660 H   0  0  0  0  0  0
   16.3387   12.1931  111.9026 H   0  0  0  0  0  0
   19.9034   14.5014  112.6184 H   0  0  0  0  0  0
   19.8581   15.2726  110.3029 H   0  0  0  0  0  0
   20.1958   13.1404  108.5207 H   0  0  0  0  0  0
   22.2419   13.1751  107.1792 H   0  0  0  0  0  0
   22.6416   15.0151  105.5633 H   0  0  0  0  0  0
   20.9824   16.8407  105.3304 H   0  0  0  0  0  0
   18.8791   16.7515  106.5724 H   0  0  0  0  0  0
   18.8568   17.1654  109.3049 H   0  0  0  0  0  0
   17.5898   19.1857  109.8213 H   0  0  0  0  0  0
   15.1846   19.3387  109.2420 H   0  0  0  0  0  0
   14.0347   17.3965  108.2305 H   0  0  0  0  0  0
   15.2461   15.3375  107.8019 H   0  0  0  0  0  0
   17.4464   11.9624  115.3591 H   0  0  0  0  0  0
   16.3353   13.0936  114.6248 H   0  0  0  0  0  0
   16.6797   11.5425  113.8628 H   0  0  0  0  0  0
  1  2  1  0  0  0
  1  7  1  0  0  0
  2  3  1  0  0  0
  2 28  1  0  0  0
  2 29  1  0  0  0
  3  4  1  0  0  0
  3  6  1  0  0  0
  3 30  1  0  0  0
  4  5  1  0  0  0
  4 31  1  0  0  0
  4 32  1  0  0  0
  5 33  1  0  0  0
  6 34  1  0  0  0
  6 35  1  0  0  0
  7  8  1  0  0  0
  7  9  1  0  0  0
  7 20  1  0  0  0
  8 14  1  0  0  0
  8 10  2  0  0  0
  9 15  2  0  0  0
  9 19  1  0  0  0
 10 11  1  0  0  0
 10 36  1  0  0  0
 11 12  2  0  0  0
 11 37  1  0  0  0
 12 13  1  0  0  0
 12 26  1  0  0  0
 13 14  2  0  0  0
 13 38  1  0  0  0
 14 39  1  0  0  0
 15 16  1  0  0  0
 15 40  1  0  0  0
 16 17  2  0  0  0
 16 41  1  0  0  0
 17 18  1  0  0  0
 17 42  1  0  0  0
 18 19  2  0  0  0
 18 43  1  0  0  0
 19 44  1  0  0  0
 20 21  2  0  0  0
 20 25  1  0  0  0
 21 22  1  0  0  0
 21 45  1  0  0  0
 22 23  2  0  0  0
 22 46  1  0  0  0
 23 24  1  0  0  0
 23 47  1  0  0  0
 24 25  2  0  0  0
 24 48  1  0  0  0
 25 49  1  0  0  0
 26 27  1  0  0  0
 27 50  1  0  0  0
 27 51  1  0  0  0
 27 52  1  0  0  0
M  END
> <s_m_entry_id>
171

> <s_m_entry_name>
dock_pv.170

> <s_m_Source_Path>
/home/csk/Desktop/cluster/DUD-E-result/kif11

> <s_m_Source_File>
dock_pv.maegz

> <i_m_Source_File_Index>
170

> <chembl_id>
CHEMBL1818528

> <chembl_pref_name>
None

> <i_lp_mmshare_version>
53161

> <i_f3d_flags>
0

> <r_lp_tautomer_probability>
1

> <s_lp_Force_Field>
OPLS_2005

> <r_lp_Energy>
31.62892

> <b_lp_Chiralities_Consistent>
1

> <s_lp_Variant>
CHEMBL4581_lig480-1

> <s_i_glide_gridfile>
glide-grid_3cjo

> <i_i_glide_lignum>
703

> <i_i_glide_rotatable_bonds>
9

> <r_i_docking_score>
-8.18066248894186

> <r_i_glide_ligand_efficiency>
-0.302987499590439

> <r_i_glide_ligand_efficiency_sa>
-0.908962497772721

> <r_i_glide_ligand_efficiency_ln>
-1.90432335866397

> <r_i_glide_gscore>
-8.18066248894186

> <r_i_glide_lipo>
-4.5506200808224

> <r_i_glide_hbond>
-0.456

> <r_i_glide_metal>
0

> <r_i_glide_rewards>
-0.863790902676119

> <r_i_glide_evdw>
-39.3281135559082

> <r_i_glide_ecoul>
-8.57490634918213

> <r_i_glide_erotb>
0.942390124729382

> <r_i_glide_esite>
0

> <r_i_glide_emodel>
-66.763292064588

> <r_i_glide_energy>
-47.9030199050903

> <r_i_glide_einternal>
10.9867038726807

> <i_i_glide_confnum>
97

> <i_i_glide_posenum>
249

> <r_i_glide_eff_state_penalty>
0

> <s_user_duplicate_titles>
CHEMBL4581_lig480

> <s_m_subgroup_title>
dock_pv

> <s_m_subgroupid>
dock_pv

> <b_m_subgroup_collapsed>
1

$$$$
CHEMBL4581_lig264
                    3D
 Schrodinger Suite 2021-1.
 27 28  0  0  1  0            999 V2000
   20.7180   14.3349  107.6763 C   0  0  0  0  0  0
   20.2814   15.5582  107.1466 C   0  0  0  0  0  0
   19.2017   16.2108  107.7588 C   0  0  0  0  0  0
   18.6148   15.6824  108.9101 C   0  0  0  0  0  0
   19.0794   14.4820  109.4544 C   0  0  0  0  0  0
   20.1192   13.8080  108.8167 C   0  0  0  0  0  0
   18.5311   13.9443  110.7151 C   0  0  0  0  0  0
   17.5836   12.9166  110.7005 C   0  0  0  0  0  0
   17.1187   12.3796  111.8978 C   0  0  0  0  0  0
   17.5999   12.8750  113.1083 C   0  0  0  0  0  0
   18.5512   13.8901  113.1303 C   0  0  0  0  0  0
   19.0094   14.4307  111.9344 C   0  0  0  0  0  0
   20.9802   16.2072  105.9517 C   0  0  0  0  0  0
   21.8004   17.1619  106.3809 F   0  0  0  0  0  0
   20.0855   16.7620  105.1323 F   0  0  0  0  0  0
   21.7129   15.3424  105.2547 F   0  0  0  0  0  0
   17.1179   12.3622  114.3068 N   0  0  0  0  0  0
   21.7429   13.6478  107.1193 F   0  0  0  0  0  0
   18.8537   17.1606  107.3776 H   0  0  0  0  0  0
   17.8105   16.2179  109.3938 H   0  0  0  0  0  0
   20.4847   12.8755  109.2206 H   0  0  0  0  0  0
   17.2199   12.5220  109.7615 H   0  0  0  0  0  0
   16.3854   11.5877  111.8789 H   0  0  0  0  0  0
   18.9426   14.2596  114.0649 H   0  0  0  0  0  0
   19.7526   15.2149  111.9534 H   0  0  0  0  0  0
   17.6750   12.4927  115.1423 H   0  0  0  0  0  0
   16.4743   11.5864  114.2597 H   0  0  0  0  0  0
  1  6  1  0  0  0
  1  2  2  0  0  0
  1 18  1  0  0  0
  2  3  1  0  0  0
  2 13  1  0  0  0
  3  4  2  0  0  0
  3 19  1  0  0  0
  4  5  1  0  0  0
  4 20  1  0  0  0
  5  6  2  0  0  0
  5  7  1  0  0  0
  6 21  1  0  0  0
  7 12  1  0  0  0
  7  8  2  0  0  0
  8  9  1  0  0  0
  8 22  1  0  0  0
  9 10  2  0  0  0
  9 23  1  0  0  0
 10 11  1  0  0  0
 10 17  1  0  0  0
 11 12  2  0  0  0
 11 24  1  0  0  0
 12 25  1  0  0  0
 13 14  1  0  0  0
 13 15  1  0  0  0
 13 16  1  0  0  0
 17 26  1  0  0  0
 17 27  1  0  0  0
M  END
> <s_m_entry_id>
172

> <s_m_entry_name>
dock_pv.171

> <s_m_Source_Path>
/home/csk/Desktop/cluster/DUD-E-result/kif11

> <s_m_Source_File>
dock_pv.maegz

> <i_m_Source_File_Index>
171

> <chembl_id>
CHEMBL470797

> <chembl_pref_name>
None

> <i_lp_mmshare_version>
53161

> <i_f3d_flags>
0

> <r_lp_tautomer_probability>
1

> <s_lp_Force_Field>
OPLS_2005

> <r_lp_Energy>
15.544498

> <b_lp_Chiralities_Consistent>
1

> <s_lp_Variant>
CHEMBL4581_lig264-1

> <s_i_glide_gridfile>
glide-grid_3cjo

> <i_i_glide_lignum>
389

> <i_i_glide_rotatable_bonds>
2

> <r_i_docking_score>
-8.17394393666394

> <r_i_glide_ligand_efficiency>
-0.45410799648133

> <r_i_glide_ligand_efficiency_sa>
-1.19009962267328

> <r_i_glide_ligand_efficiency_ln>
-2.10107014068091

> <r_i_glide_gscore>
-8.17394393666394

> <r_i_glide_lipo>
-3.51241806801183

> <r_i_glide_hbond>
-0.0816675206230415

> <r_i_glide_metal>
0

> <r_i_glide_rewards>
-3.2025380056347

> <r_i_glide_evdw>
-29.8204956054688

> <r_i_glide_ecoul>
-1.04369914531708

> <r_i_glide_erotb>
0.270259309676637

> <r_i_glide_esite>
0

> <r_i_glide_emodel>
-42.9405457752634

> <r_i_glide_energy>
-30.8641947507858

> <r_i_glide_einternal>
5.23502922058105

> <i_i_glide_confnum>
1

> <i_i_glide_posenum>
342

> <r_i_glide_eff_state_penalty>
0

> <s_user_duplicate_titles>
CHEMBL4581_lig264

> <s_m_subgroup_title>
dock_pv

> <s_m_subgroupid>
dock_pv

> <b_m_subgroup_collapsed>
1

$$$$
CHEMBL4581_lig190
                    3D
 Schrodinger Suite 2021-1.
 54 56  0  0  1  0            999 V2000
   16.3152   13.4459  104.6162 N   0  0  0  0  0  0
   15.7928   13.2868  105.9896 C   0  0  1  0  0  0
   16.5976   14.1760  106.9659 C   0  0  0  0  0  0
   16.6793   13.4760  108.6505 S   0  0  0  0  0  0
   14.2807   13.5364  106.0531 C   0  0  0  0  0  0
   13.5630   13.6583  105.0554 O   0  0  0  0  0  0
   17.8296   14.5466  109.6439 C   0  0  0  0  0  0
   19.1289   14.5904  108.7859 C   0  0  0  0  0  0
   17.1947   15.9445  109.9136 C   0  0  0  0  0  0
   18.0622   13.9308  111.0655 C   0  0  0  0  0  0
   18.0079   17.0767  110.0835 C   0  0  0  0  0  0
   17.4556   18.3153  110.3786 C   0  0  0  0  0  0
   16.0758   18.4446  110.5008 C   0  0  0  0  0  0
   15.2484   17.3389  110.3375 C   0  0  0  0  0  0
   15.8058   16.0968  110.0480 C   0  0  0  0  0  0
   20.1243   13.6197  108.9479 C   0  0  0  0  0  0
   21.1866   13.5544  108.0552 C   0  0  0  0  0  0
   21.2908   14.4358  106.9809 C   0  0  0  0  0  0
   20.3487   15.4641  106.8615 C   0  0  0  0  0  0
   19.2909   15.5434  107.7620 C   0  0  0  0  0  0
   19.0033   14.5263  111.9229 C   0  0  0  0  0  0
   19.1768   14.0709  113.2273 C   0  0  0  0  0  0
   18.4338   12.9900  113.6894 C   0  0  0  0  0  0
   17.5182   12.3622  112.8520 C   0  0  0  0  0  0
   17.3344   12.8278  111.5541 C   0  0  0  0  0  0
   13.8141   13.5605  107.3277 O   0  0  0  0  0  0
   12.4310   13.7594  107.5872 C   0  0  0  0  0  0
   22.3802   14.2629  106.1535 O   0  0  0  0  0  0
   22.7203   15.2928  105.2348 C   0  0  0  0  0  0
   17.2999   13.1628  104.5592 H   0  0  0  0  0  0
   15.8135   12.8510  103.9729 H   0  0  0  0  0  0
   15.9622   12.2502  106.2771 H   0  0  0  0  0  0
   17.6142   14.2031  106.5858 H   0  0  0  0  0  0
   16.2385   15.2068  106.9947 H   0  0  0  0  0  0
   19.0844   17.0023  110.0168 H   0  0  0  0  0  0
   18.1049   19.1630  110.5252 H   0  0  0  0  0  0
   15.6452   19.4084  110.7334 H   0  0  0  0  0  0
   14.1776   17.4397  110.4456 H   0  0  0  0  0  0
   15.1394   15.2515  109.9547 H   0  0  0  0  0  0
   20.0484   12.8704  109.7232 H   0  0  0  0  0  0
   21.9303   12.7783  108.1666 H   0  0  0  0  0  0
   20.4059   16.1910  106.0682 H   0  0  0  0  0  0
   18.5386   16.3002  107.5936 H   0  0  0  0  0  0
   19.5954   15.3646  111.5872 H   0  0  0  0  0  0
   19.8949   14.5497  113.8780 H   0  0  0  0  0  0
   18.5689   12.6316  114.7018 H   0  0  0  0  0  0
   16.9282   11.5334  113.2136 H   0  0  0  0  0  0
   16.5867   12.3242  110.9619 H   0  0  0  0  0  0
   12.2502   13.7560  108.6634 H   0  0  0  0  0  0
   11.8213   12.9727  107.1383 H   0  0  0  0  0  0
   12.0947   14.7185  107.1887 H   0  0  0  0  0  0
   23.5882   14.9788  104.6553 H   0  0  0  0  0  0
   21.9175   15.5018  104.5349 H   0  0  0  0  0  0
   22.9816   16.2141  105.7599 H   0  0  0  0  0  0
  1  2  1  0  0  0
  1 30  1  0  0  0
  1 31  1  0  0  0
  2  5  1  0  0  0
  2  3  1  0  0  0
  2 32  1  0  0  0
  3  4  1  0  0  0
  3 33  1  0  0  0
  3 34  1  0  0  0
  4  7  1  0  0  0
  5  6  2  0  0  0
  5 26  1  0  0  0
  7  8  1  0  0  0
  7  9  1  0  0  0
  7 10  1  0  0  0
  8 16  2  0  0  0
  8 20  1  0  0  0
  9 15  1  0  0  0
  9 11  2  0  0  0
 10 21  2  0  0  0
 10 25  1  0  0  0
 11 12  1  0  0  0
 11 35  1  0  0  0
 12 13  2  0  0  0
 12 36  1  0  0  0
 13 14  1  0  0  0
 13 37  1  0  0  0
 14 15  2  0  0  0
 14 38  1  0  0  0
 15 39  1  0  0  0
 16 17  1  0  0  0
 16 40  1  0  0  0
 17 18  2  0  0  0
 17 41  1  0  0  0
 18 19  1  0  0  0
 18 28  1  0  0  0
 19 20  2  0  0  0
 19 42  1  0  0  0
 20 43  1  0  0  0
 21 22  1  0  0  0
 21 44  1  0  0  0
 22 23  2  0  0  0
 22 45  1  0  0  0
 23 24  1  0  0  0
 23 46  1  0  0  0
 24 25  2  0  0  0
 24 47  1  0  0  0
 25 48  1  0  0  0
 26 27  1  0  0  0
 27 49  1  0  0  0
 27 50  1  0  0  0
 27 51  1  0  0  0
 28 29  1  0  0  0
 29 52  1  0  0  0
 29 53  1  0  0  0
 29 54  1  0  0  0
M  END
> <s_m_entry_id>
173

> <s_m_entry_name>
dock_pv.172

> <s_m_Source_Path>
/home/csk/Desktop/cluster/DUD-E-result/kif11

> <s_m_Source_File>
dock_pv.maegz

> <i_m_Source_File_Index>
172

> <chembl_id>
CHEMBL400633

> <chembl_pref_name>
None

> <i_lp_mmshare_version>
53161

> <i_f3d_flags>
0

> <r_lp_tautomer_probability>
1

> <s_lp_Force_Field>
OPLS_2005

> <r_lp_Energy>
25.382486

> <b_lp_Chiralities_Consistent>
1

> <s_lp_Variant>
CHEMBL4581_lig190-1

> <s_i_glide_gridfile>
glide-grid_3cjo

> <i_i_glide_lignum>
286

> <i_i_glide_rotatable_bonds>
9

> <r_i_docking_score>
-8.17329367793275

> <r_i_glide_ligand_efficiency>
-0.281837713032164

> <r_i_glide_ligand_efficiency_sa>
-0.865894746889628

> <r_i_glide_ligand_efficiency_ln>
-1.87147699540154

> <r_i_glide_gscore>
-8.17329367793275

> <r_i_glide_lipo>
-5.12517253054206

> <r_i_glide_hbond>
-0.16

> <r_i_glide_metal>
0

> <r_i_glide_rewards>
-0.742150930726745

> <r_i_glide_evdw>
-47.0996704101562

> <r_i_glide_ecoul>
-4.09124279022217

> <r_i_glide_erotb>
0.82918249056288

> <r_i_glide_esite>
-0.00648276818567942

> <r_i_glide_emodel>
-75.2980113834819

> <r_i_glide_energy>
-51.1909132003784

> <r_i_glide_einternal>
4.11694002151489

> <i_i_glide_confnum>
96

> <i_i_glide_posenum>
128

> <r_i_glide_eff_state_penalty>
0

> <s_user_duplicate_titles>
CHEMBL4581_lig190,397761

> <s_m_subgroup_title>
dock_pv

> <s_m_subgroupid>
dock_pv

> <b_m_subgroup_collapsed>
1

$$$$
CHEMBL4581_lig52
                    3D
 Schrodinger Suite 2021-1.
 54 57  0  0  1  0            999 V2000
   21.5150   16.3872  105.6528 C   0  0  0  0  0  0
   20.4987   16.0910  106.5588 C   0  0  0  0  0  0
   20.4765   14.8698  107.2524 C   0  0  0  0  0  0
   21.5319   13.9621  107.0273 C   0  0  0  0  0  0
   22.5460   14.2657  106.1241 C   0  0  0  0  0  0
   22.5304   15.4657  105.4244 C   0  0  0  0  0  0
   19.3410   14.5783  108.1613 C   0  0  0  0  0  0
   18.0763   15.4047  108.2278 C   0  0  0  0  0  0
   17.1781   14.7000  109.1502 N   0  0  0  0  0  0
   17.8742   13.5036  109.6327 C   0  0  1  0  0  0
   19.2439   13.5455  109.0090 C   0  0  0  0  0  0
   17.8977   13.3547  111.1503 C   0  0  0  0  0  0
   18.7245   14.1615  111.9393 C   0  0  0  0  0  0
   18.7749   13.9651  113.3155 C   0  0  0  0  0  0
   17.9832   12.9784  113.8990 C   0  0  0  0  0  0
   17.1465   12.1849  113.1215 C   0  0  0  0  0  0
   17.1181   12.3615  111.7438 C   0  0  0  0  0  0
   15.8143   14.7506  109.1091 C   0  0  0  0  0  0
   15.2359   15.6531  108.2691 N   0  0  0  0  0  0
   14.0417   15.3202  107.4398 C   0  0  0  0  0  0
   21.6425   12.8002  107.7097 F   0  0  0  0  0  0
   21.5108   17.5610  104.9849 F   0  0  0  0  0  0
   15.1210   13.9625  109.7591 O   0  0  0  0  0  0
   13.8306   16.2529  106.2105 C   0  0  0  0  0  0
   15.5586   17.0833  108.4239 C   0  0  0  0  0  0
   14.1221   13.9241  106.7460 C   0  0  0  0  0  0
   14.9734   16.1675  105.1693 C   0  0  0  0  0  0
   15.2760   13.8112  105.7244 C   0  0  0  0  0  0
   15.1191   14.8041  104.6599 N   0  0  1  0  0  0
   19.7238   16.8285  106.7054 H   0  0  0  0  0  0
   23.3447   13.5619  105.9550 H   0  0  0  0  0  0
   23.3046   15.6720  104.7067 H   0  0  0  0  0  0
   17.6232   15.5362  107.2443 H   0  0  0  0  0  0
   18.2971   16.4012  108.6111 H   0  0  0  0  0  0
   17.3663   12.6213  109.2351 H   0  0  0  0  0  0
   19.9533   12.7584  109.2041 H   0  0  0  0  0  0
   19.3394   14.9249  111.4846 H   0  0  0  0  0  0
   19.4319   14.5689  113.9233 H   0  0  0  0  0  0
   18.0205   12.8200  114.9645 H   0  0  0  0  0  0
   16.5238   11.4294  113.5795 H   0  0  0  0  0  0
   16.4757   11.7344  111.1408 H   0  0  0  0  0  0
   13.1790   15.3163  108.1070 H   0  0  0  0  0  0
   13.7203   17.2859  106.5397 H   0  0  0  0  0  0
   12.8768   16.0412  105.7239 H   0  0  0  0  0  0
   16.3221   17.2707  109.1811 H   0  0  0  0  0  0
   15.9123   17.5163  107.4888 H   0  0  0  0  0  0
   14.6685   17.6309  108.7347 H   0  0  0  0  0  0
   13.1767   13.6708  106.2640 H   0  0  0  0  0  0
   14.2406   13.1430  107.4935 H   0  0  0  0  0  0
   15.9269   16.4694  105.6039 H   0  0  0  0  0  0
   14.7777   16.8419  104.3346 H   0  0  0  0  0  0
   16.2414   13.9638  106.2084 H   0  0  0  0  0  0
   15.2988   12.8132  105.2853 H   0  0  0  0  0  0
   14.2676   14.5753  104.1657 H   0  0  0  0  0  0
  1  2  1  0  0  0
  1  6  2  0  0  0
  1 22  1  0  0  0
  2  3  2  0  0  0
  2 30  1  0  0  0
  3  4  1  0  0  0
  3  7  1  0  0  0
  4  5  2  0  0  0
  4 21  1  0  0  0
  5  6  1  0  0  0
  5 31  1  0  0  0
  6 32  1  0  0  0
  7  8  1  0  0  0
  7 11  2  0  0  0
  8  9  1  0  0  0
  8 33  1  0  0  0
  8 34  1  0  0  0
  9 10  1  0  0  0
  9 18  1  0  0  0
 10 11  1  0  0  0
 10 12  1  0  0  0
 10 35  1  0  0  0
 11 36  1  0  0  0
 12 13  1  0  0  0
 12 17  2  0  0  0
 13 14  2  0  0  0
 13 37  1  0  0  0
 14 15  1  0  0  0
 14 38  1  0  0  0
 15 16  2  0  0  0
 15 39  1  0  0  0
 16 17  1  0  0  0
 16 40  1  0  0  0
 17 41  1  0  0  0
 18 19  1  0  0  0
 18 23  2  0  0  0
 19 20  1  0  0  0
 19 25  1  0  0  0
 20 24  1  0  0  0
 20 26  1  0  0  0
 20 42  1  0  0  0
 24 27  1  0  0  0
 24 43  1  0  0  0
 24 44  1  0  0  0
 25 45  1  0  0  0
 25 46  1  0  0  0
 25 47  1  0  0  0
 26 28  1  0  0  0
 26 48  1  0  0  0
 26 49  1  0  0  0
 27 29  1  0  0  0
 27 50  1  0  0  0
 27 51  1  0  0  0
 28 29  1  0  0  0
 28 52  1  0  0  0
 28 53  1  0  0  0
 29 54  1  0  0  0
M  END
> <s_m_entry_id>
174

> <s_m_entry_name>
dock_pv.173

> <s_m_Source_Path>
/home/csk/Desktop/cluster/DUD-E-result/kif11

> <s_m_Source_File>
dock_pv.maegz

> <i_m_Source_File_Index>
173

> <chembl_id>
CHEMBL205437

> <chembl_pref_name>
None

> <i_lp_mmshare_version>
53161

> <i_f3d_flags>
0

> <r_lp_tautomer_probability>
1

> <s_lp_Force_Field>
OPLS_2005

> <r_lp_Energy>
67.128424

> <b_lp_Chiralities_Consistent>
1

> <s_lp_Variant>
CHEMBL4581_lig52-1

> <s_i_glide_gridfile>
glide-grid_3cjo

> <i_i_glide_lignum>
79

> <i_i_glide_rotatable_bonds>
5

> <r_i_docking_score>
-8.16777268481221

> <r_i_glide_ligand_efficiency>
-0.281647333959042

> <r_i_glide_ligand_efficiency_sa>
-0.865309842060673

> <r_i_glide_ligand_efficiency_ln>
-1.87021282797724

> <r_i_glide_gscore>
-8.16777268481221

> <r_i_glide_lipo>
-4.48146007359748

> <r_i_glide_hbond>
0

> <r_i_glide_metal>
0

> <r_i_glide_rewards>
-1.87344768887299

> <r_i_glide_evdw>
-41.1027870178223

> <r_i_glide_ecoul>
-2.51523089408875

> <r_i_glide_erotb>
0.61955906266269

> <r_i_glide_esite>
0

> <r_i_glide_emodel>
-63.2518529938671

> <r_i_glide_energy>
-43.618017911911

> <r_i_glide_einternal>
3.55864930152893

> <i_i_glide_confnum>
84

> <i_i_glide_posenum>
66

> <r_i_glide_eff_state_penalty>
0

> <s_user_duplicate_titles>
CHEMBL4581_lig52,343171

> <s_m_subgroup_title>
dock_pv

> <s_m_subgroupid>
dock_pv

> <b_m_subgroup_collapsed>
1

$$$$
CHEMBL4581_lig891
                    3D
 Schrodinger Suite 2021-1.
 53 55  0  0  1  0            999 V2000
   17.6760   14.6327  109.4219 C   0  0  2  0  0  0
   16.9726   16.0062  109.6707 C   0  0  0  0  0  0
   18.0411   14.1313  110.8603 C   0  0  0  0  0  0
   17.7511   17.1370  109.9629 C   0  0  0  0  0  0
   17.1614   18.3532  110.2727 C   0  0  0  0  0  0
   15.7753   18.4804  110.2738 C   0  0  0  0  0  0
   14.9803   17.3759  109.9706 C   0  0  0  0  0  0
   15.5729   16.1514  109.6735 C   0  0  0  0  0  0
   19.1173   14.7064  111.5595 C   0  0  0  0  0  0
   19.3921   14.3624  112.8823 C   0  0  0  0  0  0
   18.5914   13.4303  113.5362 C   0  0  0  0  0  0
   17.5274   12.8385  112.8662 C   0  0  0  0  0  0
   17.2762   13.1603  111.5361 C   0  0  0  0  0  0
   18.9260   14.7521  108.4865 C   0  0  0  0  0  0
   20.0200   13.8832  108.6249 C   0  0  0  0  0  0
   21.1124   13.9575  107.7603 C   0  0  0  0  0  0
   21.1180   14.8966  106.7319 C   0  0  0  0  0  0
   20.0531   15.7797  106.5850 C   0  0  0  0  0  0
   18.9677   15.7051  107.4530 C   0  0  0  0  0  0
   16.7217   13.6016  108.7029 C   0  0  0  0  0  0
   16.2684   13.9070  107.2515 C   0  0  0  0  0  0
   14.8561   13.3477  106.9459 C   0  0  1  0  0  0
   13.7698   14.2845  107.2969 N   0  0  0  0  0  0
   16.7180   11.9613  113.5291 O   0  0  0  0  0  0
   15.1409   19.8125  110.6242 C   0  0  0  0  0  0
   14.6910   12.9029  105.4786 C   0  0  0  0  0  0
   14.9048   11.5621  105.3589 O   0  0  0  0  0  0
   14.4065   13.6738  104.5602 O   0  0  0  0  0  0
   18.8278   17.0817  109.9716 H   0  0  0  0  0  0
   17.7967   19.1854  110.5232 H   0  0  0  0  0  0
   13.9042   17.4649  109.9689 H   0  0  0  0  0  0
   14.9090   15.3296  109.4613 H   0  0  0  0  0  0
   19.7464   15.4423  111.0849 H   0  0  0  0  0  0
   20.2168   14.8252  113.4039 H   0  0  0  0  0  0
   18.7936   13.1632  114.5625 H   0  0  0  0  0  0
   16.4367   12.6689  111.0776 H   0  0  0  0  0  0
   20.0176   13.1206  109.3905 H   0  0  0  0  0  0
   21.9427   13.2739  107.8745 H   0  0  0  0  0  0
   21.9580   14.9465  106.0536 H   0  0  0  0  0  0
   20.0666   16.5173  105.7988 H   0  0  0  0  0  0
   18.1452   16.3899  107.3050 H   0  0  0  0  0  0
   17.2026   12.6194  108.6940 H   0  0  0  0  0  0
   15.8203   13.4458  109.2926 H   0  0  0  0  0  0
   16.2719   14.9802  107.0601 H   0  0  0  0  0  0
   17.0159   13.4878  106.5726 H   0  0  0  0  0  0
   14.7166   12.4444  107.5411 H   0  0  0  0  0  0
   13.9730   15.2105  106.9505 H   0  0  0  0  0  0
   12.8983   14.0059  106.8676 H   0  0  0  0  0  0
   16.0335   11.5563  112.9851 H   0  0  0  0  0  0
   14.0555   19.7542  110.6865 H   0  0  0  0  0  0
   15.5159   20.1627  111.5860 H   0  0  0  0  0  0
   15.4048   20.5642  109.8811 H   0  0  0  0  0  0
   15.1181   11.1601  106.2170 H   0  0  0  0  0  0
  1  2  1  0  0  0
  1  3  1  0  0  0
  1 14  1  0  0  0
  1 20  1  0  0  0
  2  4  2  0  0  0
  2  8  1  0  0  0
  3  9  2  0  0  0
  3 13  1  0  0  0
  4  5  1  0  0  0
  4 29  1  0  0  0
  5  6  2  0  0  0
  5 30  1  0  0  0
  6  7  1  0  0  0
  6 25  1  0  0  0
  7  8  2  0  0  0
  7 31  1  0  0  0
  8 32  1  0  0  0
  9 10  1  0  0  0
  9 33  1  0  0  0
 10 11  2  0  0  0
 10 34  1  0  0  0
 11 12  1  0  0  0
 11 35  1  0  0  0
 12 13  2  0  0  0
 12 24  1  0  0  0
 13 36  1  0  0  0
 14 15  2  0  0  0
 14 19  1  0  0  0
 15 16  1  0  0  0
 15 37  1  0  0  0
 16 17  2  0  0  0
 16 38  1  0  0  0
 17 18  1  0  0  0
 17 39  1  0  0  0
 18 19  2  0  0  0
 18 40  1  0  0  0
 19 41  1  0  0  0
 20 21  1  0  0  0
 20 42  1  0  0  0
 20 43  1  0  0  0
 21 22  1  0  0  0
 21 44  1  0  0  0
 21 45  1  0  0  0
 22 23  1  0  0  0
 22 26  1  0  0  0
 22 46  1  0  0  0
 23 47  1  0  0  0
 23 48  1  0  0  0
 24 49  1  0  0  0
 25 50  1  0  0  0
 25 51  1  0  0  0
 25 52  1  0  0  0
 26 27  1  0  0  0
 26 28  2  0  0  0
 27 53  1  0  0  0
M  END
> <s_m_entry_id>
175

> <s_m_entry_name>
dock_pv.174

> <s_m_Source_Path>
/home/csk/Desktop/cluster/DUD-E-result/kif11

> <s_m_Source_File>
dock_pv.maegz

> <i_m_Source_File_Index>
174

> <chembl_id>
CHEMBL2325424

> <chembl_pref_name>
None

> <i_lp_mmshare_version>
53161

> <i_f3d_flags>
0

> <r_lp_tautomer_probability>
0.999999999997365

> <s_lp_Force_Field>
OPLS_2005

> <r_lp_Energy>
31.505588

> <b_lp_Chiralities_Consistent>
1

> <s_lp_Variant>
CHEMBL4581_lig891-3

> <s_i_glide_gridfile>
glide-grid_3cjo

> <i_i_glide_lignum>
1289

> <i_i_glide_rotatable_bonds>
9

> <r_i_docking_score>
-8.1669226085014

> <r_i_glide_ligand_efficiency>
-0.291675807446479

> <r_i_glide_ligand_efficiency_sa>
-0.885699539271129

> <r_i_glide_ligand_efficiency_ln>
-1.88516552930949

> <r_i_glide_gscore>
-8.1669226085014

> <r_i_glide_lipo>
-4.40257221925687

> <r_i_glide_hbond>
-0.261342730274059

> <r_i_glide_metal>
0

> <r_i_glide_rewards>
-0.9195319870561

> <r_i_glide_evdw>
-40.4809188842773

> <r_i_glide_ecoul>
-10.0810432434082

> <r_i_glide_erotb>
0.960696146124403

> <r_i_glide_esite>
-0.00796938731367647

> <r_i_glide_emodel>
-72.137930060253

> <r_i_glide_energy>
-50.5619621276855

> <r_i_glide_einternal>
5.40697765350342

> <i_i_glide_confnum>
84

> <i_i_glide_posenum>
158

> <r_i_glide_eff_state_penalty>
0

> <s_user_duplicate_titles>
CHEMBL4581_lig891

> <s_m_subgroup_title>
dock_pv

> <s_m_subgroupid>
dock_pv

> <b_m_subgroup_collapsed>
1

$$$$
CHEMBL4581_lig13
                    3D
 Schrodinger Suite 2021-1.
 47 49  0  0  1  0            999 V2000
   16.3180   13.4958  104.3275 N   0  0  0  0  0  0
   16.0112   13.1801  105.7348 C   0  0  1  0  0  0
   16.9128   13.9823  106.6911 C   0  0  0  0  0  0
   14.5076   13.4339  105.9778 C   0  0  0  0  0  0
   13.9359   14.4782  105.6637 O   0  0  0  0  0  0
   13.9183   12.3621  106.5783 O   0  0  0  0  0  0
   16.8645   13.3610  108.4076 S   0  0  0  0  0  0
   17.3811   12.8174  111.3639 C   0  0  0  0  0  0
   17.5177   12.3943  112.6823 C   0  0  0  0  0  0
   18.3791   13.0675  113.5403 C   0  0  0  0  0  0
   19.1182   14.1516  113.0804 C   0  0  0  0  0  0
   18.9957   14.5638  111.7566 C   0  0  0  0  0  0
   18.1089   13.9216  110.8760 C   0  0  0  0  0  0
   17.9389   14.4921  109.4289 C   0  0  0  0  0  0
   19.2814   14.5287  108.6356 C   0  0  0  0  0  0
   20.2836   13.5744  108.8762 C   0  0  0  0  0  0
   21.3993   13.5003  108.0449 C   0  0  0  0  0  0
   21.5178   14.3618  106.9587 C   0  0  0  0  0  0
   20.5833   15.3683  106.7551 C   0  0  0  0  0  0
   19.4829   15.4605  107.5998 C   0  0  0  0  0  0
   17.2602   15.8859  109.6172 C   0  0  0  0  0  0
   18.0385   17.0429  109.8085 C   0  0  0  0  0  0
   17.4440   18.2807  110.0329 C   0  0  0  0  0  0
   16.0579   18.3813  110.0622 C   0  0  0  0  0  0
   15.2639   17.2546  109.8715 C   0  0  0  0  0  0
   15.8619   16.0163  109.6550 C   0  0  0  0  0  0
   17.3051   13.2687  104.1589 H   0  0  0  0  0  0
   15.7840   12.9090  103.7048 H   0  0  0  0  0  0
   16.2163   12.1202  105.8907 H   0  0  0  0  0  0
   16.6717   15.0460  106.6727 H   0  0  0  0  0  0
   17.9337   13.8731  106.3303 H   0  0  0  0  0  0
   14.5466   11.6749  106.8379 H   0  0  0  0  0  0
   16.6790   12.2710  110.7539 H   0  0  0  0  0  0
   16.9331   11.5623  113.0442 H   0  0  0  0  0  0
   18.4772   12.7439  114.5670 H   0  0  0  0  0  0
   19.7942   14.6676  113.7464 H   0  0  0  0  0  0
   19.5840   15.4064  111.4242 H   0  0  0  0  0  0
   20.1726   12.8442  109.6637 H   0  0  0  0  0  0
   22.1567   12.7524  108.2116 H   0  0  0  0  0  0
   22.3673   14.2754  106.2972 H   0  0  0  0  0  0
   20.6958   16.0601  105.9327 H   0  0  0  0  0  0
   18.7409   16.2137  107.3801 H   0  0  0  0  0  0
   19.1176   16.9912  109.8078 H   0  0  0  0  0  0
   18.0536   19.1595  110.1907 H   0  0  0  0  0  0
   15.5947   19.3412  110.2387 H   0  0  0  0  0  0
   14.1881   17.3402  109.8996 H   0  0  0  0  0  0
   15.2176   15.1590  109.5348 H   0  0  0  0  0  0
  1  2  1  0  0  0
  1 27  1  0  0  0
  1 28  1  0  0  0
  2  3  1  0  0  0
  2  4  1  0  0  0
  2 29  1  0  0  0
  3  7  1  0  0  0
  3 30  1  0  0  0
  3 31  1  0  0  0
  4  5  2  0  0  0
  4  6  1  0  0  0
  6 32  1  0  0  0
  7 14  1  0  0  0
  8  9  1  0  0  0
  8 13  2  0  0  0
  8 33  1  0  0  0
  9 10  2  0  0  0
  9 34  1  0  0  0
 10 11  1  0  0  0
 10 35  1  0  0  0
 11 12  2  0  0  0
 11 36  1  0  0  0
 12 13  1  0  0  0
 12 37  1  0  0  0
 13 14  1  0  0  0
 14 15  1  0  0  0
 14 21  1  0  0  0
 15 16  1  0  0  0
 15 20  2  0  0  0
 16 17  2  0  0  0
 16 38  1  0  0  0
 17 18  1  0  0  0
 17 39  1  0  0  0
 18 19  2  0  0  0
 18 40  1  0  0  0
 19 20  1  0  0  0
 19 41  1  0  0  0
 20 42  1  0  0  0
 21 22  1  0  0  0
 21 26  2  0  0  0
 22 23  2  0  0  0
 22 43  1  0  0  0
 23 24  1  0  0  0
 23 44  1  0  0  0
 24 25  2  0  0  0
 24 45  1  0  0  0
 25 26  1  0  0  0
 25 46  1  0  0  0
 26 47  1  0  0  0
M  END
> <s_m_entry_id>
176

> <s_m_entry_name>
dock_pv.175

> <s_m_Source_Path>
/home/csk/Desktop/cluster/DUD-E-result/kif11

> <s_m_Source_File>
dock_pv.maegz

> <i_m_Source_File_Index>
175

> <chembl_id>
CHEMBL392695

> <chembl_pref_name>
S-TRITYL-L-CYSTEINE

> <i_lp_mmshare_version>
53161

> <i_f3d_flags>
0

> <r_lp_tautomer_probability>
1

> <s_lp_Force_Field>
OPLS_2005

> <r_lp_Energy>
25.950964

> <b_lp_Chiralities_Consistent>
1

> <s_lp_Variant>
CHEMBL4581_lig13-1

> <s_i_glide_gridfile>
glide-grid_3cjo

> <i_i_glide_lignum>
15

> <i_i_glide_rotatable_bonds>
8

> <r_i_docking_score>
-8.16085818490588

> <r_i_glide_ligand_efficiency>
-0.313879160957918

> <r_i_glide_ligand_efficiency_sa>
-0.929865779282973

> <r_i_glide_ligand_efficiency_ln>
-1.91655076676533

> <r_i_glide_gscore>
-8.16085818490588

> <r_i_glide_lipo>
-4.59199446098531

> <r_i_glide_hbond>
-0.152

> <r_i_glide_metal>
0

> <r_i_glide_rewards>
-1.04752821212121

> <r_i_glide_evdw>
-40.5736389160156

> <r_i_glide_ecoul>
-9.00269889831543

> <r_i_glide_erotb>
1.01804310155625

> <r_i_glide_esite>
-0.00829183280750575

> <r_i_glide_emodel>
-70.1091117006472

> <r_i_glide_energy>
-49.5763378143311

> <r_i_glide_einternal>
7.30327939987183

> <i_i_glide_confnum>
57

> <i_i_glide_posenum>
64

> <r_i_glide_eff_state_penalty>
0

> <s_user_duplicate_titles>
CHEMBL4581_lig13,397744

> <s_m_subgroup_title>
dock_pv

> <s_m_subgroupid>
dock_pv

> <b_m_subgroup_collapsed>
1

$$$$
CHEMBL4581_lig317
                    3D
 Schrodinger Suite 2021-1.
 45 48  0  0  1  0            999 V2000
   21.5968   15.2528  106.0340 C   0  0  0  0  0  0
   22.0851   14.0545  106.5590 C   0  0  0  0  0  0
   21.5178   13.5164  107.7096 C   0  0  0  0  0  0
   20.4805   15.8536  106.6241 C   0  0  0  0  0  0
   19.8913   15.3265  107.7709 C   0  0  0  0  0  0
   20.4365   14.1533  108.3245 C   0  0  0  0  0  0
   19.8819   13.5621  109.4736 N   0  0  0  0  0  0
   18.5836   14.0148  109.9783 C   0  0  2  0  0  0
   18.6660   15.9989  108.3766 C   0  0  2  0  0  0
   18.4610   15.5629  109.8473 C   0  0  1  0  0  0
   17.1204   16.1507  110.3599 C   0  0  0  0  0  0
   15.9585   15.8279  109.4050 C   0  0  0  0  0  0
   16.3167   16.2272  107.9619 C   0  0  0  0  0  0
   17.5457   15.6158  107.5767 O   0  0  0  0  0  0
   18.3375   13.5232  111.4001 C   0  0  0  0  0  0
   19.1180   14.0120  112.4543 C   0  0  0  0  0  0
   18.9015   13.5621  113.7504 C   0  0  0  0  0  0
   17.8875   12.6468  113.9987 C   0  0  0  0  0  0
   17.1180   12.1426  112.9551 C   0  0  0  0  0  0
   17.3391   12.5794  111.6531 C   0  0  0  0  0  0
   22.3183   15.8888  104.8550 C   0  0  0  0  0  0
   21.7536   17.2398  104.3783 C   0  0  0  0  0  0
   18.7945   17.0830  108.3379 H   0  0  0  0  0  0
   19.2624   16.0271  110.4232 H   0  0  0  0  0  0
   22.9310   13.5618  106.1009 H   0  0  0  0  0  0
   21.9191   12.6004  108.1176 H   0  0  0  0  0  0
   20.0631   16.7646  106.2241 H   0  0  0  0  0  0
   20.0949   12.6000  109.6982 H   0  0  0  0  0  0
   17.8249   13.5493  109.3459 H   0  0  0  0  0  0
   17.2152   17.2344  110.4527 H   0  0  0  0  0  0
   16.8870   15.7912  111.3622 H   0  0  0  0  0  0
   15.0537   16.3462  109.7247 H   0  0  0  0  0  0
   15.7321   14.7610  109.4423 H   0  0  0  0  0  0
   16.3873   17.3126  107.8639 H   0  0  0  0  0  0
   15.5332   15.9034  107.2764 H   0  0  0  0  0  0
   19.9060   14.7269  112.2632 H   0  0  0  0  0  0
   19.5183   13.9226  114.5588 H   0  0  0  0  0  0
   17.7098   12.3051  115.0069 H   0  0  0  0  0  0
   16.3338   11.4246  113.1545 H   0  0  0  0  0  0
   16.7338   12.1867  110.8484 H   0  0  0  0  0  0
   22.3191   15.1714  104.0387 H   0  0  0  0  0  0
   23.3588   16.0195  105.1499 H   0  0  0  0  0  0
   22.3164   17.6537  103.5457 H   0  0  0  0  0  0
   20.7178   17.1612  104.0479 H   0  0  0  0  0  0
   21.7871   17.9620  105.1918 H   0  0  0  0  0  0
  1  2  2  0  0  0
  1 21  1  0  0  0
  1  4  1  0  0  0
  2  3  1  0  0  0
  2 25  1  0  0  0
  3  6  2  0  0  0
  3 26  1  0  0  0
  4  5  2  0  0  0
  4 27  1  0  0  0
  5  9  1  0  0  0
  5  6  1  0  0  0
  6  7  1  0  0  0
  7  8  1  0  0  0
  7 28  1  0  0  0
  8 10  1  0  0  0
  8 15  1  0  0  0
  8 29  1  0  0  0
  9 14  1  0  0  0
  9 10  1  0  0  0
  9 23  1  0  0  0
 10 11  1  0  0  0
 10 24  1  0  0  0
 11 12  1  0  0  0
 11 30  1  0  0  0
 11 31  1  0  0  0
 12 13  1  0  0  0
 12 32  1  0  0  0
 12 33  1  0  0  0
 13 14  1  0  0  0
 13 34  1  0  0  0
 13 35  1  0  0  0
 15 16  2  0  0  0
 15 20  1  0  0  0
 16 17  1  0  0  0
 16 36  1  0  0  0
 17 18  2  0  0  0
 17 37  1  0  0  0
 18 19  1  0  0  0
 18 38  1  0  0  0
 19 20  2  0  0  0
 19 39  1  0  0  0
 20 40  1  0  0  0
 21 22  1  0  0  0
 21 41  1  0  0  0
 21 42  1  0  0  0
 22 43  1  0  0  0
 22 44  1  0  0  0
 22 45  1  0  0  0
M  END
> <s_m_entry_id>
177

> <s_m_entry_name>
dock_pv.176

> <s_m_Source_Path>
/home/csk/Desktop/cluster/DUD-E-result/kif11

> <s_m_Source_File>
dock_pv.maegz

> <i_m_Source_File_Index>
176

> <chembl_id>
CHEMBL1089050

> <chembl_pref_name>
None

> <i_lp_mmshare_version>
53161

> <i_f3d_flags>
0

> <r_lp_tautomer_probability>
1

> <s_lp_Force_Field>
OPLS_2005

> <r_lp_Energy>
25.068291

> <b_lp_Chiralities_Consistent>
1

> <s_lp_Variant>
CHEMBL4581_lig317-1

> <s_i_glide_gridfile>
glide-grid_3cjo

> <i_i_glide_lignum>
470

> <i_i_glide_rotatable_bonds>
2

> <r_i_docking_score>
-8.16043558774296

> <r_i_glide_ligand_efficiency>
-0.370928890351953

> <r_i_glide_ligand_efficiency_sa>
-1.03935733857163

> <r_i_glide_ligand_efficiency_ln>
-1.99470811676474

> <r_i_glide_gscore>
-8.16043558774296

> <r_i_glide_lipo>
-5.01738204031079

> <r_i_glide_hbond>
0

> <r_i_glide_metal>
0

> <r_i_glide_rewards>
-1.50028448484848

> <r_i_glide_evdw>
-34.6025428771973

> <r_i_glide_ecoul>
-0.832667827606201

> <r_i_glide_erotb>
0.212258255417106

> <r_i_glide_esite>
0

> <r_i_glide_emodel>
-50.1818513249109

> <r_i_glide_energy>
-35.4352107048035

> <r_i_glide_einternal>
1.8984922170639

> <i_i_glide_confnum>
1

> <i_i_glide_posenum>
69

> <r_i_glide_eff_state_penalty>
0

> <s_user_duplicate_titles>
CHEMBL4581_lig317,616148

> <s_m_subgroup_title>
dock_pv

> <s_m_subgroupid>
dock_pv

> <b_m_subgroup_collapsed>
1

$$$$
CHEMBL4581_lig806
                    3D
 Schrodinger Suite 2021-1.
 50 52  0  0  1  0            999 V2000
   17.6794   14.7033  109.4748 C   0  0  0  0  0  0
   16.5546   13.5307  108.5726 S   0  0  0  0  0  0
   16.9178   16.0371  109.7671 C   0  0  0  0  0  0
   18.9160   14.8135  108.5271 C   0  0  0  0  0  0
   18.0591   14.1290  110.8796 C   0  0  0  0  0  0
   20.0019   13.9346  108.6578 C   0  0  0  0  0  0
   21.0665   13.9620  107.7578 C   0  0  0  0  0  0
   21.0924   14.9006  106.7157 C   0  0  0  0  0  0
   20.0170   15.7874  106.5828 C   0  0  0  0  0  0
   18.9511   15.7376  107.4725 C   0  0  0  0  0  0
   15.5744   15.9795  110.1622 C   0  0  0  0  0  0
   14.8318   17.1328  110.3959 C   0  0  0  0  0  0
   15.4366   18.3739  110.2542 C   0  0  0  0  0  0
   16.7743   18.4628  109.8937 C   0  0  0  0  0  0
   17.5175   17.3050  109.6649 C   0  0  0  0  0  0
   17.4947   12.9520  111.4121 C   0  0  0  0  0  0
   17.8174   12.5154  112.6930 C   0  0  0  0  0  0
   18.7174   13.2416  113.4624 C   0  0  0  0  0  0
   19.3060   14.3947  112.9539 C   0  0  0  0  0  0
   18.9797   14.8334  111.6725 C   0  0  0  0  0  0
   15.8898   14.4294  107.1346 C   0  0  0  0  0  0
   16.3989   13.7794  105.8220 C   0  0  1  0  0  0
   15.2410   13.1095  105.0316 C   0  0  0  0  0  0
   14.7401   12.0080  105.6719 O   0  0  0  0  0  0
   14.8210   13.5437  103.9565 O   0  0  0  0  0  0
   17.0779   14.7618  104.9492 N   0  0  0  0  0  0
   22.2619   14.9341  105.7601 C   0  0  0  0  0  0
   23.1178   14.0550  105.7495 O   0  0  0  0  0  0
   22.3184   16.0360  104.9619 O   0  0  0  0  0  0
   20.0097   13.1855  109.4360 H   0  0  0  0  0  0
   21.8731   13.2522  107.8834 H   0  0  0  0  0  0
   19.9599   16.5129  105.7855 H   0  0  0  0  0  0
   18.1311   16.4160  107.3007 H   0  0  0  0  0  0
   15.1148   15.0154  110.2945 H   0  0  0  0  0  0
   13.7938   17.0673  110.6877 H   0  0  0  0  0  0
   14.8682   19.2748  110.4336 H   0  0  0  0  0  0
   17.2153   19.4404  109.7961 H   0  0  0  0  0  0
   18.5609   17.4118  109.4128 H   0  0  0  0  0  0
   16.7818   12.3536  110.8665 H   0  0  0  0  0  0
   17.3639   11.6178  113.0882 H   0  0  0  0  0  0
   18.9669   12.9025  114.4579 H   0  0  0  0  0  0
   20.0153   14.9460  113.5525 H   0  0  0  0  0  0
   19.4376   15.7375  111.2963 H   0  0  0  0  0  0
   14.8016   14.4179  107.2179 H   0  0  0  0  0  0
   16.1557   15.4830  107.1935 H   0  0  0  0  0  0
   17.1184   12.9937  106.0621 H   0  0  0  0  0  0
   15.2053   11.7266  106.4717 H   0  0  0  0  0  0
   17.8124   14.2319  104.4776 H   0  0  0  0  0  0
   16.4299   15.0367  104.2227 H   0  0  0  0  0  0
   21.6060   16.6402  105.1644 H   0  0  0  0  0  0
  1  4  1  0  0  0
  1  5  1  0  0  0
  1  3  1  0  0  0
  1  2  1  0  0  0
  2 21  1  0  0  0
  3 15  1  0  0  0
  3 11  2  0  0  0
  4 10  1  0  0  0
  4  6  2  0  0  0
  5 16  2  0  0  0
  5 20  1  0  0  0
  6  7  1  0  0  0
  6 30  1  0  0  0
  7  8  2  0  0  0
  7 31  1  0  0  0
  8  9  1  0  0  0
  8 27  1  0  0  0
  9 10  2  0  0  0
  9 32  1  0  0  0
 10 33  1  0  0  0
 11 12  1  0  0  0
 11 34  1  0  0  0
 12 13  2  0  0  0
 12 35  1  0  0  0
 13 14  1  0  0  0
 13 36  1  0  0  0
 14 15  2  0  0  0
 14 37  1  0  0  0
 15 38  1  0  0  0
 16 17  1  0  0  0
 16 39  1  0  0  0
 17 18  2  0  0  0
 17 40  1  0  0  0
 18 19  1  0  0  0
 18 41  1  0  0  0
 19 20  2  0  0  0
 19 42  1  0  0  0
 20 43  1  0  0  0
 21 22  1  0  0  0
 21 44  1  0  0  0
 21 45  1  0  0  0
 22 23  1  0  0  0
 22 26  1  0  0  0
 22 46  1  0  0  0
 23 24  1  0  0  0
 23 25  2  0  0  0
 24 47  1  0  0  0
 26 48  1  0  0  0
 26 49  1  0  0  0
 27 28  2  0  0  0
 27 29  1  0  0  0
 29 50  1  0  0  0
M  END
> <s_m_entry_id>
178

> <s_m_entry_name>
dock_pv.177

> <s_m_Source_Path>
/home/csk/Desktop/cluster/DUD-E-result/kif11

> <s_m_Source_File>
dock_pv.maegz

> <i_m_Source_File_Index>
177

> <chembl_id>
CHEMBL1688929

> <chembl_pref_name>
None

> <i_lp_mmshare_version>
53161

> <i_f3d_flags>
0

> <r_lp_tautomer_probability>
1

> <s_lp_Force_Field>
OPLS_2005

> <r_lp_Energy>
24.587302

> <b_lp_Chiralities_Consistent>
1

> <s_lp_Variant>
CHEMBL4581_lig806-2

> <s_i_glide_gridfile>
glide-grid_3cjo

> <i_i_glide_lignum>
1192

> <i_i_glide_rotatable_bonds>
10

> <r_i_docking_score>
-8.15965955950348

> <r_i_glide_ligand_efficiency>
-0.281367571017361

> <r_i_glide_ligand_efficiency_sa>
-0.86445032166871

> <r_i_glide_ligand_efficiency_ln>
-1.86835512801265

> <r_i_glide_gscore>
-8.15965955950348

> <r_i_glide_lipo>
-4.33154963492878

> <r_i_glide_hbond>
-0.152382256155261

> <r_i_glide_metal>
0

> <r_i_glide_rewards>
-1.17156359676931

> <r_i_glide_evdw>
-47.0341987609863

> <r_i_glide_ecoul>
-7.33514547348022

> <r_i_glide_erotb>
0.947817687421225

> <r_i_glide_esite>
0

> <r_i_glide_emodel>
-74.0803285960436

> <r_i_glide_energy>
-54.3693442344666

> <r_i_glide_einternal>
9.8134651184082

> <i_i_glide_confnum>
222

> <i_i_glide_posenum>
370

> <r_i_glide_eff_state_penalty>
0

> <s_user_duplicate_titles>
CHEMBL4581_lig806

> <s_m_subgroup_title>
dock_pv

> <s_m_subgroupid>
dock_pv

> <b_m_subgroup_collapsed>
1

$$$$
CHEMBL4581_lig47
                    3D
 Schrodinger Suite 2021-1.
 37 39  0  0  1  0            999 V2000
   22.4466   15.0758  105.3593 C   0  0  0  0  0  0
   21.5996   16.1818  105.3649 C   0  0  0  0  0  0
   20.5386   16.2441  106.2670 C   0  0  0  0  0  0
   20.3319   15.2184  107.1982 C   0  0  0  0  0  0
   21.2038   14.1162  107.1992 C   0  0  0  0  0  0
   22.2411   14.0375  106.2666 C   0  0  0  0  0  0
   19.2477   15.3460  108.1872 C   0  0  0  0  0  0
   17.8072   15.6764  107.8773 C   0  0  0  0  0  0
   17.1682   15.7421  109.1904 N   0  0  0  0  0  0
   18.1321   15.4168  110.2474 C   0  0  2  0  0  0
   19.4125   15.1620  109.5031 C   0  0  0  0  0  0
   17.8051   14.2182  111.1307 C   0  0  0  0  0  0
   18.1186   14.2636  112.4938 C   0  0  0  0  0  0
   17.8638   13.1598  113.3035 C   0  0  0  0  0  0
   17.2961   12.0195  112.7420 C   0  0  0  0  0  0
   17.0045   11.9622  111.3830 C   0  0  0  0  0  0
   17.2425   13.0653  110.5774 C   0  0  0  0  0  0
   15.9170   16.2013  109.4241 C   0  0  0  0  0  0
   15.0151   16.5207  108.2313 C   0  0  0  0  0  0
   15.4698   16.3613  110.5593 O   0  0  0  0  0  0
   21.1173   13.1617  108.1579 F   0  0  0  0  0  0
   21.8027   17.1904  104.4899 F   0  0  0  0  0  0
   23.2571   15.0231  104.6485 H   0  0  0  0  0  0
   19.9009   17.1164  106.2624 H   0  0  0  0  0  0
   22.9019   13.1841  106.2691 H   0  0  0  0  0  0
   17.7007   16.6227  107.3450 H   0  0  0  0  0  0
   17.3438   14.9091  107.2556 H   0  0  0  0  0  0
   18.2438   16.2917  110.8910 H   0  0  0  0  0  0
   20.3179   14.9027  110.0140 H   0  0  0  0  0  0
   18.5657   15.1482  112.9241 H   0  0  0  0  0  0
   18.0958   13.1855  114.3586 H   0  0  0  0  0  0
   17.0674   11.1651  113.3591 H   0  0  0  0  0  0
   16.5714   11.0691  110.9590 H   0  0  0  0  0  0
   17.0133   13.0131  109.5226 H   0  0  0  0  0  0
   15.0195   15.7055  107.5080 H   0  0  0  0  0  0
   13.9865   16.6699  108.5610 H   0  0  0  0  0  0
   15.3493   17.4335  107.7376 H   0  0  0  0  0  0
  1  2  2  0  0  0
  1  6  1  0  0  0
  1 23  1  0  0  0
  2  3  1  0  0  0
  2 22  1  0  0  0
  3  4  2  0  0  0
  3 24  1  0  0  0
  4  5  1  0  0  0
  4  7  1  0  0  0
  5  6  2  0  0  0
  5 21  1  0  0  0
  6 25  1  0  0  0
  7  8  1  0  0  0
  7 11  2  0  0  0
  8  9  1  0  0  0
  8 26  1  0  0  0
  8 27  1  0  0  0
  9 10  1  0  0  0
  9 18  1  0  0  0
 10 11  1  0  0  0
 10 12  1  0  0  0
 10 28  1  0  0  0
 11 29  1  0  0  0
 12 13  2  0  0  0
 12 17  1  0  0  0
 13 14  1  0  0  0
 13 30  1  0  0  0
 14 15  2  0  0  0
 14 31  1  0  0  0
 15 16  1  0  0  0
 15 32  1  0  0  0
 16 17  2  0  0  0
 16 33  1  0  0  0
 17 34  1  0  0  0
 18 19  1  0  0  0
 18 20  2  0  0  0
 19 35  1  0  0  0
 19 36  1  0  0  0
 19 37  1  0  0  0
M  END
> <s_m_entry_id>
179

> <s_m_entry_name>
dock_pv.178

> <s_m_Source_Path>
/home/csk/Desktop/cluster/DUD-E-result/kif11

> <s_m_Source_File>
dock_pv.maegz

> <i_m_Source_File_Index>
178

> <chembl_id>
CHEMBL203181

> <chembl_pref_name>
None

> <i_lp_mmshare_version>
53161

> <i_f3d_flags>
0

> <r_lp_tautomer_probability>
1

> <s_lp_Force_Field>
OPLS_2005

> <r_lp_Energy>
27.460076

> <b_lp_Chiralities_Consistent>
1

> <s_lp_Variant>
CHEMBL4581_lig47-1

> <s_i_glide_gridfile>
glide-grid_3cjo

> <i_i_glide_lignum>
73

> <i_i_glide_rotatable_bonds>
3

> <r_i_docking_score>
-8.15699429278554

> <r_i_glide_ligand_efficiency>
-0.370772467853888

> <r_i_glide_ligand_efficiency_sa>
-1.03891903658031

> <r_i_glide_ligand_efficiency_ln>
-1.99386693875286

> <r_i_glide_gscore>
-8.15699429278554

> <r_i_glide_lipo>
-4.28447227003879

> <r_i_glide_hbond>
0

> <r_i_glide_metal>
0

> <r_i_glide_rewards>
-2.48720688669164

> <r_i_glide_evdw>
-33.3737182617188

> <r_i_glide_ecoul>
-0.844000458717346

> <r_i_glide_erotb>
0.409970845838424

> <r_i_glide_esite>
0

> <r_i_glide_emodel>
-52.4343621690232

> <r_i_glide_energy>
-34.2177187204361

> <r_i_glide_einternal>
0.212653741240501

> <i_i_glide_confnum>
2

> <i_i_glide_posenum>
2

> <r_i_glide_eff_state_penalty>
0

> <s_user_duplicate_titles>
CHEMBL4581_lig47

> <s_m_subgroup_title>
dock_pv

> <s_m_subgroupid>
dock_pv

> <b_m_subgroup_collapsed>
1

$$$$
CHEMBL4581_lig91
                    3D
 Schrodinger Suite 2021-1.
 64 67  0  0  1  0            999 V2000
   22.6954   14.2220  106.0866 C   0  0  0  0  0  0
   22.7063   15.3683  105.2992 C   0  0  0  0  0  0
   21.6464   16.2669  105.3679 C   0  0  0  0  0  0
   20.5779   16.0162  106.2246 C   0  0  0  0  0  0
   20.5648   14.8737  107.0423 C   0  0  0  0  0  0
   21.6394   13.9648  106.9585 C   0  0  0  0  0  0
   21.7089   12.8576  107.7415 F   0  0  0  0  0  0
   21.6462   17.3711  104.5915 F   0  0  0  0  0  0
   19.4418   14.6601  107.9698 C   0  0  0  0  0  0
   19.4962   14.0344  109.0692 N   0  0  0  0  0  0
   18.3076   14.0821  109.7305 N   0  0  0  0  0  0
   17.2766   14.8426  108.9707 C   0  0  2  0  0  0
   18.0576   15.1569  107.6776 C   0  0  0  0  0  0
   16.8752   16.1492  109.7203 C   0  0  0  0  0  0
   15.5843   16.3585  110.2242 C   0  0  0  0  0  0
   15.2422   17.5621  110.8296 C   0  0  0  0  0  0
   16.1968   18.5661  110.9580 C   0  0  0  0  0  0
   17.4990   18.3616  110.5187 C   0  0  0  0  0  0
   17.8329   17.1627  109.9017 C   0  0  0  0  0  0
   18.3195   13.8653  111.0730 C   0  0  0  0  0  0
   17.4241   12.9448  111.4734 N   0  0  0  0  0  0
   19.1431   14.3799  111.8336 O   0  0  0  0  0  0
   17.4570   12.2069  112.7426 C   0  0  0  0  0  0
   16.0677   13.9060  108.5937 C   0  0  0  0  0  0
   17.5070   13.0481  114.0349 C   0  0  0  0  0  0
   15.0264   14.5095  107.6006 C   0  0  0  0  0  0
   14.1824   13.4855  106.8122 C   0  0  0  0  0  0
   14.9624   12.7361  105.7192 C   0  0  0  0  0  0
   14.1339   11.8006  104.9597 N   0  0  0  0  0  0
   13.5324   12.0830  103.7906 C   0  0  0  0  0  0
   12.9043   10.9629  103.1501 C   0  0  0  0  0  0
   13.5625   13.1885  103.2514 O   0  0  0  0  0  0
   12.0397    9.5923  101.5644 N   0  0  0  0  0  0
   11.8266    9.0917  102.7540 C   0  0  0  0  0  0
   12.3180    9.8827  103.7584 N   0  0  0  0  0  0
   12.6659   10.7354  101.7961 C   0  0  0  0  0  0
   23.5180   13.5359  106.0246 H   0  0  0  0  0  0
   23.5172   15.5587  104.6219 H   0  0  0  0  0  0
   19.7857   16.7482  106.2582 H   0  0  0  0  0  0
   17.6853   14.6237  106.8030 H   0  0  0  0  0  0
   18.0378   16.2197  107.4399 H   0  0  0  0  0  0
   14.8246   15.5973  110.1585 H   0  0  0  0  0  0
   14.2407   17.7210  111.2007 H   0  0  0  0  0  0
   15.9261   19.4988  111.4316 H   0  0  0  0  0  0
   18.2449   19.1343  110.6474 H   0  0  0  0  0  0
   18.8485   17.0277  109.5607 H   0  0  0  0  0  0
   16.8038   12.5696  110.7727 H   0  0  0  0  0  0
   16.5771   11.5619  112.7737 H   0  0  0  0  0  0
   18.3176   11.5397  112.7161 H   0  0  0  0  0  0
   15.5467   13.5649  109.4879 H   0  0  0  0  0  0
   16.4773   12.9926  108.1579 H   0  0  0  0  0  0
   17.3903   12.4060  114.9123 H   0  0  0  0  0  0
   18.4637   13.5574  114.1509 H   0  0  0  0  0  0
   16.7181   13.7983  114.0701 H   0  0  0  0  0  0
   15.5057   15.1760  106.8858 H   0  0  0  0  0  0
   14.3290   15.1513  108.1358 H   0  0  0  0  0  0
   13.3508   14.0124  106.3408 H   0  0  0  0  0  0
   13.7282   12.7685  107.4947 H   0  0  0  0  0  0
   15.7956   12.1908  106.1582 H   0  0  0  0  0  0
   15.4524   13.4540  105.0580 H   0  0  0  0  0  0
   14.0720   10.8647  105.3284 H   0  0  0  0  0  0
   12.2159    9.7043  104.7515 H   0  0  0  0  0  0
   11.2985    8.1814  103.0033 H   0  0  0  0  0  0
   12.9509   11.3948  100.9870 H   0  0  0  0  0  0
  1  6  1  0  0  0
  1  2  2  0  0  0
  1 37  1  0  0  0
  2  3  1  0  0  0
  2 38  1  0  0  0
  3  4  2  0  0  0
  3  8  1  0  0  0
  4  5  1  0  0  0
  4 39  1  0  0  0
  5  9  1  0  0  0
  5  6  2  0  0  0
  6  7  1  0  0  0
  9 10  2  0  0  0
  9 13  1  0  0  0
 10 11  1  0  0  0
 11 20  1  0  0  0
 11 12  1  0  0  0
 12 24  1  0  0  0
 12 13  1  0  0  0
 12 14  1  0  0  0
 13 40  1  0  0  0
 13 41  1  0  0  0
 14 19  1  0  0  0
 14 15  2  0  0  0
 15 16  1  0  0  0
 15 42  1  0  0  0
 16 17  2  0  0  0
 16 43  1  0  0  0
 17 18  1  0  0  0
 17 44  1  0  0  0
 18 19  2  0  0  0
 18 45  1  0  0  0
 19 46  1  0  0  0
 20 21  1  0  0  0
 20 22  2  0  0  0
 21 23  1  0  0  0
 21 47  1  0  0  0
 23 25  1  0  0  0
 23 48  1  0  0  0
 23 49  1  0  0  0
 24 26  1  0  0  0
 24 50  1  0  0  0
 24 51  1  0  0  0
 25 52  1  0  0  0
 25 53  1  0  0  0
 25 54  1  0  0  0
 26 27  1  0  0  0
 26 55  1  0  0  0
 26 56  1  0  0  0
 27 28  1  0  0  0
 27 57  1  0  0  0
 27 58  1  0  0  0
 28 29  1  0  0  0
 28 59  1  0  0  0
 28 60  1  0  0  0
 29 30  1  0  0  0
 29 61  1  0  0  0
 30 32  2  0  0  0
 30 31  1  0  0  0
 31 36  2  0  0  0
 31 35  1  0  0  0
 33 34  2  0  0  0
 33 36  1  0  0  0
 34 35  1  0  0  0
 34 63  1  0  0  0
 35 62  1  0  0  0
 36 64  1  0  0  0
M  END
> <s_m_entry_id>
180

> <s_m_entry_name>
dock_pv.179

> <s_m_Source_Path>
/home/csk/Desktop/cluster/DUD-E-result/kif11

> <s_m_Source_File>
dock_pv.maegz

> <i_m_Source_File_Index>
179

> <chembl_id>
CHEMBL208864

> <chembl_pref_name>
None

> <i_lp_mmshare_version>
53161

> <i_f3d_flags>
0

> <r_lp_tautomer_probability>
0.499999999999999

> <s_lp_Force_Field>
OPLS_2005

> <r_lp_Energy>
35.428775

> <b_lp_Chiralities_Consistent>
1

> <s_lp_Variant>
CHEMBL4581_lig91-3

> <s_i_glide_gridfile>
glide-grid_3cjo

> <i_i_glide_lignum>
148

> <i_i_glide_rotatable_bonds>
12

> <r_i_docking_score>
-8.14032122158167

> <r_i_glide_ligand_efficiency>
-0.226120033932824

> <r_i_glide_ligand_efficiency_sa>
-0.746631900671913

> <r_i_glide_ligand_efficiency_ln>
-1.7759981644853

> <r_i_glide_gscore>
-8.14032122158167

> <r_i_glide_lipo>
-3.5757179913121

> <r_i_glide_hbond>
-0.124416025296972

> <r_i_glide_metal>
0

> <r_i_glide_rewards>
-1.66201803517663

> <r_i_glide_evdw>
-51.3590850830078

> <r_i_glide_ecoul>
-6.0601224899292

> <r_i_glide_erotb>
0.833277185377532

> <r_i_glide_esite>
-0.134473727533721

> <r_i_glide_emodel>
-81.746654562885

> <r_i_glide_energy>
-57.419207572937

> <r_i_glide_einternal>
9.43894577026367

> <i_i_glide_confnum>
70

> <i_i_glide_posenum>
107

> <r_i_glide_eff_state_penalty>
0

> <s_user_duplicate_titles>
CHEMBL4581_lig91,CHEMBL4581_lig91,347906

> <s_m_subgroup_title>
dock_pv

> <s_m_subgroupid>
dock_pv

> <b_m_subgroup_collapsed>
1

$$$$
CHEMBL4581_lig218
                    3D
 Schrodinger Suite 2021-1.
 59 63  0  0  1  0            999 V2000
   15.2676   14.3607  105.9909 N   0  0  1  0  0  0
   15.9330   13.1328  105.5308 C   0  0  0  0  0  0
   15.9342   13.3249  104.0043 C   0  0  2  0  0  0
   14.7872   14.9924  104.7523 C   0  0  1  0  0  0
   15.9834   14.8327  103.8440 C   0  0  0  0  0  0
   14.6132   13.0682  103.5064 O   0  0  0  0  0  0
   13.7593   14.1144  103.9968 C   0  0  0  0  0  0
   22.2560   15.3587  105.3621 C   0  0  0  0  0  0
   21.3594   16.4246  105.3591 C   0  0  0  0  0  0
   20.2901   16.4419  106.2523 C   0  0  0  0  0  0
   20.1189   15.4165  107.1926 C   0  0  0  0  0  0
   21.0486   14.3620  107.2076 C   0  0  0  0  0  0
   22.0876   14.3193  106.2739 C   0  0  0  0  0  0
   21.5177   17.4349  104.4757 F   0  0  0  0  0  0
   20.9878   13.3983  108.1590 F   0  0  0  0  0  0
   19.0832   15.4651  108.1388 N   0  0  0  0  0  0
   18.7179   16.6829  108.7397 N   0  0  0  0  0  0
   17.6803   16.5040  109.4495 C   0  0  0  0  0  0
   17.1240   15.0628  109.4195 C   0  0  1  0  0  0
   17.9462   14.5764  108.2237 C   0  0  0  0  0  0
   17.1648   17.5539  110.3292 C   0  0  0  0  0  0
   15.9866   17.6325  110.6712 O   0  0  0  0  0  0
   18.1759   18.5296  110.9308 C   0  0  0  0  0  0
   17.4672   14.2431  110.7085 C   0  0  0  0  0  0
   15.5843   15.0932  109.0904 C   0  0  0  0  0  0
   14.9150   13.8707  108.4082 C   0  0  0  0  0  0
   14.2647   14.1462  107.0342 C   0  0  0  0  0  0
   16.8390   13.0145  110.9591 C   0  0  0  0  0  0
   17.1182   12.2885  112.1129 C   0  0  0  0  0  0
   18.0461   12.7633  113.0315 C   0  0  0  0  0  0
   18.7196   13.9523  112.7896 C   0  0  0  0  0  0
   18.4399   14.6766  111.6359 C   0  0  0  0  0  0
   16.9696   13.1019  105.8712 H   0  0  0  0  0  0
   15.4116   12.2089  105.7909 H   0  0  0  0  0  0
   16.7099   12.7645  103.4807 H   0  0  0  0  0  0
   14.4615   16.0247  104.8996 H   0  0  0  0  0  0
   16.8999   15.2862  104.2313 H   0  0  0  0  0  0
   15.8186   15.1728  102.8191 H   0  0  0  0  0  0
   12.9743   13.7435  104.6554 H   0  0  0  0  0  0
   13.3340   14.6822  103.1669 H   0  0  0  0  0  0
   23.0715   15.3381  104.6548 H   0  0  0  0  0  0
   19.6027   17.2736  106.2314 H   0  0  0  0  0  0
   22.7845   13.4947  106.2859 H   0  0  0  0  0  0
   17.3865   14.7438  107.3040 H   0  0  0  0  0  0
   18.2237   13.5210  108.2283 H   0  0  0  0  0  0
   18.9879   17.9940  111.4204 H   0  0  0  0  0  0
   18.6057   19.1619  110.1581 H   0  0  0  0  0  0
   17.6934   19.1618  111.6758 H   0  0  0  0  0  0
   15.0446   15.3037  110.0146 H   0  0  0  0  0  0
   15.3685   15.9519  108.4498 H   0  0  0  0  0  0
   15.5973   13.0278  108.3116 H   0  0  0  0  0  0
   14.1150   13.5550  109.0752 H   0  0  0  0  0  0
   13.5805   13.3376  106.7701 H   0  0  0  0  0  0
   13.6574   15.0497  107.1115 H   0  0  0  0  0  0
   16.1111   12.5970  110.2887 H   0  0  0  0  0  0
   16.5974   11.3630  112.3007 H   0  0  0  0  0  0
   18.2548   12.1986  113.9291 H   0  0  0  0  0  0
   19.4591   14.3110  113.4913 H   0  0  0  0  0  0
   19.0019   15.5837  111.4836 H   0  0  0  0  0  0
  1  2  1  0  0  0
  1  4  1  0  0  0
  1 27  1  0  0  0
  2  3  1  0  0  0
  2 33  1  0  0  0
  2 34  1  0  0  0
  3  5  1  0  0  0
  3  6  1  0  0  0
  3 35  1  0  0  0
  4  7  1  0  0  0
  4  5  1  0  0  0
  4 36  1  0  0  0
  5 37  1  0  0  0
  5 38  1  0  0  0
  6  7  1  0  0  0
  7 39  1  0  0  0
  7 40  1  0  0  0
  8  9  2  0  0  0
  8 13  1  0  0  0
  8 41  1  0  0  0
  9 10  1  0  0  0
  9 14  1  0  0  0
 10 11  2  0  0  0
 10 42  1  0  0  0
 11 16  1  0  0  0
 11 12  1  0  0  0
 12 13  2  0  0  0
 12 15  1  0  0  0
 13 43  1  0  0  0
 16 17  1  0  0  0
 16 20  1  0  0  0
 17 18  2  0  0  0
 18 19  1  0  0  0
 18 21  1  0  0  0
 19 20  1  0  0  0
 19 24  1  0  0  0
 19 25  1  0  0  0
 20 44  1  0  0  0
 20 45  1  0  0  0
 21 22  2  0  0  0
 21 23  1  0  0  0
 23 46  1  0  0  0
 23 47  1  0  0  0
 23 48  1  0  0  0
 24 28  2  0  0  0
 24 32  1  0  0  0
 25 26  1  0  0  0
 25 49  1  0  0  0
 25 50  1  0  0  0
 26 27  1  0  0  0
 26 51  1  0  0  0
 26 52  1  0  0  0
 27 53  1  0  0  0
 27 54  1  0  0  0
 28 29  1  0  0  0
 28 55  1  0  0  0
 29 30  2  0  0  0
 29 56  1  0  0  0
 30 31  1  0  0  0
 30 57  1  0  0  0
 31 32  2  0  0  0
 31 58  1  0  0  0
 32 59  1  0  0  0
M  END
> <s_m_entry_id>
181

> <s_m_entry_name>
dock_pv.180

> <s_m_Source_Path>
/home/csk/Desktop/cluster/DUD-E-result/kif11

> <s_m_Source_File>
dock_pv.maegz

> <i_m_Source_File_Index>
180

> <chembl_id>
CHEMBL246603

> <chembl_pref_name>
None

> <i_lp_mmshare_version>
53161

> <i_f3d_flags>
0

> <r_lp_tautomer_probability>
1

> <s_lp_Force_Field>
OPLS_2005

> <r_lp_Energy>
101.831083

> <b_lp_Chiralities_Consistent>
1

> <s_lp_Variant>
CHEMBL4581_lig218-2

> <s_i_glide_gridfile>
glide-grid_3cjo

> <i_i_glide_lignum>
329

> <i_i_glide_rotatable_bonds>
7

> <r_i_docking_score>
-8.13788727493253

> <r_i_glide_ligand_efficiency>
-0.254308977341642

> <r_i_glide_ligand_efficiency_sa>
-0.807380675381435

> <r_i_glide_ligand_efficiency_ln>
-1.82229479128638

> <r_i_glide_gscore>
-8.13788727493253

> <r_i_glide_lipo>
-4.07944448461972

> <r_i_glide_hbond>
0

> <r_i_glide_metal>
0

> <r_i_glide_rewards>
-2.11271929327221

> <r_i_glide_evdw>
-44.4952964782715

> <r_i_glide_ecoul>
-1.58400750160217

> <r_i_glide_erotb>
0.516642452113294

> <r_i_glide_esite>
0

> <r_i_glide_emodel>
-62.9689077225966

> <r_i_glide_energy>
-46.0793039798737

> <r_i_glide_einternal>
9.96280956268311

> <i_i_glide_confnum>
39

> <i_i_glide_posenum>
356

> <r_i_glide_eff_state_penalty>
0

> <s_user_duplicate_titles>
CHEMBL4581_lig218,415186

> <s_m_subgroup_title>
dock_pv

> <s_m_subgroupid>
dock_pv

> <b_m_subgroup_collapsed>
1

$$$$
CHEMBL4581_lig815
                    3D
 Schrodinger Suite 2021-1.
 44 46  0  0  1  0            999 V2000
   16.7314   14.0516  106.0032 C   0  0  0  0  0  0
   16.2623   12.7456  105.5895 N   0  0  0  0  0  0
   16.0401   14.5092  107.2975 C   0  0  0  0  0  0
   16.4730   13.5591  108.7930 S   0  0  0  0  0  0
   17.7314   14.5575  109.7302 C   0  0  0  0  0  0
   18.9930   14.5366  108.8121 C   0  0  0  0  0  0
   17.1841   15.9897  110.0177 C   0  0  0  0  0  0
   18.0057   13.9331  111.1378 C   0  0  0  0  0  0
   20.0269   13.6082  109.0040 C   0  0  0  0  0  0
   21.1178   13.5515  108.1336 C   0  0  0  0  0  0
   21.1570   14.3772  107.0134 C   0  0  0  0  0  0
   20.1739   15.3422  106.8289 C   0  0  0  0  0  0
   19.1197   15.4358  107.7347 C   0  0  0  0  0  0
   18.9483   14.5460  111.9834 C   0  0  0  0  0  0
   19.1563   14.0933  113.2826 C   0  0  0  0  0  0
   18.4347   13.0044  113.7561 C   0  0  0  0  0  0
   17.5184   12.3620  112.9344 C   0  0  0  0  0  0
   17.3131   12.8130  111.6340 C   0  0  0  0  0  0
   15.8148   16.2170  110.2399 C   0  0  0  0  0  0
   15.3324   17.4949  110.5022 C   0  0  0  0  0  0
   16.2185   18.5662  110.5593 C   0  0  0  0  0  0
   17.5804   18.3621  110.3659 C   0  0  0  0  0  0
   18.0549   17.0875  110.0905 C   0  0  0  0  0  0
   20.2306   16.1812  105.7685 F   0  0  0  0  0  0
   16.5435   14.7615  105.1964 H   0  0  0  0  0  0
   17.8095   13.9990  106.1334 H   0  0  0  0  0  0
   16.9472   12.3755  104.9370 H   0  0  0  0  0  0
   16.2643   12.1136  106.3828 H   0  0  0  0  0  0
   14.9583   14.4650  107.1753 H   0  0  0  0  0  0
   16.2632   15.5593  107.4639 H   0  0  0  0  0  0
   19.9830   12.8920  109.8118 H   0  0  0  0  0  0
   21.8951   12.8173  108.2861 H   0  0  0  0  0  0
   21.9719   14.2971  106.3095 H   0  0  0  0  0  0
   18.3649   16.1806  107.5487 H   0  0  0  0  0  0
   19.5165   15.3958  111.6374 H   0  0  0  0  0  0
   19.8769   14.5835  113.9172 H   0  0  0  0  0  0
   18.5887   12.6512  114.7659 H   0  0  0  0  0  0
   16.9479   11.5254  113.3079 H   0  0  0  0  0  0
   16.5775   12.2826  111.0497 H   0  0  0  0  0  0
   15.1121   15.3986  110.2166 H   0  0  0  0  0  0
   14.2779   17.6539  110.6689 H   0  0  0  0  0  0
   15.8499   19.5593  110.7728 H   0  0  0  0  0  0
   18.2796   19.1780  110.4387 H   0  0  0  0  0  0
   19.1179   16.9602  109.9552 H   0  0  0  0  0  0
  1  2  1  0  0  0
  1  3  1  0  0  0
  1 25  1  0  0  0
  1 26  1  0  0  0
  2 27  1  0  0  0
  2 28  1  0  0  0
  3  4  1  0  0  0
  3 29  1  0  0  0
  3 30  1  0  0  0
  4  5  1  0  0  0
  5  7  1  0  0  0
  5  8  1  0  0  0
  5  6  1  0  0  0
  6 13  1  0  0  0
  6  9  2  0  0  0
  7 19  2  0  0  0
  7 23  1  0  0  0
  8 14  2  0  0  0
  8 18  1  0  0  0
  9 10  1  0  0  0
  9 31  1  0  0  0
 10 11  2  0  0  0
 10 32  1  0  0  0
 11 12  1  0  0  0
 11 33  1  0  0  0
 12 13  2  0  0  0
 12 24  1  0  0  0
 13 34  1  0  0  0
 14 15  1  0  0  0
 14 35  1  0  0  0
 15 16  2  0  0  0
 15 36  1  0  0  0
 16 17  1  0  0  0
 16 37  1  0  0  0
 17 18  2  0  0  0
 17 38  1  0  0  0
 18 39  1  0  0  0
 19 20  1  0  0  0
 19 40  1  0  0  0
 20 21  2  0  0  0
 20 41  1  0  0  0
 21 22  1  0  0  0
 21 42  1  0  0  0
 22 23  2  0  0  0
 22 43  1  0  0  0
 23 44  1  0  0  0
M  END
> <s_m_entry_id>
182

> <s_m_entry_name>
dock_pv.181

> <s_m_Source_Path>
/home/csk/Desktop/cluster/DUD-E-result/kif11

> <s_m_Source_File>
dock_pv.maegz

> <i_m_Source_File_Index>
181

> <chembl_id>
CHEMBL2022593

> <chembl_pref_name>
None

> <i_lp_mmshare_version>
53161

> <i_f3d_flags>
0

> <r_lp_tautomer_probability>
1

> <s_lp_Force_Field>
OPLS_2005

> <r_lp_Energy>
24.457928

> <b_lp_Chiralities_Consistent>
1

> <s_lp_Variant>
CHEMBL4581_lig815-1

> <s_i_glide_gridfile>
glide-grid_3cjo

> <i_i_glide_lignum>
1202

> <i_i_glide_rotatable_bonds>
6

> <r_i_docking_score>
-8.12846171996481

> <r_i_glide_ligand_efficiency>
-0.338685904998534

> <r_i_glide_ligand_efficiency_sa>
-0.9769392008717

> <r_i_glide_ligand_efficiency_ln>
-1.9455138803915

> <r_i_glide_gscore>
-8.12846171996481

> <r_i_glide_lipo>
-4.7287165492335

> <r_i_glide_hbond>
-0.287644888664278

> <r_i_glide_metal>
0

> <r_i_glide_rewards>
-1.54314018173207

> <r_i_glide_evdw>
-42.1511993408203

> <r_i_glide_ecoul>
-1.94151651859283

> <r_i_glide_erotb>
0.829827344494978

> <r_i_glide_esite>
0

> <r_i_glide_emodel>
-65.641322245042

> <r_i_glide_energy>
-44.0927158594131

> <r_i_glide_einternal>
1.78860282897949

> <i_i_glide_confnum>
40

> <i_i_glide_posenum>
15

> <r_i_glide_eff_state_penalty>
0

> <s_user_duplicate_titles>
CHEMBL4581_lig815

> <s_m_subgroup_title>
dock_pv

> <s_m_subgroupid>
dock_pv

> <b_m_subgroup_collapsed>
1

$$$$
CHEMBL4581_lig109
                    3D
 Schrodinger Suite 2021-1.
 68 71  0  0  1  0            999 V2000
   20.6201   16.9354  105.3561 C   0  0  0  0  0  0
   22.0032   15.3790  106.1586 C   0  0  0  0  0  0
   21.9185   16.4595  105.2804 C   0  0  0  0  0  0
   20.7662   15.2286  106.7755 C   0  0  0  0  0  0
   19.9186   16.1818  106.2627 N   0  0  0  0  0  0
   18.6076   16.3619  106.6200 N   0  0  0  0  0  0
   18.1267   15.5497  107.4955 C   0  0  0  0  0  0
   18.8984   14.5162  108.0242 N   0  0  0  0  0  0
   20.2687   14.3610  107.8293 C   0  0  0  0  0  0
   20.9659   13.5583  108.4556 O   0  0  0  0  0  0
   16.6673   15.7809  108.0130 C   0  0  2  0  0  0
   15.6538   15.2762  107.0386 N   0  0  0  0  0  0
   14.6714   14.4177  107.4483 C   0  0  0  0  0  0
   15.7204   15.7998  105.6543 C   0  0  0  0  0  0
   13.6299   13.9912  106.4420 C   0  0  0  0  0  0
   16.3686   17.2635  108.3904 C   0  0  0  0  0  0
   12.6907   14.9070  105.9503 C   0  0  0  0  0  0
   11.8095   14.5268  104.9409 C   0  0  0  0  0  0
   11.8543   13.2281  104.4357 C   0  0  0  0  0  0
   12.7466   12.2963  104.9576 C   0  0  0  0  0  0
   13.6265   12.6760  105.9667 C   0  0  0  0  0  0
   10.8087   12.7714  103.1427 Cl  0  0  0  0  0  0
   14.6031   13.9629  108.5923 O   0  0  0  0  0  0
   16.2894   14.7979  104.6221 C   0  0  0  0  0  0
   16.4129   15.3672  103.1910 C   0  0  0  0  0  0
   17.0992   14.3549  102.4146 N   0  0  0  0  0  0
   15.0372   15.5848  102.5314 C   0  0  0  0  0  0
   17.2565   16.6554  103.1481 C   0  0  0  0  0  0
   18.2514   13.4352  108.8071 C   0  0  0  0  0  0
   17.3388   17.8957  109.4081 C   0  0  0  0  0  0
   18.2451   13.5906  110.3270 C   0  0  0  0  0  0
   17.5190   12.6608  111.0750 C   0  0  0  0  0  0
   17.5180   12.7344  112.4620 C   0  0  0  0  0  0
   18.2134   13.7603  113.0941 C   0  0  0  0  0  0
   18.9140   14.7129  112.3598 C   0  0  0  0  0  0
   18.9322   14.6270  110.9742 C   0  0  0  0  0  0
   20.1296   17.7515  104.8501 H   0  0  0  0  0  0
   22.8805   14.7765  106.3438 H   0  0  0  0  0  0
   22.7165   16.8421  104.6589 H   0  0  0  0  0  0
   16.5554   15.2671  108.9685 H   0  0  0  0  0  0
   14.7475   16.1606  105.3275 H   0  0  0  0  0  0
   16.3267   16.7037  105.6402 H   0  0  0  0  0  0
   16.3198   17.8910  107.5010 H   0  0  0  0  0  0
   15.3691   17.3082  108.8259 H   0  0  0  0  0  0
   12.6642   15.9230  106.3244 H   0  0  0  0  0  0
   11.1047   15.2415  104.5409 H   0  0  0  0  0  0
   12.7623   11.2847  104.5781 H   0  0  0  0  0  0
   14.3224   11.9485  106.3506 H   0  0  0  0  0  0
   17.2707   14.4684  104.9651 H   0  0  0  0  0  0
   15.6685   13.9036  104.5989 H   0  0  0  0  0  0
   17.8239   13.9588  103.0163 H   0  0  0  0  0  0
   16.4349   13.6013  102.3126 H   0  0  0  0  0  0
   14.4687   16.3719  103.0295 H   0  0  0  0  0  0
   15.1369   15.8709  101.4826 H   0  0  0  0  0  0
   14.4304   14.6781  102.5594 H   0  0  0  0  0  0
   16.7221   17.4970  103.5918 H   0  0  0  0  0  0
   18.1949   16.5389  103.6890 H   0  0  0  0  0  0
   17.4938   16.9458  102.1262 H   0  0  0  0  0  0
   17.2271   13.2816  108.4657 H   0  0  0  0  0  0
   18.7340   12.4817  108.5840 H   0  0  0  0  0  0
   17.0131   18.8975  109.6914 H   0  0  0  0  0  0
   17.4003   17.2994  110.3192 H   0  0  0  0  0  0
   18.3447   17.9884  109.0025 H   0  0  0  0  0  0
   16.9807   11.8627  110.5830 H   0  0  0  0  0  0
   16.9707   12.0048  113.0424 H   0  0  0  0  0  0
   18.2041   13.8149  114.1653 H   0  0  0  0  0  0
   19.4458   15.5084  112.8598 H   0  0  0  0  0  0
   19.4900   15.3656  110.4166 H   0  0  0  0  0  0
  1  3  2  0  0  0
  1  5  1  0  0  0
  1 37  1  0  0  0
  2  4  2  0  0  0
  2  3  1  0  0  0
  2 38  1  0  0  0
  3 39  1  0  0  0
  4  5  1  0  0  0
  4  9  1  0  0  0
  5  6  1  0  0  0
  6  7  2  0  0  0
  7 11  1  0  0  0
  7  8  1  0  0  0
  8 29  1  0  0  0
  8  9  1  0  0  0
  9 10  2  0  0  0
 11 12  1  0  0  0
 11 16  1  0  0  0
 11 40  1  0  0  0
 12 13  1  0  0  0
 12 14  1  0  0  0
 13 23  2  0  0  0
 13 15  1  0  0  0
 14 24  1  0  0  0
 14 41  1  0  0  0
 14 42  1  0  0  0
 15 21  1  0  0  0
 15 17  2  0  0  0
 16 30  1  0  0  0
 16 43  1  0  0  0
 16 44  1  0  0  0
 17 18  1  0  0  0
 17 45  1  0  0  0
 18 19  2  0  0  0
 18 46  1  0  0  0
 19 20  1  0  0  0
 19 22  1  0  0  0
 20 21  2  0  0  0
 20 47  1  0  0  0
 21 48  1  0  0  0
 24 25  1  0  0  0
 24 49  1  0  0  0
 24 50  1  0  0  0
 25 26  1  0  0  0
 25 27  1  0  0  0
 25 28  1  0  0  0
 26 51  1  0  0  0
 26 52  1  0  0  0
 27 53  1  0  0  0
 27 54  1  0  0  0
 27 55  1  0  0  0
 28 56  1  0  0  0
 28 57  1  0  0  0
 28 58  1  0  0  0
 29 31  1  0  0  0
 29 59  1  0  0  0
 29 60  1  0  0  0
 30 61  1  0  0  0
 30 62  1  0  0  0
 30 63  1  0  0  0
 31 32  2  0  0  0
 31 36  1  0  0  0
 32 33  1  0  0  0
 32 64  1  0  0  0
 33 34  2  0  0  0
 33 65  1  0  0  0
 34 35  1  0  0  0
 34 66  1  0  0  0
 35 36  2  0  0  0
 35 67  1  0  0  0
 36 68  1  0  0  0
M  END
> <s_m_entry_id>
183

> <s_m_entry_name>
dock_pv.182

> <s_m_Source_Path>
/home/csk/Desktop/cluster/DUD-E-result/kif11

> <s_m_Source_File>
dock_pv.maegz

> <i_m_Source_File_Index>
182

> <chembl_id>
CHEMBL377009

> <chembl_pref_name>
None

> <i_lp_mmshare_version>
53161

> <i_f3d_flags>
0

> <r_lp_tautomer_probability>
1

> <s_lp_Force_Field>
OPLS_2005

> <r_lp_Energy>
51.786581

> <b_lp_Chiralities_Consistent>
1

> <s_lp_Variant>
CHEMBL4581_lig109-1

> <s_i_glide_gridfile>
glide-grid_3cjo

> <i_i_glide_lignum>
185

> <i_i_glide_rotatable_bonds>
10

> <r_i_docking_score>
-8.11586744922451

> <r_i_glide_ligand_efficiency>
-0.225440762478459

> <r_i_glide_ligand_efficiency_sa>
-0.744388995750026

> <r_i_glide_ligand_efficiency_ln>
-1.77066301202155

> <r_i_glide_gscore>
-8.11586744922451

> <r_i_glide_lipo>
-3.84774075314024

> <r_i_glide_hbond>
-0.456

> <r_i_glide_metal>
0

> <r_i_glide_rewards>
-0.958557638241708

> <r_i_glide_evdw>
-46.8966178894043

> <r_i_glide_ecoul>
-7.1196985244751

> <r_i_glide_erotb>
0.559216615298922

> <r_i_glide_esite>
0

> <r_i_glide_emodel>
-75.6438000490121

> <r_i_glide_energy>
-54.0163164138794

> <r_i_glide_einternal>
6.31897687911987

> <i_i_glide_confnum>
43

> <i_i_glide_posenum>
41

> <r_i_glide_eff_state_penalty>
0

> <s_user_duplicate_titles>
CHEMBL4581_lig109,355082

> <s_m_subgroup_title>
dock_pv

> <s_m_subgroupid>
dock_pv

> <b_m_subgroup_collapsed>
1

$$$$
CHEMBL4581_lig756
                    3D
 Schrodinger Suite 2021-1.
 52 54  0  0  1  0            999 V2000
   15.0149   13.3629  107.1037 C   0  0  2  0  0  0
   13.8779   14.2508  107.4176 N   0  0  0  0  0  0
   16.3716   13.9353  107.5873 C   0  0  0  0  0  0
   16.7164   13.5453  109.0515 C   0  0  0  0  0  0
   17.7085   14.4870  109.8451 C   0  0  0  0  0  0
   18.9752   14.5655  108.9385 C   0  0  0  0  0  0
   17.0736   15.8934  110.1266 C   0  0  0  0  0  0
   18.0376   13.8807  111.2548 C   0  0  0  0  0  0
   19.9669   13.5716  108.9996 C   0  0  0  0  0  0
   21.0368   13.5687  108.1038 C   0  0  0  0  0  0
   21.1068   14.5327  107.1036 C   0  0  0  0  0  0
   20.1725   15.5637  107.0560 C   0  0  0  0  0  0
   19.1144   15.5759  107.9687 C   0  0  0  0  0  0
   19.0810   14.4186  112.0279 C   0  0  0  0  0  0
   19.3327   13.9755  113.3225 C   0  0  0  0  0  0
   18.5733   12.9431  113.8569 C   0  0  0  0  0  0
   17.5707   12.3593  113.0991 C   0  0  0  0  0  0
   17.3055   12.8159  111.8119 C   0  0  0  0  0  0
   17.8751   16.9482  110.5956 C   0  0  0  0  0  0
   17.3166   18.1589  110.9884 C   0  0  0  0  0  0
   15.9555   18.3785  110.8156 C   0  0  0  0  0  0
   15.1479   17.3813  110.2913 C   0  0  0  0  0  0
   15.7001   16.1455  109.9658 C   0  0  0  0  0  0
   20.3309   16.6634  106.0257 C   0  0  0  0  0  0
   15.0161   13.0411  105.5891 C   0  0  0  0  0  0
   14.7108   13.8588  104.7231 O   0  0  0  0  0  0
   15.4158   11.7598  105.3575 O   0  0  0  0  0  0
   14.8358   12.4204  107.6135 H   0  0  0  0  0  0
   14.0568   15.1885  107.0807 H   0  0  0  0  0  0
   13.0320   13.9332  106.9600 H   0  0  0  0  0  0
   16.3544   15.0196  107.4802 H   0  0  0  0  0  0
   17.1905   13.5984  106.9450 H   0  0  0  0  0  0
   17.1354   12.5371  109.0175 H   0  0  0  0  0  0
   15.7858   13.4258  109.6052 H   0  0  0  0  0  0
   19.8945   12.7695  109.7197 H   0  0  0  0  0  0
   21.7804   12.7868  108.1531 H   0  0  0  0  0  0
   21.9222   14.5055  106.3952 H   0  0  0  0  0  0
   18.3773   16.3616  107.8946 H   0  0  0  0  0  0
   19.7228   15.1903  111.6370 H   0  0  0  0  0  0
   20.1305   14.4182  113.8970 H   0  0  0  0  0  0
   18.7670   12.5917  114.8603 H   0  0  0  0  0  0
   16.9713   11.5652  113.5179 H   0  0  0  0  0  0
   16.4947   12.3344  111.2889 H   0  0  0  0  0  0
   18.9381   16.8304  110.7306 H   0  0  0  0  0  0
   17.9154   18.8907  111.5187 H   0  0  0  0  0  0
   15.5209   19.3165  111.1300 H   0  0  0  0  0  0
   14.0877   17.5525  110.1750 H   0  0  0  0  0  0
   15.0211   15.3928  109.6072 H   0  0  0  0  0  0
   20.3612   16.2427  105.0212 H   0  0  0  0  0  0
   19.5184   17.3864  106.0655 H   0  0  0  0  0  0
   21.2678   17.1954  106.1999 H   0  0  0  0  0  0
   15.5395   11.2673  106.1847 H   0  0  0  0  0  0
  1  3  1  0  0  0
  1  2  1  0  0  0
  1 25  1  0  0  0
  1 28  1  0  0  0
  2 29  1  0  0  0
  2 30  1  0  0  0
  3  4  1  0  0  0
  3 31  1  0  0  0
  3 32  1  0  0  0
  4  5  1  0  0  0
  4 33  1  0  0  0
  4 34  1  0  0  0
  5  7  1  0  0  0
  5  8  1  0  0  0
  5  6  1  0  0  0
  6  9  2  0  0  0
  6 13  1  0  0  0
  7 19  2  0  0  0
  7 23  1  0  0  0
  8 14  2  0  0  0
  8 18  1  0  0  0
  9 10  1  0  0  0
  9 35  1  0  0  0
 10 11  2  0  0  0
 10 36  1  0  0  0
 11 12  1  0  0  0
 11 37  1  0  0  0
 12 24  1  0  0  0
 12 13  2  0  0  0
 13 38  1  0  0  0
 14 15  1  0  0  0
 14 39  1  0  0  0
 15 16  2  0  0  0
 15 40  1  0  0  0
 16 17  1  0  0  0
 16 41  1  0  0  0
 17 18  2  0  0  0
 17 42  1  0  0  0
 18 43  1  0  0  0
 19 20  1  0  0  0
 19 44  1  0  0  0
 20 21  2  0  0  0
 20 45  1  0  0  0
 21 22  1  0  0  0
 21 46  1  0  0  0
 22 23  2  0  0  0
 22 47  1  0  0  0
 23 48  1  0  0  0
 24 49  1  0  0  0
 24 50  1  0  0  0
 24 51  1  0  0  0
 25 26  2  0  0  0
 25 27  1  0  0  0
 27 52  1  0  0  0
M  END
> <s_m_entry_id>
184

> <s_m_entry_name>
dock_pv.183

> <s_m_Source_Path>
/home/csk/Desktop/cluster/DUD-E-result/kif11

> <s_m_Source_File>
dock_pv.maegz

> <i_m_Source_File_Index>
183

> <chembl_id>
CHEMBL2022994

> <chembl_pref_name>
None

> <i_lp_mmshare_version>
53161

> <i_f3d_flags>
0

> <r_lp_tautomer_probability>
1

> <s_lp_Force_Field>
OPLS_2005

> <r_lp_Energy>
32.247777

> <b_lp_Chiralities_Consistent>
1

> <s_lp_Variant>
CHEMBL4581_lig756-2

> <s_i_glide_gridfile>
glide-grid_3cjo

> <i_i_glide_lignum>
1118

> <i_i_glide_rotatable_bonds>
8

> <r_i_docking_score>
-8.11329785848835

> <r_i_glide_ligand_efficiency>
-0.300492513277346

> <r_i_glide_ligand_efficiency_sa>
-0.901477538841665

> <r_i_glide_ligand_efficiency_ln>
-1.88864198328712

> <r_i_glide_gscore>
-8.11329785848835

> <r_i_glide_lipo>
-4.8722705952436

> <r_i_glide_hbond>
0

> <r_i_glide_metal>
0

> <r_i_glide_rewards>
-1.08322181818182

> <r_i_glide_evdw>
-38.434497833252

> <r_i_glide_ecoul>
-8.43414974212646

> <r_i_glide_erotb>
1.03839867053893

> <r_i_glide_esite>
-0.00935676262029347

> <r_i_glide_emodel>
-62.8044254458508

> <r_i_glide_energy>
-46.8686475753784

> <r_i_glide_einternal>
12.2798509597778

> <i_i_glide_confnum>
189

> <i_i_glide_posenum>
236

> <r_i_glide_eff_state_penalty>
0

> <s_user_duplicate_titles>
CHEMBL4581_lig756,CHEMBL4581_lig833

> <s_m_subgroup_title>
dock_pv

> <s_m_subgroupid>
dock_pv

> <b_m_subgroup_collapsed>
1

$$$$
CHEMBL4581_lig8
                    3D
 Schrodinger Suite 2021-1.
 31 32  0  0  1  0            999 V2000
   17.8183   13.3572  111.6218 C   0  0  0  0  0  0
   18.6074   14.5181  111.6222 C   0  0  0  0  0  0
   19.1197   15.0095  110.4330 C   0  0  0  0  0  0
   18.8819   14.3512  109.2285 C   0  0  0  0  0  0
   18.0314   13.2425  109.2129 C   0  0  0  0  0  0
   17.4806   12.7640  110.4038 C   0  0  0  0  0  0
   19.5987   14.8118  108.0281 C   0  0  0  0  0  0
   19.2473   16.0158  107.4179 C   0  0  0  0  0  0
   20.0495   16.5435  106.4145 C   0  0  0  0  0  0
   21.2024   15.8672  106.0174 C   0  0  0  0  0  0
   21.5030   14.6155  106.5592 C   0  0  0  0  0  0
   20.7169   14.1046  107.5834 C   0  0  0  0  0  0
   22.1632   16.5089  105.0359 C   0  0  0  0  0  0
   21.5598   17.3799  104.2268 F   0  0  0  0  0  0
   23.1114   17.1455  105.7264 F   0  0  0  0  0  0
   22.7223   15.5617  104.2931 F   0  0  0  0  0  0
   17.2808   12.8131  112.7952 N   0  0  0  0  0  0
   17.9236   12.7087  113.9671 C   0  0  0  0  0  0
   17.1180   12.3620  114.9562 N   0  0  0  0  0  0
   19.1176   12.9118  114.1588 O   0  0  0  0  0  0
   18.9055   15.1723  112.7630 F   0  0  0  0  0  0
   19.7579   15.8800  110.4648 H   0  0  0  0  0  0
   17.8221   12.7286  108.2851 H   0  0  0  0  0  0
   16.8434   11.8908  110.3736 H   0  0  0  0  0  0
   18.3910   16.5765  107.7644 H   0  0  0  0  0  0
   19.8126   17.5119  105.9982 H   0  0  0  0  0  0
   22.3843   14.0718  106.2493 H   0  0  0  0  0  0
   20.9994   13.1767  108.0598 H   0  0  0  0  0  0
   16.4317   12.2794  112.6943 H   0  0  0  0  0  0
   17.5570   12.2161  115.8597 H   0  0  0  0  0  0
   16.1430   12.1590  114.8120 H   0  0  0  0  0  0
  1  6  1  0  0  0
  1  2  2  0  0  0
  1 17  1  0  0  0
  2  3  1  0  0  0
  2 21  1  0  0  0
  3  4  2  0  0  0
  3 22  1  0  0  0
  4  7  1  0  0  0
  4  5  1  0  0  0
  5  6  2  0  0  0
  5 23  1  0  0  0
  6 24  1  0  0  0
  7 12  1  0  0  0
  7  8  2  0  0  0
  8  9  1  0  0  0
  8 25  1  0  0  0
  9 10  2  0  0  0
  9 26  1  0  0  0
 10 11  1  0  0  0
 10 13  1  0  0  0
 11 12  2  0  0  0
 11 27  1  0  0  0
 12 28  1  0  0  0
 13 14  1  0  0  0
 13 15  1  0  0  0
 13 16  1  0  0  0
 17 18  1  0  0  0
 17 29  1  0  0  0
 18 19  1  0  0  0
 18 20  2  0  0  0
 19 30  1  0  0  0
 19 31  1  0  0  0
M  END
> <s_m_entry_id>
186

> <s_m_entry_name>
dock_pv.185

> <s_m_Source_Path>
/home/csk/Desktop/cluster/DUD-E-result/kif11

> <s_m_Source_File>
dock_pv.maegz

> <i_m_Source_File_Index>
185

> <chembl_id>
CHEMBL243668

> <chembl_pref_name>
None

> <i_lp_mmshare_version>
53161

> <i_f3d_flags>
0

> <r_lp_tautomer_probability>
1

> <s_lp_Force_Field>
OPLS_2005

> <r_lp_Energy>
13.719782

> <b_lp_Chiralities_Consistent>
1

> <s_lp_Variant>
CHEMBL4581_lig8-1

> <s_i_glide_gridfile>
glide-grid_3cjo

> <i_i_glide_lignum>
9

> <i_i_glide_rotatable_bonds>
4

> <r_i_docking_score>
-8.11088072555328

> <r_i_glide_ligand_efficiency>
-0.386232415502537

> <r_i_glide_ligand_efficiency_sa>
-1.06558594775063

> <r_i_glide_ligand_efficiency_ln>
-2.00539886981533

> <r_i_glide_gscore>
-8.11088072555328

> <r_i_glide_lipo>
-3.13742579544805

> <r_i_glide_hbond>
-0.32

> <r_i_glide_metal>
0

> <r_i_glide_rewards>
-3.08659397527039

> <r_i_glide_evdw>
-29.5740032196045

> <r_i_glide_ecoul>
-3.33819794654846

> <r_i_glide_erotb>
0.412568898127649

> <r_i_glide_esite>
0

> <r_i_glide_emodel>
-44.9897301119174

> <r_i_glide_energy>
-32.912201166153

> <r_i_glide_einternal>
8.15647125244141

> <i_i_glide_confnum>
8

> <i_i_glide_posenum>
132

> <r_i_glide_eff_state_penalty>
0

> <s_user_duplicate_titles>
CHEMBL4581_lig8,389204

> <s_m_subgroup_title>
dock_pv

> <s_m_subgroupid>
dock_pv

> <b_m_subgroup_collapsed>
1

$$$$
CHEMBL4581_lig101
                    3D
 Schrodinger Suite 2021-1.
 49 51  0  0  1  0            999 V2000
   22.5770   14.3710  105.8121 C   0  0  0  0  0  0
   22.7180   15.4559  104.9590 C   0  0  0  0  0  0
   21.8199   16.5180  105.0204 C   0  0  0  0  0  0
   20.7720   16.4834  105.9347 C   0  0  0  0  0  0
   20.6004   15.3837  106.7913 C   0  0  0  0  0  0
   21.5304   14.3273  106.7297 C   0  0  0  0  0  0
   21.5172   13.2861  107.5951 F   0  0  0  0  0  0
   21.9323   17.5606  104.1694 F   0  0  0  0  0  0
   19.4799   15.4023  107.7440 C   0  0  0  0  0  0
   18.9435   16.4463  108.2178 N   0  0  0  0  0  0
   17.9127   16.1499  109.0500 N   0  0  0  0  0  0
   17.6422   14.6818  109.0829 C   0  0  1  0  0  0
   18.8103   14.1593  108.2297 C   0  0  0  0  0  0
   17.7430   14.0586  110.5085 C   0  0  0  0  0  0
   17.0036   12.9199  110.8614 C   0  0  0  0  0  0
   17.1197   12.3620  112.1316 C   0  0  0  0  0  0
   17.9701   12.9389  113.0686 C   0  0  0  0  0  0
   18.7182   14.0641  112.7385 C   0  0  0  0  0  0
   18.6099   14.6150  111.4648 C   0  0  0  0  0  0
   17.2291   17.1640  109.6643 C   0  0  0  0  0  0
   16.3196   16.7627  110.5724 N   0  0  0  0  0  0
   17.4360   18.3618  109.4454 O   0  0  0  0  0  0
   15.3107   17.6127  111.1977 C   0  0  0  0  0  0
   16.2345   14.4696  108.3957 C   0  0  0  0  0  0
   14.0474   17.7517  110.3378 C   0  0  0  0  0  0
   15.9905   13.1620  107.6163 C   0  0  0  0  0  0
   16.2048   13.3268  106.1870 N   0  0  0  0  0  0
   23.2878   13.5619  105.7671 H   0  0  0  0  0  0
   23.5171   15.4464  104.2389 H   0  0  0  0  0  0
   20.0877   17.3208  105.9604 H   0  0  0  0  0  0
   19.5027   13.5592  108.8211 H   0  0  0  0  0  0
   18.5036   13.5620  107.3793 H   0  0  0  0  0  0
   16.3338   12.4442  110.1637 H   0  0  0  0  0  0
   16.5341   11.4946  112.3948 H   0  0  0  0  0  0
   18.0533   12.5081  114.0562 H   0  0  0  0  0  0
   19.3873   14.5035  113.4638 H   0  0  0  0  0  0
   19.2154   15.4771  111.2240 H   0  0  0  0  0  0
   16.2936   15.7802  110.8026 H   0  0  0  0  0  0
   15.0488   17.1724  112.1591 H   0  0  0  0  0  0
   15.7217   18.6012  111.4159 H   0  0  0  0  0  0
   15.4587   14.5501  109.1580 H   0  0  0  0  0  0
   16.0041   15.2990  107.7217 H   0  0  0  0  0  0
   13.3124   18.3863  110.8336 H   0  0  0  0  0  0
   14.2721   18.2085  109.3732 H   0  0  0  0  0  0
   13.5764   16.7847  110.1584 H   0  0  0  0  0  0
   16.6291   12.3621  107.9905 H   0  0  0  0  0  0
   14.9601   12.8333  107.7581 H   0  0  0  0  0  0
   17.1726   13.5423  105.9845 H   0  0  0  0  0  0
   16.0209   12.4461  105.7253 H   0  0  0  0  0  0
  1  2  2  0  0  0
  1  6  1  0  0  0
  1 28  1  0  0  0
  2  3  1  0  0  0
  2 29  1  0  0  0
  3  4  2  0  0  0
  3  8  1  0  0  0
  4  5  1  0  0  0
  4 30  1  0  0  0
  5  9  1  0  0  0
  5  6  2  0  0  0
  6  7  1  0  0  0
  9 13  1  0  0  0
  9 10  2  0  0  0
 10 11  1  0  0  0
 11 20  1  0  0  0
 11 12  1  0  0  0
 12 14  1  0  0  0
 12 24  1  0  0  0
 12 13  1  0  0  0
 13 31  1  0  0  0
 13 32  1  0  0  0
 14 15  2  0  0  0
 14 19  1  0  0  0
 15 16  1  0  0  0
 15 33  1  0  0  0
 16 17  2  0  0  0
 16 34  1  0  0  0
 17 18  1  0  0  0
 17 35  1  0  0  0
 18 19  2  0  0  0
 18 36  1  0  0  0
 19 37  1  0  0  0
 20 21  1  0  0  0
 20 22  2  0  0  0
 21 23  1  0  0  0
 21 38  1  0  0  0
 23 25  1  0  0  0
 23 39  1  0  0  0
 23 40  1  0  0  0
 24 26  1  0  0  0
 24 41  1  0  0  0
 24 42  1  0  0  0
 25 43  1  0  0  0
 25 44  1  0  0  0
 25 45  1  0  0  0
 26 27  1  0  0  0
 26 46  1  0  0  0
 26 47  1  0  0  0
 27 48  1  0  0  0
 27 49  1  0  0  0
M  END
> <s_m_entry_id>
187

> <s_m_entry_name>
dock_pv.186

> <s_m_Source_Path>
/home/csk/Desktop/cluster/DUD-E-result/kif11

> <s_m_Source_File>
dock_pv.maegz

> <i_m_Source_File_Index>
186

> <chembl_id>
CHEMBL207261

> <chembl_pref_name>
None

> <i_lp_mmshare_version>
53161

> <i_f3d_flags>
0

> <r_lp_tautomer_probability>
1

> <s_lp_Force_Field>
OPLS_2005

> <r_lp_Energy>
32.975232

> <b_lp_Chiralities_Consistent>
1

> <s_lp_Variant>
CHEMBL4581_lig101-2

> <s_i_glide_gridfile>
glide-grid_3cjo

> <i_i_glide_lignum>
171

> <i_i_glide_rotatable_bonds>
7

> <r_i_docking_score>
-8.10489143113237

> <r_i_glide_ligand_efficiency>
-0.300181164116014

> <r_i_glide_ligand_efficiency_sa>
-0.900543491358693

> <r_i_glide_ligand_efficiency_ln>
-1.88668510558944

> <r_i_glide_gscore>
-8.10489143113237

> <r_i_glide_lipo>
-3.99960741061426

> <r_i_glide_hbond>
0

> <r_i_glide_metal>
0

> <r_i_glide_rewards>
-2.45741180962211

> <r_i_glide_evdw>
-42.6849555969238

> <r_i_glide_ecoul>
-1.39945089817047

> <r_i_glide_erotb>
0.696293203675766

> <r_i_glide_esite>
0

> <r_i_glide_emodel>
-62.3064358636175

> <r_i_glide_energy>
-44.0844064950943

> <r_i_glide_einternal>
4.86960697174072

> <i_i_glide_confnum>
21

> <i_i_glide_posenum>
247

> <r_i_glide_eff_state_penalty>
0

> <s_user_duplicate_titles>
CHEMBL4581_lig101

> <s_m_subgroup_title>
dock_pv

> <s_m_subgroupid>
dock_pv

> <b_m_subgroup_collapsed>
1

$$$$
CHEMBL4581_lig860
                    3D
 Schrodinger Suite 2021-1.
 48 50  0  0  1  0            999 V2000
   17.6592   14.4850  109.7053 C   0  0  1  0  0  0
   17.0526   15.9017  109.9507 C   0  0  0  0  0  0
   18.9239   14.4853  108.7911 C   0  0  0  0  0  0
   15.6732   16.0735  110.1484 C   0  0  0  0  0  0
   15.1259   17.3389  110.3403 C   0  0  0  0  0  0
   15.9566   18.4574  110.3510 C   0  0  0  0  0  0
   17.3308   18.3072  110.1866 C   0  0  0  0  0  0
   17.8733   17.0419  109.9910 C   0  0  0  0  0  0
   19.9885   13.5865  108.9986 C   0  0  0  0  0  0
   21.0887   13.5616  108.1405 C   0  0  0  0  0  0
   21.1213   14.4059  107.0310 C   0  0  0  0  0  0
   20.1079   15.3361  106.8315 C   0  0  0  0  0  0
   19.0291   15.3805  107.7085 C   0  0  0  0  0  0
   17.9526   13.9019  111.1253 C   0  0  0  0  0  0
   18.8882   14.5582  111.9445 C   0  0  0  0  0  0
   19.1194   14.1373  113.2494 C   0  0  0  0  0  0
   18.4303   13.0439  113.7576 C   0  0  0  0  0  0
   17.5182   12.3631  112.9625 C   0  0  0  0  0  0
   17.2858   12.7807  111.6557 C   0  0  0  0  0  0
   16.4490   13.4054  108.7938 S   0  0  0  0  0  0
   15.9913   14.2793  107.2596 C   0  0  0  0  0  0
   16.7144   13.7932  105.9956 C   0  0  0  0  0  0
   16.2442   12.4877  105.5781 N   0  0  0  0  0  0
   20.1639   16.1979  105.7682 O   0  0  0  0  0  0
   15.3650   19.8438  110.5197 C   0  0  0  0  0  0
   15.0096   15.2247  110.1488 H   0  0  0  0  0  0
   14.0609   17.4455  110.4760 H   0  0  0  0  0  0
   17.9868   19.1635  110.2044 H   0  0  0  0  0  0
   18.9425   16.9642  109.8718 H   0  0  0  0  0  0
   19.9578   12.8754  109.8097 H   0  0  0  0  0  0
   21.8899   12.8582  108.3038 H   0  0  0  0  0  0
   21.9608   14.3534  106.3510 H   0  0  0  0  0  0
   18.2478   16.0992  107.5143 H   0  0  0  0  0  0
   19.4312   15.4156  111.5732 H   0  0  0  0  0  0
   19.8390   14.6615  113.8635 H   0  0  0  0  0  0
   18.6055   12.7215  114.7738 H   0  0  0  0  0  0
   16.9697   11.5228  113.3601 H   0  0  0  0  0  0
   16.5565   12.2207  111.0915 H   0  0  0  0  0  0
   14.9133   14.1931  107.1286 H   0  0  0  0  0  0
   16.1747   15.3449  107.3893 H   0  0  0  0  0  0
   16.5555   14.4942  105.1754 H   0  0  0  0  0  0
   17.7901   13.7401  106.1582 H   0  0  0  0  0  0
   16.9350   12.1140  104.9396 H   0  0  0  0  0  0
   16.2190   11.8497  106.3732 H   0  0  0  0  0  0
   20.9405   16.0538  105.2244 H   0  0  0  0  0  0
   15.8493   20.5419  109.8337 H   0  0  0  0  0  0
   14.2973   19.8612  110.2913 H   0  0  0  0  0  0
   15.5159   20.2018  111.5400 H   0  0  0  0  0  0
  1  2  1  0  0  0
  1  3  1  0  0  0
  1 14  1  0  0  0
  1 20  1  0  0  0
  2  4  2  0  0  0
  2  8  1  0  0  0
  3  9  2  0  0  0
  3 13  1  0  0  0
  4  5  1  0  0  0
  4 26  1  0  0  0
  5  6  2  0  0  0
  5 27  1  0  0  0
  6  7  1  0  0  0
  6 25  1  0  0  0
  7  8  2  0  0  0
  7 28  1  0  0  0
  8 29  1  0  0  0
  9 10  1  0  0  0
  9 30  1  0  0  0
 10 11  2  0  0  0
 10 31  1  0  0  0
 11 12  1  0  0  0
 11 32  1  0  0  0
 12 13  2  0  0  0
 12 24  1  0  0  0
 13 33  1  0  0  0
 14 15  2  0  0  0
 14 19  1  0  0  0
 15 16  1  0  0  0
 15 34  1  0  0  0
 16 17  2  0  0  0
 16 35  1  0  0  0
 17 18  1  0  0  0
 17 36  1  0  0  0
 18 19  2  0  0  0
 18 37  1  0  0  0
 19 38  1  0  0  0
 20 21  1  0  0  0
 21 22  1  0  0  0
 21 39  1  0  0  0
 21 40  1  0  0  0
 22 23  1  0  0  0
 22 41  1  0  0  0
 22 42  1  0  0  0
 23 43  1  0  0  0
 23 44  1  0  0  0
 24 45  1  0  0  0
 25 46  1  0  0  0
 25 47  1  0  0  0
 25 48  1  0  0  0
M  END
> <s_m_entry_id>
188

> <s_m_entry_name>
dock_pv.187

> <s_m_Source_Path>
/home/csk/Desktop/cluster/DUD-E-result/kif11

> <s_m_Source_File>
dock_pv.maegz

> <i_m_Source_File_Index>
187

> <chembl_id>
CHEMBL2321913

> <chembl_pref_name>
None

> <i_lp_mmshare_version>
53161

> <i_f3d_flags>
0

> <r_lp_tautomer_probability>
0.999999999997365

> <s_lp_Force_Field>
OPLS_2005

> <r_lp_Energy>
24.093949

> <b_lp_Chiralities_Consistent>
1

> <s_lp_Variant>
CHEMBL4581_lig860-1

> <s_i_glide_gridfile>
glide-grid_3cjo

> <i_i_glide_lignum>
1248

> <i_i_glide_rotatable_bonds>
7

> <r_i_docking_score>
-8.07315044739661

> <r_i_glide_ligand_efficiency>
-0.322926017895864

> <r_i_glide_ligand_efficiency_sa>
-0.94424140344482

> <r_i_glide_ligand_efficiency_ln>
-1.91357858882913

> <r_i_glide_gscore>
-8.07315044739661

> <r_i_glide_lipo>
-4.71566351002034

> <r_i_glide_hbond>
-0.361444748315467

> <r_i_glide_metal>
0

> <r_i_glide_rewards>
-1.14287039393939

> <r_i_glide_evdw>
-43.0002632141113

> <r_i_glide_ecoul>
-3.21969795227051

> <r_i_glide_erotb>
0.779796058424741

> <r_i_glide_esite>
0

> <r_i_glide_emodel>
-67.7946380631196

> <r_i_glide_energy>
-46.2199611663818

> <r_i_glide_einternal>
1.97505474090576

> <i_i_glide_confnum>
63

> <i_i_glide_posenum>
370

> <r_i_glide_eff_state_penalty>
0

> <s_user_duplicate_titles>
CHEMBL4581_lig860

> <s_m_subgroup_title>
dock_pv

> <s_m_subgroupid>
dock_pv

> <b_m_subgroup_collapsed>
1

$$$$
CHEMBL4581_lig619
                    3D
 Schrodinger Suite 2021-1.
 45 48  0  0  1  0            999 V2000
   19.7382   13.9626  108.2613 C   0  0  0  0  0  0
   19.7300   16.4093  106.9032 C   0  0  0  0  0  0
   18.7178   16.1290  107.8372 C   0  0  0  0  0  0
   18.6829   14.8631  108.4858 C   0  0  0  0  0  0
   17.5177   14.4785  109.4310 C   0  0  2  0  0  0
   16.4607   15.5198  109.4107 N   0  0  0  0  0  0
   16.9927   16.8868  109.5264 C   0  0  0  0  0  0
   17.6557   17.1740  108.1658 C   0  0  0  0  0  0
   20.7366   14.2948  107.3549 C   0  0  0  0  0  0
   20.7208   15.4712  106.6804 C   0  0  0  0  0  0
   21.7835   15.5344  105.8364 O   0  0  0  0  0  0
   22.5282   14.3640  106.0552 C   0  0  0  0  0  0
   21.8137   13.5630  106.9628 O   0  0  0  0  0  0
   17.9478   14.0958  110.8506 C   0  0  0  0  0  0
   19.0399   14.7031  111.4871 C   0  0  0  0  0  0
   19.3705   14.3624  112.7996 C   0  0  0  0  0  0
   18.6086   13.4208  113.4893 C   0  0  0  0  0  0
   17.5183   12.8211  112.8668 C   0  0  0  0  0  0
   17.2069   13.1339  111.5450 C   0  0  0  0  0  0
   16.7235   11.9620  113.5706 O   0  0  0  0  0  0
   15.1856   15.3427  108.9598 C   0  0  0  0  0  0
   14.4219   16.2922  108.7721 O   0  0  0  0  0  0
   14.5700   13.9424  108.8134 C   0  0  0  0  0  0
   14.2579   13.5746  107.3487 C   0  0  0  0  0  0
   15.4498   13.1620  106.6286 N   0  0  0  0  0  0
   19.7526   13.0075  108.7667 H   0  0  0  0  0  0
   19.7502   17.3545  106.3825 H   0  0  0  0  0  0
   17.1243   13.5573  109.0052 H   0  0  0  0  0  0
   16.2193   17.6043  109.8087 H   0  0  0  0  0  0
   17.7004   16.9762  110.3518 H   0  0  0  0  0  0
   16.8974   17.1976  107.3815 H   0  0  0  0  0  0
   18.1058   18.1664  108.1963 H   0  0  0  0  0  0
   22.6573   13.8299  105.1130 H   0  0  0  0  0  0
   23.4934   14.6297  106.4863 H   0  0  0  0  0  0
   19.6272   15.4513  110.9742 H   0  0  0  0  0  0
   20.2131   14.8329  113.2843 H   0  0  0  0  0  0
   18.8509   13.1645  114.5112 H   0  0  0  0  0  0
   16.3593   12.6559  111.0781 H   0  0  0  0  0  0
   16.0186   11.5599  113.0512 H   0  0  0  0  0  0
   15.1414   13.1618  109.3044 H   0  0  0  0  0  0
   13.6261   13.9682  109.3584 H   0  0  0  0  0  0
   13.5366   12.7568  107.3118 H   0  0  0  0  0  0
   13.7945   14.4144  106.8263 H   0  0  0  0  0  0
   16.2125   13.8140  106.7495 H   0  0  0  0  0  0
   15.7631   12.2521  106.9601 H   0  0  0  0  0  0
  1  9  1  0  0  0
  1  4  2  0  0  0
  1 26  1  0  0  0
  2  3  2  0  0  0
  2 10  1  0  0  0
  2 27  1  0  0  0
  3  4  1  0  0  0
  3  8  1  0  0  0
  4  5  1  0  0  0
  5  6  1  0  0  0
  5 14  1  0  0  0
  5 28  1  0  0  0
  6  7  1  0  0  0
  6 21  1  0  0  0
  7  8  1  0  0  0
  7 29  1  0  0  0
  7 30  1  0  0  0
  8 31  1  0  0  0
  8 32  1  0  0  0
  9 10  2  0  0  0
  9 13  1  0  0  0
 10 11  1  0  0  0
 11 12  1  0  0  0
 12 13  1  0  0  0
 12 33  1  0  0  0
 12 34  1  0  0  0
 14 15  2  0  0  0
 14 19  1  0  0  0
 15 16  1  0  0  0
 15 35  1  0  0  0
 16 17  2  0  0  0
 16 36  1  0  0  0
 17 18  1  0  0  0
 17 37  1  0  0  0
 18 19  2  0  0  0
 18 20  1  0  0  0
 19 38  1  0  0  0
 20 39  1  0  0  0
 21 22  2  0  0  0
 21 23  1  0  0  0
 23 24  1  0  0  0
 23 40  1  0  0  0
 23 41  1  0  0  0
 24 25  1  0  0  0
 24 42  1  0  0  0
 24 43  1  0  0  0
 25 44  1  0  0  0
 25 45  1  0  0  0
M  END
> <s_m_entry_id>
189

> <s_m_entry_name>
dock_pv.188

> <s_m_Source_Path>
/home/csk/Desktop/cluster/DUD-E-result/kif11

> <s_m_Source_File>
dock_pv.maegz

> <i_m_Source_File_Index>
188

> <chembl_id>
CHEMBL2347656

> <chembl_pref_name>
None

> <i_lp_mmshare_version>
53161

> <i_f3d_flags>
0

> <r_lp_tautomer_probability>
0.999999999997365

> <s_lp_Force_Field>
OPLS_2005

> <r_lp_Energy>
35.355937

> <b_lp_Chiralities_Consistent>
1

> <s_lp_Variant>
CHEMBL4581_lig619-1

> <s_i_glide_gridfile>
glide-grid_3cjo

> <i_i_glide_lignum>
953

> <i_i_glide_rotatable_bonds>
5

> <r_i_docking_score>
-8.06490269250751

> <r_i_glide_ligand_efficiency>
-0.322596107700301

> <r_i_glide_ligand_efficiency_sa>
-0.94327674018201

> <r_i_glide_ligand_efficiency_ln>
-1.91162362375514

> <r_i_glide_gscore>
-8.06490269250751

> <r_i_glide_lipo>
-3.59736630594757

> <r_i_glide_hbond>
-0.554034629583557

> <r_i_glide_metal>
0

> <r_i_glide_rewards>
-1.80016641953665

> <r_i_glide_evdw>
-37.5622367858887

> <r_i_glide_ecoul>
-4.83719539642334

> <r_i_glide_erotb>
0.490355811318199

> <r_i_glide_esite>
0

> <r_i_glide_emodel>
-58.907205207006

> <r_i_glide_energy>
-42.399432182312

> <r_i_glide_einternal>
3.85280013084412

> <i_i_glide_confnum>
3

> <i_i_glide_posenum>
139

> <r_i_glide_eff_state_penalty>
0

> <s_user_duplicate_titles>
CHEMBL4581_lig619

> <s_m_subgroup_title>
dock_pv

> <s_m_subgroupid>
dock_pv

> <b_m_subgroup_collapsed>
1

$$$$
CHEMBL4581_lig828
                    3D
 Schrodinger Suite 2021-1.
 49 51  0  0  1  0            999 V2000
   15.2671   17.8540  110.2977 C   0  0  0  0  0  0
   14.2858   17.9622  111.3592 N   0  0  0  0  0  0
   16.5589   17.2355  110.8484 C   0  0  0  0  0  0
   17.7999   16.8890  109.5696 S   0  0  0  0  0  0
   17.9279   15.0414  109.3418 C   0  0  0  0  0  0
   19.2276   14.8028  108.5083 C   0  0  0  0  0  0
   18.0585   14.3533  110.7412 C   0  0  0  0  0  0
   16.6650   14.5572  108.5482 C   0  0  0  0  0  0
   20.1384   13.7810  108.8252 C   0  0  0  0  0  0
   21.2654   13.5620  108.0395 C   0  0  0  0  0  0
   21.5180   14.3614  106.9300 C   0  0  0  0  0  0
   20.6782   15.4375  106.6288 C   0  0  0  0  0  0
   19.5246   15.6207  107.3995 C   0  0  0  0  0  0
   15.3899   14.6350  109.1338 C   0  0  0  0  0  0
   14.2505   14.2153  108.4545 C   0  0  0  0  0  0
   14.3685   13.6795  107.1773 C   0  0  0  0  0  0
   15.6179   13.5624  106.5795 C   0  0  0  0  0  0
   16.7531   13.9964  107.2574 C   0  0  0  0  0  0
   18.8873   14.9133  111.7293 C   0  0  0  0  0  0
   19.0129   14.3178  112.9808 C   0  0  0  0  0  0
   18.3198   13.1440  113.2611 C   0  0  0  0  0  0
   17.5182   12.5523  112.2901 C   0  0  0  0  0  0
   17.3898   13.1521  111.0401 C   0  0  0  0  0  0
   20.9751   16.3757  105.5059 C   0  0  0  0  0  0
   22.4040   16.4203  104.9705 C   0  0  0  0  0  0
   20.1539   17.1619  105.0359 O   0  0  0  0  0  0
   15.4702   18.8419  109.8815 H   0  0  0  0  0  0
   14.8526   17.2509  109.4903 H   0  0  0  0  0  0
   14.6676   18.5310  112.1055 H   0  0  0  0  0  0
   13.4691   18.4523  111.0211 H   0  0  0  0  0  0
   16.3500   16.3318  111.4164 H   0  0  0  0  0  0
   17.0141   17.9306  111.5546 H   0  0  0  0  0  0
   19.9719   13.1158  109.6593 H   0  0  0  0  0  0
   21.9469   12.7621  108.2810 H   0  0  0  0  0  0
   22.4002   14.1538  106.3413 H   0  0  0  0  0  0
   18.8453   16.4197  107.1357 H   0  0  0  0  0  0
   15.2658   15.0103  110.1349 H   0  0  0  0  0  0
   13.2805   14.2909  108.9235 H   0  0  0  0  0  0
   13.4879   13.3389  106.6524 H   0  0  0  0  0  0
   15.7107   13.1281  105.5948 H   0  0  0  0  0  0
   17.6962   13.8652  106.7497 H   0  0  0  0  0  0
   19.4448   15.8171  111.5289 H   0  0  0  0  0  0
   19.6496   14.7625  113.7319 H   0  0  0  0  0  0
   18.4164   12.6811  114.2335 H   0  0  0  0  0  0
   16.9911   11.6322  112.5036 H   0  0  0  0  0  0
   16.7762   12.6539  110.3040 H   0  0  0  0  0  0
   23.1113   16.4797  105.7972 H   0  0  0  0  0  0
   22.6243   15.5207  104.3965 H   0  0  0  0  0  0
   22.5503   17.2964  104.3392 H   0  0  0  0  0  0
  1  3  1  0  0  0
  1  2  1  0  0  0
  1 27  1  0  0  0
  1 28  1  0  0  0
  2 29  1  0  0  0
  2 30  1  0  0  0
  3  4  1  0  0  0
  3 31  1  0  0  0
  3 32  1  0  0  0
  4  5  1  0  0  0
  5  7  1  0  0  0
  5  8  1  0  0  0
  5  6  1  0  0  0
  6 13  1  0  0  0
  6  9  2  0  0  0
  7 19  2  0  0  0
  7 23  1  0  0  0
  8 14  2  0  0  0
  8 18  1  0  0  0
  9 10  1  0  0  0
  9 33  1  0  0  0
 10 11  2  0  0  0
 10 34  1  0  0  0
 11 12  1  0  0  0
 11 35  1  0  0  0
 12 24  1  0  0  0
 12 13  2  0  0  0
 13 36  1  0  0  0
 14 15  1  0  0  0
 14 37  1  0  0  0
 15 16  2  0  0  0
 15 38  1  0  0  0
 16 17  1  0  0  0
 16 39  1  0  0  0
 17 18  2  0  0  0
 17 40  1  0  0  0
 18 41  1  0  0  0
 19 20  1  0  0  0
 19 42  1  0  0  0
 20 21  2  0  0  0
 20 43  1  0  0  0
 21 22  1  0  0  0
 21 44  1  0  0  0
 22 23  2  0  0  0
 22 45  1  0  0  0
 23 46  1  0  0  0
 24 25  1  0  0  0
 24 26  2  0  0  0
 25 47  1  0  0  0
 25 48  1  0  0  0
 25 49  1  0  0  0
M  END
> <s_m_entry_id>
190

> <s_m_entry_name>
dock_pv.189

> <s_m_Source_Path>
/home/csk/Desktop/cluster/DUD-E-result/kif11

> <s_m_Source_File>
dock_pv.maegz

> <i_m_Source_File_Index>
189

> <chembl_id>
CHEMBL2022990

> <chembl_pref_name>
None

> <i_lp_mmshare_version>
53161

> <i_f3d_flags>
0

> <r_lp_tautomer_probability>
0.99995

> <s_lp_Force_Field>
OPLS_2005

> <r_lp_Energy>
32.815807

> <b_lp_Chiralities_Consistent>
1

> <s_lp_Variant>
CHEMBL4581_lig828-1

> <s_i_glide_gridfile>
glide-grid_3cjo

> <i_i_glide_lignum>
1215

> <i_i_glide_rotatable_bonds>
7

> <r_i_docking_score>
-8.06429223369719

> <r_i_glide_ligand_efficiency>
-0.31016508591143

> <r_i_glide_ligand_efficiency_sa>
-0.918862846571933

> <r_i_glide_ligand_efficiency_ln>
-1.8938725699827

> <r_i_glide_gscore>
-8.06429223369719

> <r_i_glide_lipo>
-4.61994302100396

> <r_i_glide_hbond>
-0.299296837881326

> <r_i_glide_metal>
0

> <r_i_glide_rewards>
-1.47324362458634

> <r_i_glide_evdw>
-44.089298248291

> <r_i_glide_ecoul>
-1.34407579898834

> <r_i_glide_erotb>
0.734267532037238

> <r_i_glide_esite>
0

> <r_i_glide_emodel>
-58.7759319752009

> <r_i_glide_energy>
-45.4333740472794

> <r_i_glide_einternal>
15.4891157150269

> <i_i_glide_confnum>
120

> <i_i_glide_posenum>
69

> <r_i_glide_eff_state_penalty>
0

> <s_user_duplicate_titles>
CHEMBL4581_lig828

> <s_m_subgroup_title>
dock_pv

> <s_m_subgroupid>
dock_pv

> <b_m_subgroup_collapsed>
1

$$$$
CHEMBL4581_lig30
                    3D
 Schrodinger Suite 2021-1.
 37 39  0  0  1  0            999 V2000
   18.7172   14.2138  109.9656 N   0  0  0  0  0  0
   19.8924   14.2823  109.2871 N   0  0  0  0  0  0
   19.6868   14.6685  108.0947 C   0  0  0  0  0  0
   17.5944   14.7284  109.1656 C   0  0  2  0  0  0
   18.2274   14.8571  107.7878 C   0  0  0  0  0  0
   20.7181   14.8930  107.0814 C   0  0  0  0  0  0
   18.6714   13.9598  111.2966 C   0  0  0  0  0  0
   17.0578   16.0633  109.7109 C   0  0  0  0  0  0
   21.7536   13.9615  106.8754 C   0  0  0  0  0  0
   20.6849   16.0649  106.3071 C   0  0  0  0  0  0
   15.6904   16.2235  109.9604 C   0  0  0  0  0  0
   19.5183   14.3550  112.0988 O   0  0  0  0  0  0
   22.7297   14.2233  105.9192 C   0  0  0  0  0  0
   21.6854   16.3194  105.3668 C   0  0  0  0  0  0
   15.2034   17.4296  110.4662 C   0  0  0  0  0  0
   21.8599   12.8282  107.6100 F   0  0  0  0  0  0
   22.7114   15.3972  105.1789 C   0  0  0  0  0  0
   21.6557   17.4516  104.6318 F   0  0  0  0  0  0
   13.8678   17.5707  110.7240 O   0  0  0  0  0  0
   17.9273   17.1345  109.9652 C   0  0  0  0  0  0
   17.5179   13.1085  111.8146 C   0  0  0  0  0  0
   17.4370   18.3419  110.4619 C   0  0  0  0  0  0
   16.0745   18.4904  110.7111 C   0  0  0  0  0  0
   16.7846   13.9958  109.1524 H   0  0  0  0  0  0
   17.8922   14.0695  107.1096 H   0  0  0  0  0  0
   18.0226   15.8277  107.3366 H   0  0  0  0  0  0
   19.9133   16.8077  106.4466 H   0  0  0  0  0  0
   15.0008   15.4138  109.7685 H   0  0  0  0  0  0
   23.5179   13.5163  105.7555 H   0  0  0  0  0  0
   23.4744   15.5616  104.4411 H   0  0  0  0  0  0
   13.6535   18.4497  111.0475 H   0  0  0  0  0  0
   18.9882   17.0359  109.7805 H   0  0  0  0  0  0
   16.5712   13.3937  111.3583 H   0  0  0  0  0  0
   17.7006   12.0560  111.5937 H   0  0  0  0  0  0
   17.4200   13.2174  112.8951 H   0  0  0  0  0  0
   18.1187   19.1555  110.6591 H   0  0  0  0  0  0
   15.7047   19.4287  111.1041 H   0  0  0  0  0  0
  1  2  1  0  0  0
  1  4  1  0  0  0
  1  7  1  0  0  0
  2  3  2  0  0  0
  3  6  1  0  0  0
  3  5  1  0  0  0
  4  5  1  0  0  0
  4  8  1  0  0  0
  4 24  1  0  0  0
  5 25  1  0  0  0
  5 26  1  0  0  0
  6  9  2  0  0  0
  6 10  1  0  0  0
  7 12  2  0  0  0
  7 21  1  0  0  0
  8 11  1  0  0  0
  8 20  2  0  0  0
  9 13  1  0  0  0
  9 16  1  0  0  0
 10 14  2  0  0  0
 10 27  1  0  0  0
 11 15  2  0  0  0
 11 28  1  0  0  0
 13 17  2  0  0  0
 13 29  1  0  0  0
 14 17  1  0  0  0
 14 18  1  0  0  0
 15 19  1  0  0  0
 15 23  1  0  0  0
 17 30  1  0  0  0
 19 31  1  0  0  0
 20 22  1  0  0  0
 20 32  1  0  0  0
 21 33  1  0  0  0
 21 34  1  0  0  0
 21 35  1  0  0  0
 22 23  2  0  0  0
 22 36  1  0  0  0
 23 37  1  0  0  0
M  END
> <s_m_entry_id>
191

> <s_m_entry_name>
dock_pv.190

> <s_m_Source_Path>
/home/csk/Desktop/cluster/DUD-E-result/kif11

> <s_m_Source_File>
dock_pv.maegz

> <i_m_Source_File_Index>
190

> <chembl_id>
CHEMBL196329

> <chembl_pref_name>
None

> <i_lp_mmshare_version>
53161

> <i_f3d_flags>
0

> <r_lp_tautomer_probability>
0.999999999997365

> <s_lp_Force_Field>
OPLS_2005

> <r_lp_Energy>
21.834265

> <b_lp_Chiralities_Consistent>
1

> <s_lp_Variant>
CHEMBL4581_lig30-1

> <s_i_glide_gridfile>
glide-grid_3cjo

> <i_i_glide_lignum>
46

> <i_i_glide_rotatable_bonds>
4

> <r_i_docking_score>
-8.06297685955908

> <r_i_glide_ligand_efficiency>
-0.350564211285178

> <r_i_glide_ligand_efficiency_sa>
-0.996957983749639

> <r_i_glide_ligand_efficiency_ln>
-1.94970091567339

> <r_i_glide_gscore>
-8.06297685955908

> <r_i_glide_lipo>
-3.13325234347541

> <r_i_glide_hbond>
0

> <r_i_glide_metal>
0

> <r_i_glide_rewards>
-3.03115767206218

> <r_i_glide_evdw>
-38.1135330200195

> <r_i_glide_ecoul>
-2.43341541290283

> <r_i_glide_erotb>
0.372122118914912

> <r_i_glide_esite>
0

> <r_i_glide_emodel>
-59.0339846927992

> <r_i_glide_energy>
-40.5469484329224

> <r_i_glide_einternal>
3.2617826461792

> <i_i_glide_confnum>
1

> <i_i_glide_posenum>
277

> <r_i_glide_eff_state_penalty>
0

> <s_user_duplicate_titles>
CHEMBL4581_lig30

> <s_m_subgroup_title>
dock_pv

> <s_m_subgroupid>
dock_pv

> <b_m_subgroup_collapsed>
1

$$$$
CHEMBL4581_lig883
                    3D
 Schrodinger Suite 2021-1.
 54 57  0  0  1  0            999 V2000
   17.8112   15.0569  109.4011 C   0  0  0  0  0  0
   17.9611   14.3626  110.7956 C   0  0  0  0  0  0
   19.1167   14.8312  108.5698 C   0  0  0  0  0  0
   17.3454   13.1293  111.0818 C   0  0  0  0  0  0
   17.5171   12.5108  112.3180 C   0  0  0  0  0  0
   18.3180   13.1119  113.2847 C   0  0  0  0  0  0
   18.9555   14.3180  113.0184 C   0  0  0  0  0  0
   18.7822   14.9356  111.7823 C   0  0  0  0  0  0
   19.9933   13.7655  108.8236 C   0  0  0  0  0  0
   21.1184   13.5620  108.0288 C   0  0  0  0  0  0
   19.4578   15.7029  107.5223 C   0  0  0  0  0  0
   16.5590   14.5620  108.5969 C   0  0  0  0  0  0
   16.6400   14.1424  107.2535 C   0  0  0  0  0  0
   15.5140   13.7001  106.5661 C   0  0  0  0  0  0
   14.2817   13.6686  107.2052 C   0  0  0  0  0  0
   14.1716   14.0633  108.5348 C   0  0  0  0  0  0
   15.3040   14.4872  109.2224 C   0  0  0  0  0  0
   17.6446   16.9041  109.6449 S   0  0  0  0  0  0
   16.1472   17.2610  110.6185 C   0  0  0  0  0  0
   15.9434   18.7468  110.9589 C   0  0  0  0  0  0
   15.6860   19.5240  109.7580 N   0  0  0  0  0  0
   20.5943   15.5311  106.7336 C   0  0  0  0  0  0
   21.4166   14.4078  106.9589 C   0  0  0  0  0  0
   22.7062   14.1933  106.1725 C   0  0  0  0  0  0
   22.8849   15.1516  104.9894 C   0  0  0  0  0  0
   22.4236   16.5769  105.3222 C   0  0  0  0  0  0
   20.9271   16.5669  105.6616 C   0  0  0  0  0  0
   16.7521   12.6102  110.3418 H   0  0  0  0  0  0
   17.0329   11.5661  112.5197 H   0  0  0  0  0  0
   18.4514   12.6330  114.2438 H   0  0  0  0  0  0
   19.5948   14.7657  113.7642 H   0  0  0  0  0  0
   19.3053   15.8624  111.5928 H   0  0  0  0  0  0
   19.7982   13.0553  109.6130 H   0  0  0  0  0  0
   21.7712   12.7304  108.2410 H   0  0  0  0  0  0
   18.8200   16.5417  107.2912 H   0  0  0  0  0  0
   17.5708   14.1310  106.7090 H   0  0  0  0  0  0
   15.6024   13.3787  105.5376 H   0  0  0  0  0  0
   13.4077   13.3246  106.6729 H   0  0  0  0  0  0
   13.2158   14.0260  109.0331 H   0  0  0  0  0  0
   15.1984   14.7534  110.2614 H   0  0  0  0  0  0
   15.2716   16.9291  110.0667 H   0  0  0  0  0  0
   16.1894   16.6793  111.5377 H   0  0  0  0  0  0
   15.0903   18.8590  111.6286 H   0  0  0  0  0  0
   16.8129   19.1543  111.4798 H   0  0  0  0  0  0
   15.6217   20.5073  109.9871 H   0  0  0  0  0  0
   16.4715   19.4270  109.1303 H   0  0  0  0  0  0
   23.5288   14.3620  106.8604 H   0  0  0  0  0  0
   22.7764   13.1597  105.8316 H   0  0  0  0  0  0
   23.9180   15.1458  104.6568 H   0  0  0  0  0  0
   22.3166   14.7654  104.1552 H   0  0  0  0  0  0
   23.0033   16.9705  106.1587 H   0  0  0  0  0  0
   22.6089   17.2450  104.4807 H   0  0  0  0  0  0
   20.3437   16.3618  104.7660 H   0  0  0  0  0  0
   20.6226   17.5603  105.9914 H   0  0  0  0  0  0
  1  2  1  0  0  0
  1  3  1  0  0  0
  1 12  1  0  0  0
  1 18  1  0  0  0
  2  4  2  0  0  0
  2  8  1  0  0  0
  3  9  2  0  0  0
  3 11  1  0  0  0
  4  5  1  0  0  0
  4 28  1  0  0  0
  5  6  2  0  0  0
  5 29  1  0  0  0
  6  7  1  0  0  0
  6 30  1  0  0  0
  7  8  2  0  0  0
  7 31  1  0  0  0
  8 32  1  0  0  0
  9 10  1  0  0  0
  9 33  1  0  0  0
 10 23  2  0  0  0
 10 34  1  0  0  0
 11 22  2  0  0  0
 11 35  1  0  0  0
 12 13  2  0  0  0
 12 17  1  0  0  0
 13 14  1  0  0  0
 13 36  1  0  0  0
 14 15  2  0  0  0
 14 37  1  0  0  0
 15 16  1  0  0  0
 15 38  1  0  0  0
 16 17  2  0  0  0
 16 39  1  0  0  0
 17 40  1  0  0  0
 18 19  1  0  0  0
 19 20  1  0  0  0
 19 41  1  0  0  0
 19 42  1  0  0  0
 20 21  1  0  0  0
 20 43  1  0  0  0
 20 44  1  0  0  0
 21 45  1  0  0  0
 21 46  1  0  0  0
 22 23  1  0  0  0
 22 27  1  0  0  0
 23 24  1  0  0  0
 24 25  1  0  0  0
 24 47  1  0  0  0
 24 48  1  0  0  0
 25 26  1  0  0  0
 25 49  1  0  0  0
 25 50  1  0  0  0
 26 27  1  0  0  0
 26 51  1  0  0  0
 26 52  1  0  0  0
 27 53  1  0  0  0
 27 54  1  0  0  0
M  END
> <s_m_entry_id>
192

> <s_m_entry_name>
dock_pv.191

> <s_m_Source_Path>
/home/csk/Desktop/cluster/DUD-E-result/kif11

> <s_m_Source_File>
dock_pv.maegz

> <i_m_Source_File_Index>
191

> <chembl_id>
CHEMBL2325415

> <chembl_pref_name>
None

> <i_lp_mmshare_version>
53161

> <i_f3d_flags>
0

> <r_lp_tautomer_probability>
1

> <s_lp_Force_Field>
OPLS_2005

> <r_lp_Energy>
29.470337

> <b_lp_Chiralities_Consistent>
1

> <s_lp_Variant>
CHEMBL4581_lig883-1

> <s_i_glide_gridfile>
glide-grid_3cjo

> <i_i_glide_lignum>
1275

> <i_i_glide_rotatable_bonds>
6

> <r_i_docking_score>
-8.05347206075654

> <r_i_glide_ligand_efficiency>
-0.298276742990983

> <r_i_glide_ligand_efficiency_sa>
-0.894830227989877

> <r_i_glide_ligand_efficiency_ln>
-1.87471552388052

> <r_i_glide_gscore>
-8.05347206075654

> <r_i_glide_lipo>
-5.54268179999863

> <r_i_glide_hbond>
0

> <r_i_glide_metal>
0

> <r_i_glide_rewards>
-0.945461196969696

> <r_i_glide_evdw>
-44.8701210021973

> <r_i_glide_ecoul>
-0.0954038873314857

> <r_i_glide_erotb>
0.69248756942138

> <r_i_glide_esite>
0

> <r_i_glide_emodel>
-62.7571789790888

> <r_i_glide_energy>
-44.9655248895288

> <r_i_glide_einternal>
6.21692514419556

> <i_i_glide_confnum>
117

> <i_i_glide_posenum>
230

> <r_i_glide_eff_state_penalty>
0

> <s_user_duplicate_titles>
CHEMBL4581_lig883

> <s_m_subgroup_title>
dock_pv

> <s_m_subgroupid>
dock_pv

> <b_m_subgroup_collapsed>
1

$$$$
CHEMBL4581_lig806
                    3D
 Schrodinger Suite 2021-1.
 50 52  0  0  1  0            999 V2000
   17.7043   14.7048  108.4379 C   0  0  0  0  0  0
   16.9000   13.4912  107.2856 S   0  0  0  0  0  0
   19.1087   14.8854  107.7926 C   0  0  0  0  0  0
   17.7990   14.1190  109.8767 C   0  0  0  0  0  0
   16.8389   15.9914  108.5918 C   0  0  0  0  0  0
   17.0384   13.0156  110.2949 C   0  0  0  0  0  0
   17.1139   12.5556  111.6006 C   0  0  0  0  0  0
   17.9326   13.1984  112.5263 C   0  0  0  0  0  0
   18.7265   14.2744  112.1204 C   0  0  0  0  0  0
   18.6585   14.7263  110.8067 C   0  0  0  0  0  0
   19.3615   15.8935  106.8484 C   0  0  0  0  0  0
   20.5639   15.9290  106.1513 C   0  0  0  0  0  0
   21.5179   14.9430  106.3775 C   0  0  0  0  0  0
   21.3112   13.9620  107.3440 C   0  0  0  0  0  0
   20.1298   13.9625  108.0774 C   0  0  0  0  0  0
   15.4356   15.9311  108.5111 C   0  0  0  0  0  0
   14.6580   17.0717  108.6849 C   0  0  0  0  0  0
   15.2728   18.2883  108.9594 C   0  0  0  0  0  0
   16.6572   18.3698  109.0635 C   0  0  0  0  0  0
   17.4357   17.2307  108.8798 C   0  0  0  0  0  0
   16.6527   14.3461  105.6923 C   0  0  0  0  0  0
   15.9472   13.4107  104.6822 C   0  0  2  0  0  0
   15.8992   14.0309  103.2590 C   0  0  0  0  0  0
   17.1180   13.9620  102.6456 O   0  0  0  0  0  0
   14.8873   14.5108  102.7479 O   0  0  0  0  0  0
   14.5838   13.0428  105.1222 N   0  0  0  0  0  0
   17.9066   12.7588  113.9567 C   0  0  0  0  0  0
   16.8863   12.3631  114.5128 O   0  0  0  0  0  0
   19.1180   12.7620  114.5590 O   0  0  0  0  0  0
   16.3579   12.5013  109.6341 H   0  0  0  0  0  0
   16.4920   11.7197  111.8939 H   0  0  0  0  0  0
   19.3757   14.7837  112.8196 H   0  0  0  0  0  0
   19.2626   15.5735  110.5157 H   0  0  0  0  0  0
   18.6036   16.6189  106.5976 H   0  0  0  0  0  0
   20.7386   16.6932  105.4082 H   0  0  0  0  0  0
   22.4364   14.9471  105.8091 H   0  0  0  0  0  0
   22.0635   13.2074  107.5221 H   0  0  0  0  0  0
   19.9733   13.1687  108.7938 H   0  0  0  0  0  0
   14.9270   14.9967  108.3243 H   0  0  0  0  0  0
   13.5809   17.0107  108.6161 H   0  0  0  0  0  0
   14.6718   19.1745  109.1035 H   0  0  0  0  0  0
   17.1177   19.3171  109.2940 H   0  0  0  0  0  0
   18.5077   17.3188  108.9836 H   0  0  0  0  0  0
   16.0745   15.2573  105.8481 H   0  0  0  0  0  0
   17.6264   14.6437  105.3082 H   0  0  0  0  0  0
   16.5420   12.4983  104.6046 H   0  0  0  0  0  0
   17.7909   13.5619  103.2275 H   0  0  0  0  0  0
   14.1613   12.3640  104.5057 H   0  0  0  0  0  0
   14.6222   12.6144  106.0387 H   0  0  0  0  0  0
   19.0307   12.4436  115.4703 H   0  0  0  0  0  0
  1  4  1  0  0  0
  1  5  1  0  0  0
  1  3  1  0  0  0
  1  2  1  0  0  0
  2 21  1  0  0  0
  3 15  1  0  0  0
  3 11  2  0  0  0
  4 10  1  0  0  0
  4  6  2  0  0  0
  5 16  2  0  0  0
  5 20  1  0  0  0
  6  7  1  0  0  0
  6 30  1  0  0  0
  7  8  2  0  0  0
  7 31  1  0  0  0
  8  9  1  0  0  0
  8 27  1  0  0  0
  9 10  2  0  0  0
  9 32  1  0  0  0
 10 33  1  0  0  0
 11 12  1  0  0  0
 11 34  1  0  0  0
 12 13  2  0  0  0
 12 35  1  0  0  0
 13 14  1  0  0  0
 13 36  1  0  0  0
 14 15  2  0  0  0
 14 37  1  0  0  0
 15 38  1  0  0  0
 16 17  1  0  0  0
 16 39  1  0  0  0
 17 18  2  0  0  0
 17 40  1  0  0  0
 18 19  1  0  0  0
 18 41  1  0  0  0
 19 20  2  0  0  0
 19 42  1  0  0  0
 20 43  1  0  0  0
 21 22  1  0  0  0
 21 44  1  0  0  0
 21 45  1  0  0  0
 22 23  1  0  0  0
 22 26  1  0  0  0
 22 46  1  0  0  0
 23 24  1  0  0  0
 23 25  2  0  0  0
 24 47  1  0  0  0
 26 48  1  0  0  0
 26 49  1  0  0  0
 27 28  2  0  0  0
 27 29  1  0  0  0
 29 50  1  0  0  0
M  END
> <s_m_entry_id>
193

> <s_m_entry_name>
dock_pv.192

> <s_m_Source_Path>
/home/csk/Desktop/cluster/DUD-E-result/kif11

> <s_m_Source_File>
dock_pv.maegz

> <i_m_Source_File_Index>
192

> <chembl_id>
CHEMBL1688929

> <chembl_pref_name>
None

> <i_lp_mmshare_version>
53161

> <i_f3d_flags>
0

> <r_lp_tautomer_probability>
1

> <s_lp_Force_Field>
OPLS_2005

> <r_lp_Energy>
23.89142

> <b_lp_Chiralities_Consistent>
1

> <s_lp_Variant>
CHEMBL4581_lig806-1

> <s_i_glide_gridfile>
glide-grid_3cjo

> <i_i_glide_lignum>
1191

> <i_i_glide_rotatable_bonds>
10

> <r_i_docking_score>
-8.05005080462261

> <r_i_glide_ligand_efficiency>
-0.27758795878009

> <r_i_glide_ligand_efficiency_sa>
-0.852838155410607

> <r_i_glide_ligand_efficiency_ln>
-1.84325750258313

> <r_i_glide_gscore>
-8.05005080462261

> <r_i_glide_lipo>
-3.91185562150669

> <r_i_glide_hbond>
0

> <r_i_glide_metal>
0

> <r_i_glide_rewards>
-1.08079677272727

> <r_i_glide_evdw>
-42.1101036071777

> <r_i_glide_ecoul>
-12.50696849823

> <r_i_glide_erotb>
0.947817687421225

> <r_i_glide_esite>
-0.0236656427164829

> <r_i_glide_emodel>
-78.026020965216

> <r_i_glide_energy>
-54.6170721054077

> <r_i_glide_einternal>
7.01853179931641

> <i_i_glide_confnum>
137

> <i_i_glide_posenum>
142

> <r_i_glide_eff_state_penalty>
0

> <s_user_duplicate_titles>
CHEMBL4581_lig806

> <s_m_subgroup_title>
dock_pv

> <s_m_subgroupid>
dock_pv

> <b_m_subgroup_collapsed>
1

$$$$
CHEMBL4581_lig757
                    3D
 Schrodinger Suite 2021-1.
 52 54  0  0  1  0            999 V2000
   16.0405   13.1300  105.4123 C   0  0  2  0  0  0
   14.6991   12.6275  105.7620 N   0  0  0  0  0  0
   16.9438   13.3016  106.6625 C   0  0  0  0  0  0
   16.5300   14.4287  107.6560 C   0  0  0  0  0  0
   17.6123   14.9798  108.6703 C   0  0  0  0  0  0
   17.8149   14.1055  109.9456 C   0  0  0  0  0  0
   18.9240   15.1517  107.8424 C   0  0  0  0  0  0
   17.0950   16.3297  109.2577 C   0  0  0  0  0  0
   18.7304   14.5464  110.9190 C   0  0  0  0  0  0
   18.7840   13.9618  112.1746 C   0  0  0  0  0  0
   17.9479   12.8926  112.4681 C   0  0  0  0  0  0
   17.1145   12.3651  111.4821 C   0  0  0  0  0  0
   17.0438   12.9678  110.2271 C   0  0  0  0  0  0
   17.9987   17.3476  109.5929 C   0  0  0  0  0  0
   17.5721   18.4813  110.2636 C   0  0  0  0  0  0
   16.2254   18.6507  110.5631 C   0  0  0  0  0  0
   15.3012   17.6753  110.2077 C   0  0  0  0  0  0
   15.7348   16.5176  109.5677 C   0  0  0  0  0  0
   20.0238   14.2947  108.0017 C   0  0  0  0  0  0
   21.1182   14.3751  107.1459 C   0  0  0  0  0  0
   21.1532   15.3558  106.1593 C   0  0  0  0  0  0
   20.0876   16.2355  106.0013 C   0  0  0  0  0  0
   18.9744   16.1159  106.8265 C   0  0  0  0  0  0
   15.9211   14.4263  104.5559 C   0  0  0  0  0  0
   14.8888   15.0890  104.4507 O   0  0  0  0  0  0
   17.1184   14.7619  103.9895 O   0  0  0  0  0  0
   17.9236   12.3471  113.8785 C   0  0  0  0  0  0
   16.5145   12.3842  104.7719 H   0  0  0  0  0  0
   14.7925   11.7569  106.2753 H   0  0  0  0  0  0
   14.2453   13.2635  106.4006 H   0  0  0  0  0  0
   17.9497   13.4597  106.2826 H   0  0  0  0  0  0
   17.0090   12.3608  107.2048 H   0  0  0  0  0  0
   15.6283   14.1027  108.1711 H   0  0  0  0  0  0
   16.1973   15.2823  107.0653 H   0  0  0  0  0  0
   19.3675   15.3970  110.7310 H   0  0  0  0  0  0
   19.4515   14.3624  112.9237 H   0  0  0  0  0  0
   16.4734   11.5250  111.7015 H   0  0  0  0  0  0
   16.3456   12.5610  109.5127 H   0  0  0  0  0  0
   19.0546   17.2484  109.3904 H   0  0  0  0  0  0
   18.3044   19.2130  110.5606 H   0  0  0  0  0  0
   15.9004   19.5385  111.0864 H   0  0  0  0  0  0
   14.2568   17.8061  110.4501 H   0  0  0  0  0  0
   14.9975   15.7604  109.3561 H   0  0  0  0  0  0
   20.0186   13.5102  108.7430 H   0  0  0  0  0  0
   21.9423   13.6852  107.2539 H   0  0  0  0  0  0
   22.0092   15.4261  105.5041 H   0  0  0  0  0  0
   20.1122   16.9901  105.2287 H   0  0  0  0  0  0
   18.1256   16.7602  106.6635 H   0  0  0  0  0  0
   17.7921   14.0827  104.1591 H   0  0  0  0  0  0
   18.7361   11.6360  114.0180 H   0  0  0  0  0  0
   18.0476   13.1505  114.6057 H   0  0  0  0  0  0
   16.9648   11.8767  114.1003 H   0  0  0  0  0  0
  1  3  1  0  0  0
  1 24  1  0  0  0
  1  2  1  0  0  0
  1 28  1  0  0  0
  2 29  1  0  0  0
  2 30  1  0  0  0
  3  4  1  0  0  0
  3 31  1  0  0  0
  3 32  1  0  0  0
  4  5  1  0  0  0
  4 33  1  0  0  0
  4 34  1  0  0  0
  5  7  1  0  0  0
  5  8  1  0  0  0
  5  6  1  0  0  0
  6  9  2  0  0  0
  6 13  1  0  0  0
  7 19  2  0  0  0
  7 23  1  0  0  0
  8 14  2  0  0  0
  8 18  1  0  0  0
  9 10  1  0  0  0
  9 35  1  0  0  0
 10 11  2  0  0  0
 10 36  1  0  0  0
 11 12  1  0  0  0
 11 27  1  0  0  0
 12 13  2  0  0  0
 12 37  1  0  0  0
 13 38  1  0  0  0
 14 15  1  0  0  0
 14 39  1  0  0  0
 15 16  2  0  0  0
 15 40  1  0  0  0
 16 17  1  0  0  0
 16 41  1  0  0  0
 17 18  2  0  0  0
 17 42  1  0  0  0
 18 43  1  0  0  0
 19 20  1  0  0  0
 19 44  1  0  0  0
 20 21  2  0  0  0
 20 45  1  0  0  0
 21 22  1  0  0  0
 21 46  1  0  0  0
 22 23  2  0  0  0
 22 47  1  0  0  0
 23 48  1  0  0  0
 24 25  2  0  0  0
 24 26  1  0  0  0
 26 49  1  0  0  0
 27 50  1  0  0  0
 27 51  1  0  0  0
 27 52  1  0  0  0
M  END
> <s_m_entry_id>
194

> <s_m_entry_name>
dock_pv.193

> <s_m_Source_Path>
/home/csk/Desktop/cluster/DUD-E-result/kif11

> <s_m_Source_File>
dock_pv.maegz

> <i_m_Source_File_Index>
193

> <chembl_id>
CHEMBL2022999

> <chembl_pref_name>
None

> <i_lp_mmshare_version>
53161

> <i_f3d_flags>
0

> <r_lp_tautomer_probability>
1

> <s_lp_Force_Field>
OPLS_2005

> <r_lp_Energy>
32.74891

> <b_lp_Chiralities_Consistent>
1

> <s_lp_Variant>
CHEMBL4581_lig757-1

> <s_i_glide_gridfile>
glide-grid_3cjo

> <i_i_glide_lignum>
1119

> <i_i_glide_rotatable_bonds>
8

> <r_i_docking_score>
-8.04899694268244

> <r_i_glide_ligand_efficiency>
-0.298110997877128

> <r_i_glide_ligand_efficiency_sa>
-0.894332992648857

> <r_i_glide_ligand_efficiency_ln>
-1.87367379017095

> <r_i_glide_gscore>
-8.04899694268244

> <r_i_glide_lipo>
-4.55133868437974

> <r_i_glide_hbond>
-0.304

> <r_i_glide_metal>
0

> <r_i_glide_rewards>
-0.999888484848484

> <r_i_glide_evdw>
-39.7338333129883

> <r_i_glide_ecoul>
-8.18454265594482

> <r_i_glide_erotb>
1.03839867053893

> <r_i_glide_esite>
-0.0177953799520084

> <r_i_glide_emodel>
-67.0882345433384

> <r_i_glide_energy>
-47.9183759689331

> <r_i_glide_einternal>
8.49158382415771

> <i_i_glide_confnum>
78

> <i_i_glide_posenum>
356

> <r_i_glide_eff_state_penalty>
0

> <s_user_duplicate_titles>
CHEMBL4581_lig757,CHEMBL4581_lig837

> <s_m_subgroup_title>
dock_pv

> <s_m_subgroupid>
dock_pv

> <b_m_subgroup_collapsed>
1

$$$$
CHEMBL4581_lig885
                    3D
 Schrodinger Suite 2021-1.
 46 48  0  0  1  0            999 V2000
   17.6157   14.5492  109.7478 C   0  0  0  0  0  0
   17.0147   15.9746  110.0067 C   0  0  0  0  0  0
   18.9078   14.5799  108.8717 C   0  0  0  0  0  0
   15.6274   16.2004  110.0492 C   0  0  0  0  0  0
   15.1103   17.4686  110.3060 C   0  0  0  0  0  0
   15.9742   18.5334  110.5317 C   0  0  0  0  0  0
   17.3505   18.3405  110.4943 C   0  0  0  0  0  0
   17.8621   17.0743  110.2355 C   0  0  0  0  0  0
   19.8976   13.5912  109.0071 C   0  0  0  0  0  0
   21.0039   13.5622  108.1586 C   0  0  0  0  0  0
   21.1180   14.4860  107.1219 C   0  0  0  0  0  0
   20.1740   15.5066  106.9953 C   0  0  0  0  0  0
   19.0938   15.5566  107.8771 C   0  0  0  0  0  0
   17.9221   13.9572  111.1660 C   0  0  0  0  0  0
   18.8823   14.5779  111.9853 C   0  0  0  0  0  0
   19.1362   14.1207  113.2739 C   0  0  0  0  0  0
   18.4494   13.0159  113.7601 C   0  0  0  0  0  0
   17.5184   12.3620  112.9650 C   0  0  0  0  0  0
   17.2656   12.8187  111.6762 C   0  0  0  0  0  0
   16.5995   13.6178  108.9707 C   0  0  0  0  0  0
   16.0845   14.0126  107.5591 C   0  0  0  0  0  0
   17.0311   13.6444  106.4000 C   0  0  0  0  0  0
   16.3135   13.3884  105.1732 N   0  0  0  0  0  0
   20.2981   16.7070  105.7575 Cl  0  0  0  0  0  0
   22.4650   14.3613  106.0421 Cl  0  0  0  0  0  0
   14.9184   15.4052  109.8886 H   0  0  0  0  0  0
   14.0410   17.6237  110.3343 H   0  0  0  0  0  0
   15.5769   19.5168  110.7402 H   0  0  0  0  0  0
   18.0284   19.1615  110.6724 H   0  0  0  0  0  0
   18.9363   16.9642  110.2145 H   0  0  0  0  0  0
   19.8031   12.8155  109.7530 H   0  0  0  0  0  0
   21.7441   12.7820  108.2640 H   0  0  0  0  0  0
   18.3529   16.3286  107.7280 H   0  0  0  0  0  0
   19.4430   15.4286  111.6333 H   0  0  0  0  0  0
   19.8714   14.6172  113.8917 H   0  0  0  0  0  0
   18.6422   12.6597  114.7634 H   0  0  0  0  0  0
   16.9780   11.5098  113.3529 H   0  0  0  0  0  0
   16.5296   12.2669  111.1133 H   0  0  0  0  0  0
   17.0252   12.6141  108.8913 H   0  0  0  0  0  0
   15.7092   13.4712  109.5800 H   0  0  0  0  0  0
   15.1440   13.4733  107.4148 H   0  0  0  0  0  0
   15.8203   15.0695  107.5055 H   0  0  0  0  0  0
   17.7336   14.4433  106.1824 H   0  0  0  0  0  0
   17.6156   12.7620  106.6462 H   0  0  0  0  0  0
   17.0210   13.1618  104.4786 H   0  0  0  0  0  0
   15.7606   12.5518  105.2914 H   0  0  0  0  0  0
  1  2  1  0  0  0
  1  3  1  0  0  0
  1 14  1  0  0  0
  1 20  1  0  0  0
  2  4  2  0  0  0
  2  8  1  0  0  0
  3  9  2  0  0  0
  3 13  1  0  0  0
  4  5  1  0  0  0
  4 26  1  0  0  0
  5  6  2  0  0  0
  5 27  1  0  0  0
  6  7  1  0  0  0
  6 28  1  0  0  0
  7  8  2  0  0  0
  7 29  1  0  0  0
  8 30  1  0  0  0
  9 10  1  0  0  0
  9 31  1  0  0  0
 10 11  2  0  0  0
 10 32  1  0  0  0
 11 12  1  0  0  0
 11 25  1  0  0  0
 12 13  2  0  0  0
 12 24  1  0  0  0
 13 33  1  0  0  0
 14 15  2  0  0  0
 14 19  1  0  0  0
 15 16  1  0  0  0
 15 34  1  0  0  0
 16 17  2  0  0  0
 16 35  1  0  0  0
 17 18  1  0  0  0
 17 36  1  0  0  0
 18 19  2  0  0  0
 18 37  1  0  0  0
 19 38  1  0  0  0
 20 21  1  0  0  0
 20 39  1  0  0  0
 20 40  1  0  0  0
 21 22  1  0  0  0
 21 41  1  0  0  0
 21 42  1  0  0  0
 22 23  1  0  0  0
 22 43  1  0  0  0
 22 44  1  0  0  0
 23 45  1  0  0  0
 23 46  1  0  0  0
M  END
> <s_m_entry_id>
196

> <s_m_entry_name>
dock_pv.195

> <s_m_Source_Path>
/home/csk/Desktop/cluster/DUD-E-result/kif11

> <s_m_Source_File>
dock_pv.maegz

> <i_m_Source_File_Index>
195

> <chembl_id>
CHEMBL2325417

> <chembl_pref_name>
None

> <i_lp_mmshare_version>
53161

> <i_f3d_flags>
0

> <r_lp_tautomer_probability>
1

> <s_lp_Force_Field>
OPLS_2005

> <r_lp_Energy>
30.12856

> <b_lp_Chiralities_Consistent>
1

> <s_lp_Variant>
CHEMBL4581_lig885-1

> <s_i_glide_gridfile>
glide-grid_3cjo

> <i_i_glide_lignum>
1277

> <i_i_glide_rotatable_bonds>
6

> <r_i_docking_score>
-8.04356950607666

> <r_i_glide_ligand_efficiency>
-0.321742780243066

> <r_i_glide_ligand_efficiency_sa>
-0.94078159556323

> <r_i_glide_ligand_efficiency_ln>
-1.90656701926702

> <r_i_glide_gscore>
-8.04356950607666

> <r_i_glide_lipo>
-5.18144657266313

> <r_i_glide_hbond>
-0.142242615934051

> <r_i_glide_metal>
0

> <r_i_glide_rewards>
-1.00088775757576

> <r_i_glide_evdw>
-42.7651634216309

> <r_i_glide_ecoul>
-1.89396131038666

> <r_i_glide_erotb>
0.703359807735824

> <r_i_glide_esite>
0

> <r_i_glide_emodel>
-66.2137720342046

> <r_i_glide_energy>
-44.6591247320175

> <r_i_glide_einternal>
2.30354928970337

> <i_i_glide_confnum>
58

> <i_i_glide_posenum>
333

> <r_i_glide_eff_state_penalty>
0

> <s_user_duplicate_titles>
CHEMBL4581_lig885

> <s_m_subgroup_title>
dock_pv

> <s_m_subgroupid>
dock_pv

> <b_m_subgroup_collapsed>
1

$$$$
CHEMBL4581_lig178
                    3D
 Schrodinger Suite 2021-1.
 26 27  0  0  1  0            999 V2000
   17.7364   12.8524  113.2916 C   0  0  0  0  0  0
   18.7092   13.8462  113.2579 C   0  0  0  0  0  0
   19.1189   14.3698  112.0393 C   0  0  0  0  0  0
   18.5830   13.8828  110.8472 C   0  0  0  0  0  0
   17.6132   12.8761  110.8831 C   0  0  0  0  0  0
   17.1885   12.3625  112.1073 C   0  0  0  0  0  0
   19.0908   14.4198  109.5689 C   0  0  0  0  0  0
   20.1570   13.7872  108.9301 C   0  0  0  0  0  0
   20.7167   14.3440  107.7838 C   0  0  0  0  0  0
   20.2136   15.5414  107.2650 C   0  0  0  0  0  0
   19.1177   16.1521  107.8828 C   0  0  0  0  0  0
   18.5635   15.5964  109.0333 C   0  0  0  0  0  0
   20.8685   16.1932  106.0486 C   0  0  0  0  0  0
   21.6949   17.1564  106.4468 F   0  0  0  0  0  0
   19.9538   16.7327  105.2402 F   0  0  0  0  0  0
   21.5884   15.3099  105.3588 F   0  0  0  0  0  0
   17.3089   12.3621  114.4953 O   0  0  0  0  0  0
   19.1578   14.2226  114.1590 H   0  0  0  0  0  0
   19.8760   15.1411  112.0197 H   0  0  0  0  0  0
   17.2005   12.4819  109.9650 H   0  0  0  0  0  0
   16.4379   11.5862  112.1377 H   0  0  0  0  0  0
   20.5673   12.8746  109.3373 H   0  0  0  0  0  0
   21.5564   13.8493  107.3168 H   0  0  0  0  0  0
   18.7209   17.0806  107.4983 H   0  0  0  0  0  0
   17.7420   16.0973  109.5251 H   0  0  0  0  0  0
   17.8916   12.5716  115.2313 H   0  0  0  0  0  0
  1  6  1  0  0  0
  1  2  2  0  0  0
  1 17  1  0  0  0
  2  3  1  0  0  0
  2 18  1  0  0  0
  3  4  2  0  0  0
  3 19  1  0  0  0
  4  5  1  0  0  0
  4  7  1  0  0  0
  5  6  2  0  0  0
  5 20  1  0  0  0
  6 21  1  0  0  0
  7 12  1  0  0  0
  7  8  2  0  0  0
  8  9  1  0  0  0
  8 22  1  0  0  0
  9 10  2  0  0  0
  9 23  1  0  0  0
 10 11  1  0  0  0
 10 13  1  0  0  0
 11 12  2  0  0  0
 11 24  1  0  0  0
 12 25  1  0  0  0
 13 14  1  0  0  0
 13 15  1  0  0  0
 13 16  1  0  0  0
 17 26  1  0  0  0
M  END
> <s_m_entry_id>
197

> <s_m_entry_name>
dock_pv.196

> <s_m_Source_Path>
/home/csk/Desktop/cluster/DUD-E-result/kif11

> <s_m_Source_File>
dock_pv.maegz

> <i_m_Source_File_Index>
196

> <chembl_id>
CHEMBL244264

> <chembl_pref_name>
None

> <i_lp_mmshare_version>
53161

> <i_f3d_flags>
0

> <r_lp_tautomer_probability>
0.999999999997365

> <s_lp_Force_Field>
OPLS_2005

> <r_lp_Energy>
13.389491

> <b_lp_Chiralities_Consistent>
1

> <s_lp_Variant>
CHEMBL4581_lig178-1

> <s_i_glide_gridfile>
glide-grid_3cjo

> <i_i_glide_lignum>
274

> <i_i_glide_rotatable_bonds>
3

> <r_i_docking_score>
-8.03831147227246

> <r_i_glide_ligand_efficiency>
-0.472841851310144

> <r_i_glide_ligand_efficiency_sa>
-1.21580954641832

> <r_i_glide_ligand_efficiency_ln>
-2.09701645872038

> <r_i_glide_gscore>
-8.03831147227246

> <r_i_glide_lipo>
-3.54934235108393

> <r_i_glide_hbond>
-0.215994007797587

> <r_i_glide_metal>
0

> <r_i_glide_rewards>
-2.88691857641176

> <r_i_glide_evdw>
-29.6224403381348

> <r_i_glide_ecoul>
-1.39364862442017

> <r_i_glide_erotb>
0.30411277359058

> <r_i_glide_esite>
0

> <r_i_glide_emodel>
-43.2873341660262

> <r_i_glide_energy>
-31.0160889625549

> <r_i_glide_einternal>
4.05244731903076

> <i_i_glide_confnum>
4

> <i_i_glide_posenum>
63

> <r_i_glide_eff_state_penalty>
0

> <s_user_duplicate_titles>
CHEMBL4581_lig178,389152

> <s_m_subgroup_title>
dock_pv

> <s_m_subgroupid>
dock_pv

> <b_m_subgroup_collapsed>
1

$$$$
CHEMBL4581_lig871
                    3D
 Schrodinger Suite 2021-1.
 48 50  0  0  1  0            999 V2000
   17.6558   14.4534  109.7099 C   0  0  0  0  0  0
   16.9573   15.8324  109.9302 C   0  0  0  0  0  0
   18.9651   14.5448  108.8683 C   0  0  0  0  0  0
   17.7269   16.9849  110.1740 C   0  0  0  0  0  0
   17.1263   18.2208  110.3869 C   0  0  0  0  0  0
   15.7404   18.3237  110.3644 C   0  0  0  0  0  0
   14.9541   17.1993  110.1319 C   0  0  0  0  0  0
   15.5588   15.9637  109.9162 C   0  0  0  0  0  0
   19.9821   13.5922  109.0214 C   0  0  0  0  0  0
   21.0595   13.5620  108.1421 C   0  0  0  0  0  0
   21.1183   14.4477  107.0673 C   0  0  0  0  0  0
   20.1638   15.4613  106.9580 C   0  0  0  0  0  0
   19.1081   15.5142  107.8602 C   0  0  0  0  0  0
   17.8958   13.8779  111.1440 C   0  0  0  0  0  0
   18.9018   14.4402  111.9474 C   0  0  0  0  0  0
   19.1195   13.9908  113.2467 C   0  0  0  0  0  0
   18.3516   12.9519  113.7586 C   0  0  0  0  0  0
   17.3655   12.3620  112.9782 C   0  0  0  0  0  0
   17.1331   12.8222  111.6851 C   0  0  0  0  0  0
   16.5849   13.2879  108.7273 S   0  0  0  0  0  0
   16.6259   13.8272  106.9888 C   0  0  0  0  0  0
   15.6935   13.0319  106.0657 C   0  0  0  0  0  0
   15.9179   13.4109  104.6826 N   0  0  0  0  0  0
   22.1072   14.2005  106.1377 O   0  0  0  0  0  0
   22.7389   15.2462  105.3980 C   0  0  0  0  0  0
   23.5179   16.0007  106.1590 F   0  0  0  0  0  0
   23.5180   14.6319  104.5141 F   0  0  0  0  0  0
   21.9180   16.0334  104.7134 F   0  0  0  0  0  0
   18.8049   16.9333  110.2061 H   0  0  0  0  0  0
   17.7348   19.0942  110.5734 H   0  0  0  0  0  0
   15.2733   19.2826  110.5341 H   0  0  0  0  0  0
   13.8771   17.2850  110.1223 H   0  0  0  0  0  0
   14.9190   15.1097  109.7536 H   0  0  0  0  0  0
   19.9052   12.8187  109.7702 H   0  0  0  0  0  0
   21.8021   12.7830  108.2287 H   0  0  0  0  0  0
   20.1736   16.1750  106.1513 H   0  0  0  0  0  0
   18.3456   16.2610  107.6967 H   0  0  0  0  0  0
   19.5170   15.2430  111.5691 H   0  0  0  0  0  0
   19.8913   14.4420  113.8525 H   0  0  0  0  0  0
   18.5226   12.6003  114.7664 H   0  0  0  0  0  0
   16.7613   11.5614  113.3794 H   0  0  0  0  0  0
   16.3375   12.3434  111.1354 H   0  0  0  0  0  0
   16.3960   14.8923  106.9389 H   0  0  0  0  0  0
   17.6455   13.6929  106.6271 H   0  0  0  0  0  0
   15.8903   11.9631  106.1583 H   0  0  0  0  0  0
   14.6490   13.1960  106.3354 H   0  0  0  0  0  0
   16.8857   13.1988  104.4470 H   0  0  0  0  0  0
   15.3484   12.8335  104.0817 H   0  0  0  0  0  0
  1  2  1  0  0  0
  1  3  1  0  0  0
  1 14  1  0  0  0
  1 20  1  0  0  0
  2  4  2  0  0  0
  2  8  1  0  0  0
  3  9  2  0  0  0
  3 13  1  0  0  0
  4  5  1  0  0  0
  4 29  1  0  0  0
  5  6  2  0  0  0
  5 30  1  0  0  0
  6  7  1  0  0  0
  6 31  1  0  0  0
  7  8  2  0  0  0
  7 32  1  0  0  0
  8 33  1  0  0  0
  9 10  1  0  0  0
  9 34  1  0  0  0
 10 11  2  0  0  0
 10 35  1  0  0  0
 11 12  1  0  0  0
 11 24  1  0  0  0
 12 13  2  0  0  0
 12 36  1  0  0  0
 13 37  1  0  0  0
 14 15  2  0  0  0
 14 19  1  0  0  0
 15 16  1  0  0  0
 15 38  1  0  0  0
 16 17  2  0  0  0
 16 39  1  0  0  0
 17 18  1  0  0  0
 17 40  1  0  0  0
 18 19  2  0  0  0
 18 41  1  0  0  0
 19 42  1  0  0  0
 20 21  1  0  0  0
 21 22  1  0  0  0
 21 43  1  0  0  0
 21 44  1  0  0  0
 22 23  1  0  0  0
 22 45  1  0  0  0
 22 46  1  0  0  0
 23 47  1  0  0  0
 23 48  1  0  0  0
 24 25  1  0  0  0
 25 26  1  0  0  0
 25 27  1  0  0  0
 25 28  1  0  0  0
M  END
> <s_m_entry_id>
198

> <s_m_entry_name>
dock_pv.197

> <s_m_Source_Path>
/home/csk/Desktop/cluster/DUD-E-result/kif11

> <s_m_Source_File>
dock_pv.maegz

> <i_m_Source_File_Index>
197

> <chembl_id>
CHEMBL2325431

> <chembl_pref_name>
None

> <i_lp_mmshare_version>
53161

> <i_f3d_flags>
0

> <r_lp_tautomer_probability>
1

> <s_lp_Force_Field>
OPLS_2005

> <r_lp_Energy>
25.665799

> <b_lp_Chiralities_Consistent>
1

> <s_lp_Variant>
CHEMBL4581_lig871-1

> <s_i_glide_gridfile>
glide-grid_3cjo

> <i_i_glide_lignum>
1262

> <i_i_glide_rotatable_bonds>
8

> <r_i_docking_score>
-8.02988016739514

> <r_i_glide_ligand_efficiency>
-0.286781434549826

> <r_i_glide_ligand_efficiency_sa>
-0.870837340525416

> <r_i_glide_ligand_efficiency_ln>
-1.85353211016125

> <r_i_glide_gscore>
-8.02988016739514

> <r_i_glide_lipo>
-4.97914078380433

> <r_i_glide_hbond>
-0.0999411996688636

> <r_i_glide_metal>
0

> <r_i_glide_rewards>
-1.21940209806941

> <r_i_glide_evdw>
-43.5273399353027

> <r_i_glide_ecoul>
-1.85808706283569

> <r_i_glide_erotb>
0.723683970337948

> <r_i_glide_esite>
0

> <r_i_glide_emodel>
-55.7346606318748

> <r_i_glide_energy>
-45.3854269981384

> <r_i_glide_einternal>
23.4461441040039

> <i_i_glide_confnum>
88

> <i_i_glide_posenum>
84

> <r_i_glide_eff_state_penalty>
0

> <s_user_duplicate_titles>
CHEMBL4581_lig871

> <s_m_subgroup_title>
dock_pv

> <s_m_subgroupid>
dock_pv

> <b_m_subgroup_collapsed>
1

$$$$
CHEMBL4581_lig99
                    3D
 Schrodinger Suite 2021-1.
 55 57  0  0  1  0            999 V2000
   22.5491   14.0408  106.1590 C   0  0  0  0  0  0
   22.6910   15.1623  105.3491 C   0  0  0  0  0  0
   21.7784   16.2078  105.4545 C   0  0  0  0  0  0
   20.7232   16.1233  106.3621 C   0  0  0  0  0  0
   20.5662   14.9945  107.1893 C   0  0  0  0  0  0
   21.5179   13.9612  107.0887 C   0  0  0  0  0  0
   21.5181   12.8874  107.9103 F   0  0  0  0  0  0
   21.9067   17.2974  104.6658 F   0  0  0  0  0  0
   19.4345   14.9534  108.1446 C   0  0  0  0  0  0
   18.7340   15.9575  108.4782 N   0  0  0  0  0  0
   17.7071   15.6023  109.2947 N   0  0  0  0  0  0
   17.6900   14.1392  109.5688 C   0  0  1  0  0  0
   18.9657   13.6996  108.8431 C   0  0  0  0  0  0
   17.8353   13.7967  111.0783 C   0  0  0  0  0  0
   18.7103   14.5522  111.8754 C   0  0  0  0  0  0
   18.9348   14.2103  113.2058 C   0  0  0  0  0  0
   18.2759   13.1183  113.7588 C   0  0  0  0  0  0
   17.3950   12.3669  112.9909 C   0  0  0  0  0  0
   17.1760   12.7012  111.6584 C   0  0  0  0  0  0
   16.6551   16.4491  109.4316 C   0  0  0  0  0  0
   16.2419   16.5975  110.7013 N   0  0  0  0  0  0
   16.1646   17.0804  108.4890 O   0  0  0  0  0  0
   15.1303   17.4523  111.1154 C   0  0  0  0  0  0
   16.4264   13.4719  108.8958 C   0  0  0  0  0  0
   15.4277   18.9533  110.9756 C   0  0  0  0  0  0
   16.2244   13.7548  107.3827 C   0  0  0  0  0  0
   14.8182   13.4080  106.8615 C   0  0  0  0  0  0
   14.6278   13.7154  105.3650 C   0  0  0  0  0  0
   15.5085   12.9012  104.5477 N   0  0  0  0  0  0
   23.2463   13.2246  106.0824 H   0  0  0  0  0  0
   23.4986   15.2157  104.6354 H   0  0  0  0  0  0
   20.0297   16.9514  106.4155 H   0  0  0  0  0  0
   19.7376   13.3422  109.5265 H   0  0  0  0  0  0
   18.7415   12.8869  108.1591 H   0  0  0  0  0  0
   19.2546   15.3835  111.4527 H   0  0  0  0  0  0
   19.6302   14.7836  113.8006 H   0  0  0  0  0  0
   18.4509   12.8489  114.7909 H   0  0  0  0  0  0
   16.8742   11.5253  113.4253 H   0  0  0  0  0  0
   16.4985   12.0762  111.0977 H   0  0  0  0  0  0
   16.7342   16.0929  111.4226 H   0  0  0  0  0  0
   14.2380   17.1957  110.5416 H   0  0  0  0  0  0
   14.8957   17.2231  112.1532 H   0  0  0  0  0  0
   16.4731   12.3869  108.9964 H   0  0  0  0  0  0
   15.5310   13.7791  109.4378 H   0  0  0  0  0  0
   14.5979   19.5490  111.3581 H   0  0  0  0  0  0
   16.3177   19.2286  111.5424 H   0  0  0  0  0  0
   15.5808   19.2467  109.9356 H   0  0  0  0  0  0
   16.4144   14.8007  107.1422 H   0  0  0  0  0  0
   16.9660   13.1922  106.8123 H   0  0  0  0  0  0
   14.5912   12.3621  107.0524 H   0  0  0  0  0  0
   14.0817   13.9788  107.4277 H   0  0  0  0  0  0
   13.5951   13.5183  105.0725 H   0  0  0  0  0  0
   14.8181   14.7707  105.1657 H   0  0  0  0  0  0
   15.4237   13.1662  103.5793 H   0  0  0  0  0  0
   16.4785   13.0559  104.7999 H   0  0  0  0  0  0
  1  6  1  0  0  0
  1  2  2  0  0  0
  1 30  1  0  0  0
  2  3  1  0  0  0
  2 31  1  0  0  0
  3  4  2  0  0  0
  3  8  1  0  0  0
  4  5  1  0  0  0
  4 32  1  0  0  0
  5  9  1  0  0  0
  5  6  2  0  0  0
  6  7  1  0  0  0
  9 10  2  0  0  0
  9 13  1  0  0  0
 10 11  1  0  0  0
 11 20  1  0  0  0
 11 12  1  0  0  0
 12 14  1  0  0  0
 12 24  1  0  0  0
 12 13  1  0  0  0
 13 33  1  0  0  0
 13 34  1  0  0  0
 14 15  2  0  0  0
 14 19  1  0  0  0
 15 16  1  0  0  0
 15 35  1  0  0  0
 16 17  2  0  0  0
 16 36  1  0  0  0
 17 18  1  0  0  0
 17 37  1  0  0  0
 18 19  2  0  0  0
 18 38  1  0  0  0
 19 39  1  0  0  0
 20 21  1  0  0  0
 20 22  2  0  0  0
 21 23  1  0  0  0
 21 40  1  0  0  0
 23 25  1  0  0  0
 23 41  1  0  0  0
 23 42  1  0  0  0
 24 26  1  0  0  0
 24 43  1  0  0  0
 24 44  1  0  0  0
 25 45  1  0  0  0
 25 46  1  0  0  0
 25 47  1  0  0  0
 26 27  1  0  0  0
 26 48  1  0  0  0
 26 49  1  0  0  0
 27 28  1  0  0  0
 27 50  1  0  0  0
 27 51  1  0  0  0
 28 29  1  0  0  0
 28 52  1  0  0  0
 28 53  1  0  0  0
 29 54  1  0  0  0
 29 55  1  0  0  0
M  END
> <s_m_entry_id>
199

> <s_m_entry_name>
dock_pv.198

> <s_m_Source_Path>
/home/csk/Desktop/cluster/DUD-E-result/kif11

> <s_m_Source_File>
dock_pv.maegz

> <i_m_Source_File_Index>
198

> <chembl_id>
CHEMBL207992

> <chembl_pref_name>
None

> <i_lp_mmshare_version>
53161

> <i_f3d_flags>
0

> <r_lp_tautomer_probability>
1

> <s_lp_Force_Field>
OPLS_2005

> <r_lp_Energy>
30.848724

> <b_lp_Chiralities_Consistent>
1

> <s_lp_Variant>
CHEMBL4581_lig99-2

> <s_i_glide_gridfile>
glide-grid_3cjo

> <i_i_glide_lignum>
167

> <i_i_glide_rotatable_bonds>
9

> <r_i_docking_score>
-8.0293612595681

> <r_i_glide_ligand_efficiency>
-0.276874526192003

> <r_i_glide_ligand_efficiency_sa>
-0.850646264468696

> <r_i_glide_ligand_efficiency_ln>
-1.83852012140725

> <r_i_glide_gscore>
-8.0293612595681

> <r_i_glide_lipo>
-4.23835340383208

> <r_i_glide_hbond>
0

> <r_i_glide_metal>
0

> <r_i_glide_rewards>
-2.22627736391711

> <r_i_glide_evdw>
-45.5323829650879

> <r_i_glide_ecoul>
-0.958802938461304

> <r_i_glide_erotb>
0.855709097204677

> <r_i_glide_esite>
0

> <r_i_glide_emodel>
-66.9812180168653

> <r_i_glide_energy>
-46.4911859035492

> <r_i_glide_einternal>
3.85284662246704

> <i_i_glide_confnum>
34

> <i_i_glide_posenum>
115

> <r_i_glide_eff_state_penalty>
0

> <s_user_duplicate_titles>
CHEMBL4581_lig99

> <s_m_subgroup_title>
dock_pv

> <s_m_subgroupid>
dock_pv

> <b_m_subgroup_collapsed>
1

$$$$
CHEMBL4581_lig102
                    3D
 Schrodinger Suite 2021-1.
 54 56  0  0  1  0            999 V2000
   22.5932   14.0857  106.1293 C   0  0  0  0  0  0
   22.7075   15.1966  105.3028 C   0  0  0  0  0  0
   21.7504   16.2040  105.3590 C   0  0  0  0  0  0
   20.6655   16.0869  106.2243 C   0  0  0  0  0  0
   20.5366   14.9694  107.0686 C   0  0  0  0  0  0
   21.5232   13.9628  107.0077 C   0  0  0  0  0  0
   21.5179   12.8832  107.8216 F   0  0  0  0  0  0
   21.8653   17.2857  104.5590 F   0  0  0  0  0  0
   19.3969   14.8975  108.0020 C   0  0  0  0  0  0
   19.3371   14.1837  109.0505 N   0  0  0  0  0  0
   18.1740   14.3867  109.7255 N   0  0  0  0  0  0
   17.2414   15.2677  108.9649 C   0  0  2  0  0  0
   18.1568   15.7317  107.8206 C   0  0  0  0  0  0
   16.7299   16.5193  109.7393 C   0  0  0  0  0  0
   17.6674   17.3660  110.3413 C   0  0  0  0  0  0
   17.2625   18.5355  110.9583 C   0  0  0  0  0  0
   15.9189   18.8942  110.9588 C   0  0  0  0  0  0
   14.9662   18.0581  110.3998 C   0  0  0  0  0  0
   15.3674   16.8709  109.8031 C   0  0  0  0  0  0
   18.1862   14.2144  111.0706 C   0  0  0  0  0  0
   17.5181   13.1232  111.4856 N   0  0  0  0  0  0
   18.8192   14.9480  111.8364 O   0  0  0  0  0  0
   17.3139   12.7469  112.8894 C   0  0  0  0  0  0
   16.0325   14.4195  108.4457 C   0  0  0  0  0  0
   18.5966   12.3763  113.6464 C   0  0  0  0  0  0
   16.2685   13.1614  107.5957 C   0  0  0  0  0  0
   16.4742   13.4222  106.0849 C   0  0  0  0  0  0
   16.0863   12.2662  105.1543 C   0  0  0  0  0  0
   14.7388   11.8956  105.3581 O   0  0  0  0  0  0
   23.3374   13.3109  106.0961 H   0  0  0  0  0  0
   23.5230   15.2686  104.6052 H   0  0  0  0  0  0
   19.9474   16.8943  106.2389 H   0  0  0  0  0  0
   17.7076   15.6093  106.8396 H   0  0  0  0  0  0
   18.4234   16.7856  107.8985 H   0  0  0  0  0  0
   18.7201   17.1300  110.3202 H   0  0  0  0  0  0
   18.0028   19.1620  111.4281 H   0  0  0  0  0  0
   15.6100   19.8158  111.4312 H   0  0  0  0  0  0
   13.9233   18.3325  110.4256 H   0  0  0  0  0  0
   14.5855   16.2639  109.3800 H   0  0  0  0  0  0
   17.1282   12.5074  110.7867 H   0  0  0  0  0  0
   16.8251   13.5608  113.4257 H   0  0  0  0  0  0
   16.6201   11.9058  112.9204 H   0  0  0  0  0  0
   15.4516   14.1060  109.3163 H   0  0  0  0  0  0
   15.3667   15.0534  107.8600 H   0  0  0  0  0  0
   18.3673   12.0533  114.6622 H   0  0  0  0  0  0
   19.1175   11.5637  113.1512 H   0  0  0  0  0  0
   19.2819   13.2198  113.7306 H   0  0  0  0  0  0
   17.0665   12.5372  108.0010 H   0  0  0  0  0  0
   15.3480   12.5950  107.7140 H   0  0  0  0  0  0
   15.9069   14.3002  105.7718 H   0  0  0  0  0  0
   17.5194   13.6571  105.8944 H   0  0  0  0  0  0
   16.2280   12.5545  104.1138 H   0  0  0  0  0  0
   16.6965   11.3860  105.3584 H   0  0  0  0  0  0
   14.7134   11.3482  106.1523 H   0  0  0  0  0  0
  1  6  1  0  0  0
  1  2  2  0  0  0
  1 30  1  0  0  0
  2  3  1  0  0  0
  2 31  1  0  0  0
  3  4  2  0  0  0
  3  8  1  0  0  0
  4  5  1  0  0  0
  4 32  1  0  0  0
  5  9  1  0  0  0
  5  6  2  0  0  0
  6  7  1  0  0  0
  9 10  2  0  0  0
  9 13  1  0  0  0
 10 11  1  0  0  0
 11 20  1  0  0  0
 11 12  1  0  0  0
 12 14  1  0  0  0
 12 24  1  0  0  0
 12 13  1  0  0  0
 13 33  1  0  0  0
 13 34  1  0  0  0
 14 15  2  0  0  0
 14 19  1  0  0  0
 15 16  1  0  0  0
 15 35  1  0  0  0
 16 17  2  0  0  0
 16 36  1  0  0  0
 17 18  1  0  0  0
 17 37  1  0  0  0
 18 19  2  0  0  0
 18 38  1  0  0  0
 19 39  1  0  0  0
 20 21  1  0  0  0
 20 22  2  0  0  0
 21 23  1  0  0  0
 21 40  1  0  0  0
 23 25  1  0  0  0
 23 41  1  0  0  0
 23 42  1  0  0  0
 24 26  1  0  0  0
 24 43  1  0  0  0
 24 44  1  0  0  0
 25 45  1  0  0  0
 25 46  1  0  0  0
 25 47  1  0  0  0
 26 27  1  0  0  0
 26 48  1  0  0  0
 26 49  1  0  0  0
 27 28  1  0  0  0
 27 50  1  0  0  0
 27 51  1  0  0  0
 28 29  1  0  0  0
 28 52  1  0  0  0
 28 53  1  0  0  0
 29 54  1  0  0  0
M  END
> <s_m_entry_id>
200

> <s_m_entry_name>
dock_pv.199

> <s_m_Source_Path>
/home/csk/Desktop/cluster/DUD-E-result/kif11

> <s_m_Source_File>
dock_pv.maegz

> <i_m_Source_File_Index>
199

> <chembl_id>
CHEMBL383402

> <chembl_pref_name>
None

> <i_lp_mmshare_version>
53161

> <i_f3d_flags>
0

> <r_lp_tautomer_probability>
1

> <s_lp_Force_Field>
OPLS_2005

> <r_lp_Energy>
32.100304

> <b_lp_Chiralities_Consistent>
1

> <s_lp_Variant>
CHEMBL4581_lig102-1

> <s_i_glide_gridfile>
glide-grid_3cjo

> <i_i_glide_lignum>
172

> <i_i_glide_rotatable_bonds>
10

> <r_i_docking_score>
-8.02501334195546

> <r_i_glide_ligand_efficiency>
-0.276724597998464

> <r_i_glide_ligand_efficiency_sa>
-0.850185637557558

> <r_i_glide_ligand_efficiency_ln>
-1.83752455852763

> <r_i_glide_gscore>
-8.02501334195546

> <r_i_glide_lipo>
-3.47826291715302

> <r_i_glide_hbond>
-0.32

> <r_i_glide_metal>
0

> <r_i_glide_rewards>
-2.2580695130041

> <r_i_glide_evdw>
-41.9046936035156

> <r_i_glide_ecoul>
-5.6472315788269

> <r_i_glide_erotb>
0.973638505201484

> <r_i_glide_esite>
0

> <r_i_glide_emodel>
-67.8246724979092

> <r_i_glide_energy>
-47.5519251823425

> <r_i_glide_einternal>
6.02477121353149

> <i_i_glide_confnum>
121

> <i_i_glide_posenum>
8

> <r_i_glide_eff_state_penalty>
0

> <s_user_duplicate_titles>
CHEMBL4581_lig102

> <s_m_subgroup_title>
dock_pv

> <s_m_subgroupid>
dock_pv

> <b_m_subgroup_collapsed>
1

$$$$
CHEMBL4581_lig458
                    3D
 Schrodinger Suite 2021-1.
 47 49  0  0  1  0            999 V2000
   16.0114   13.0637  105.7388 C   0  0  2  0  0  0
   14.5204   13.3757  106.0042 C   0  0  0  0  0  0
   13.9689   14.4157  105.6469 O   0  0  0  0  0  0
   16.9495   13.8358  106.6843 C   0  0  0  0  0  0
   16.3179   13.3791  104.3311 N   0  0  0  0  0  0
   16.9307   13.2047  108.3972 S   0  0  0  0  0  0
   17.9251   14.4094  109.4109 C   0  0  0  0  0  0
   18.0969   13.8815  110.8722 C   0  0  0  0  0  0
   17.3715   12.7890  111.3877 C   0  0  0  0  0  0
   17.5176   12.3911  112.7135 C   0  0  0  0  0  0
   18.3854   13.0810  113.5515 C   0  0  0  0  0  0
   19.1186   14.1577  113.0654 C   0  0  0  0  0  0
   18.9862   14.5438  111.7348 C   0  0  0  0  0  0
   19.2741   14.4885  108.6312 C   0  0  0  0  0  0
   19.4552   15.4195  107.5905 C   0  0  0  0  0  0
   20.5605   15.3476  106.7493 C   0  0  0  0  0  0
   21.5161   14.3620  106.9590 C   0  0  0  0  0  0
   21.4151   13.5036  108.0492 C   0  0  0  0  0  0
   20.2987   13.5623  108.8811 C   0  0  0  0  0  0
   17.1795   15.7731  109.5521 C   0  0  0  0  0  0
   17.9031   16.9603  109.7646 C   0  0  0  0  0  0
   17.2531   18.1786  109.9299 C   0  0  0  0  0  0
   15.8648   18.2295  109.8758 C   0  0  0  0  0  0
   15.1242   17.0699  109.6708 C   0  0  0  0  0  0
   15.7764   15.8504  109.5133 C   0  0  0  0  0  0
   13.9184   12.3620  106.6866 O   0  0  0  0  0  0
   14.9737   19.8957  110.0883 Br  0  0  0  0  0  0
   16.1833   11.9963  105.8901 H   0  0  0  0  0  0
   16.7243   14.9035  106.6772 H   0  0  0  0  0  0
   17.9639   13.7174  106.3055 H   0  0  0  0  0  0
   17.3081   13.1623  104.1592 H   0  0  0  0  0  0
   15.7856   12.7913  103.7071 H   0  0  0  0  0  0
   16.6658   12.2328  110.7909 H   0  0  0  0  0  0
   16.9394   11.5623  113.0943 H   0  0  0  0  0  0
   18.4925   12.7761  114.5831 H   0  0  0  0  0  0
   19.7983   14.6875  113.7164 H   0  0  0  0  0  0
   19.5705   15.3793  111.3803 H   0  0  0  0  0  0
   18.6976   16.1534  107.3634 H   0  0  0  0  0  0
   20.6594   16.0348  105.9220 H   0  0  0  0  0  0
   22.3669   14.2883  106.2963 H   0  0  0  0  0  0
   22.1811   12.7621  108.2171 H   0  0  0  0  0  0
   20.1993   12.8316  109.6703 H   0  0  0  0  0  0
   18.9811   16.9484  109.8178 H   0  0  0  0  0  0
   17.8245   19.0783  110.1046 H   0  0  0  0  0  0
   14.0459   17.1154  109.6358 H   0  0  0  0  0  0
   15.1706   14.9685  109.3729 H   0  0  0  0  0  0
   14.5354   11.6687  106.9575 H   0  0  0  0  0  0
  1  4  1  0  0  0
  1  5  1  0  0  0
  1  2  1  0  0  0
  1 28  1  0  0  0
  2  3  2  0  0  0
  2 26  1  0  0  0
  4  6  1  0  0  0
  4 29  1  0  0  0
  4 30  1  0  0  0
  5 31  1  0  0  0
  5 32  1  0  0  0
  6  7  1  0  0  0
  7  8  1  0  0  0
  7 14  1  0  0  0
  7 20  1  0  0  0
  8  9  2  0  0  0
  8 13  1  0  0  0
  9 10  1  0  0  0
  9 33  1  0  0  0
 10 11  2  0  0  0
 10 34  1  0  0  0
 11 12  1  0  0  0
 11 35  1  0  0  0
 12 13  2  0  0  0
 12 36  1  0  0  0
 13 37  1  0  0  0
 14 15  2  0  0  0
 14 19  1  0  0  0
 15 16  1  0  0  0
 15 38  1  0  0  0
 16 17  2  0  0  0
 16 39  1  0  0  0
 17 18  1  0  0  0
 17 40  1  0  0  0
 18 19  2  0  0  0
 18 41  1  0  0  0
 19 42  1  0  0  0
 20 21  2  0  0  0
 20 25  1  0  0  0
 21 22  1  0  0  0
 21 43  1  0  0  0
 22 23  2  0  0  0
 22 44  1  0  0  0
 23 24  1  0  0  0
 23 27  1  0  0  0
 24 25  2  0  0  0
 24 45  1  0  0  0
 25 46  1  0  0  0
 26 47  1  0  0  0
M  END
> <s_m_entry_id>
201

> <s_m_entry_name>
dock_pv.200

> <s_m_Source_Path>
/home/csk/Desktop/cluster/DUD-E-result/kif11

> <s_m_Source_File>
dock_pv.maegz

> <i_m_Source_File_Index>
200

> <chembl_id>
CHEMBL412132

> <chembl_pref_name>
None

> <i_lp_mmshare_version>
53161

> <i_f3d_flags>
0

> <r_lp_tautomer_probability>
1

> <s_lp_Force_Field>
OPLS_2005

> <r_lp_Energy>
25.704959

> <b_lp_Chiralities_Consistent>
1

> <s_lp_Variant>
CHEMBL4581_lig458-1

> <s_i_glide_gridfile>
glide-grid_3cjo

> <i_i_glide_lignum>
681

> <i_i_glide_rotatable_bonds>
8

> <r_i_docking_score>
-8.01785480024513

> <r_i_glide_ligand_efficiency>
-0.296957585194264

> <r_i_glide_ligand_efficiency_sa>
-0.890872754604069

> <r_i_glide_ligand_efficiency_ln>
-1.86642441282989

> <r_i_glide_gscore>
-8.01785480024513

> <r_i_glide_lipo>
-4.59692407241469

> <r_i_glide_hbond>
-0.152

> <r_i_glide_metal>
0

> <r_i_glide_rewards>
-0.501267196969696

> <r_i_glide_evdw>
-41.2882919311523

> <r_i_glide_ecoul>
-9.39045238494873

> <r_i_glide_erotb>
0.714798006599082

> <r_i_glide_esite>
-0.00947908315990442

> <r_i_glide_emodel>
-74.6579212556587

> <r_i_glide_energy>
-50.6787443161011

> <r_i_glide_einternal>
1.944420337677

> <i_i_glide_confnum>
12

> <i_i_glide_posenum>
239

> <r_i_glide_eff_state_penalty>
0

> <s_user_duplicate_titles>
CHEMBL4581_lig458

> <s_m_subgroup_title>
dock_pv

> <s_m_subgroupid>
dock_pv

> <b_m_subgroup_collapsed>
1

$$$$
CHEMBL4581_lig274
                    3D
 Schrodinger Suite 2021-1.
 52 55  0  0  1  0            999 V2000
   17.9200   13.3702  111.9053 C   0  0  0  0  0  0
   18.8460   14.4116  111.7335 C   0  0  0  0  0  0
   19.0733   15.0311  110.5042 C   0  0  0  0  0  0
   17.1659   12.9235  110.8049 C   0  0  0  0  0  0
   18.2977   14.8841  108.0728 N   0  0  0  0  0  0
   17.3512   14.0441  107.5071 C   0  0  0  0  0  0
   16.7891   13.2300  108.3595 N   0  0  0  0  0  0
   17.3755   13.5248  109.5570 C   0  0  0  0  0  0
   18.3260   14.5658  109.4194 C   0  0  0  0  0  0
   17.1180   13.9968  106.1587 N   0  0  0  0  0  0
   16.4581   14.9813  105.4094 C   0  0  0  0  0  0
   16.7180   15.0472  104.0407 C   0  0  0  0  0  0
   16.1016   16.0093  103.2504 C   0  0  0  0  0  0
   15.1982   16.8983  103.8285 C   0  0  0  0  0  0
   14.9110   16.8279  105.1936 C   0  0  0  0  0  0
   15.5514   15.8771  105.9863 C   0  0  0  0  0  0
   14.3986   18.1162  102.7968 S   0  0  0  0  0  0
   14.3180   19.5620  103.7590 N   0  0  0  0  0  0
   15.2889   18.3887  101.6635 O   0  0  0  0  0  0
   13.0237   17.6525  102.5944 O   0  0  0  0  0  0
   17.7803   12.7361  113.2717 C   0  0  0  0  0  0
   18.6040   12.9373  114.1590 O   0  0  0  0  0  0
   16.7180   11.9620  113.5009 N   0  0  0  0  0  0
   19.2072   15.7996  107.3677 C   0  0  0  0  0  0
   20.4962   15.1565  106.8181 C   0  0  0  0  0  0
   20.9851   13.9813  107.4135 C   0  0  0  0  0  0
   22.1479   13.3746  106.9590 C   0  0  0  0  0  0
   22.8894   13.9711  105.9506 C   0  0  0  0  0  0
   22.4422   15.1331  105.3590 C   0  0  0  0  0  0
   21.2369   15.7209  105.7493 C   0  0  0  0  0  0
   20.8175   16.9649  104.9722 C   0  0  0  0  0  0
   19.5242   17.0049  104.6547 F   0  0  0  0  0  0
   21.1180   17.9620  105.7590 F   0  0  0  0  0  0
   21.5180   17.1621  103.8552 F   0  0  0  0  0  0
   19.4271   14.7547  112.5794 H   0  0  0  0  0  0
   19.8012   15.8215  110.4081 H   0  0  0  0  0  0
   16.4581   12.1115  110.8845 H   0  0  0  0  0  0
   17.7031   13.3987  105.5818 H   0  0  0  0  0  0
   17.4164   14.3620  103.5854 H   0  0  0  0  0  0
   16.3183   16.0558  102.1928 H   0  0  0  0  0  0
   14.2031   17.5115  105.6406 H   0  0  0  0  0  0
   15.3307   15.8289  107.0426 H   0  0  0  0  0  0
   15.0951   20.1975  103.5586 H   0  0  0  0  0  0
   13.4208   20.0443  103.6677 H   0  0  0  0  0  0
   16.6103   11.5619  114.4197 H   0  0  0  0  0  0
   16.0546   11.7253  112.7761 H   0  0  0  0  0  0
   19.4841   16.6033  108.0509 H   0  0  0  0  0  0
   18.6212   16.2734  106.5875 H   0  0  0  0  0  0
   20.4611   13.5066  108.2282 H   0  0  0  0  0  0
   22.4780   12.4509  107.4017 H   0  0  0  0  0  0
   23.8207   13.5621  105.6082 H   0  0  0  0  0  0
   23.0433   15.5563  104.5674 H   0  0  0  0  0  0
  1  4  1  0  0  0
  1 21  1  0  0  0
  1  2  2  0  0  0
  2  3  1  0  0  0
  2 35  1  0  0  0
  3  9  2  0  0  0
  3 36  1  0  0  0
  4  8  2  0  0  0
  4 37  1  0  0  0
  5  6  1  0  0  0
  5  9  1  0  0  0
  5 24  1  0  0  0
  6 10  1  0  0  0
  6  7  2  0  0  0
  7  8  1  0  0  0
  8  9  1  0  0  0
 10 11  1  0  0  0
 10 38  1  0  0  0
 11 16  1  0  0  0
 11 12  2  0  0  0
 12 13  1  0  0  0
 12 39  1  0  0  0
 13 14  2  0  0  0
 13 40  1  0  0  0
 14 17  1  0  0  0
 14 15  1  0  0  0
 15 16  2  0  0  0
 15 41  1  0  0  0
 16 42  1  0  0  0
 17 18  1  0  0  0
 17 19  2  0  0  0
 17 20  2  0  0  0
 18 43  1  0  0  0
 18 44  1  0  0  0
 21 22  2  0  0  0
 21 23  1  0  0  0
 23 45  1  0  0  0
 23 46  1  0  0  0
 24 25  1  0  0  0
 24 47  1  0  0  0
 24 48  1  0  0  0
 25 26  2  0  0  0
 25 30  1  0  0  0
 26 27  1  0  0  0
 26 49  1  0  0  0
 27 28  2  0  0  0
 27 50  1  0  0  0
 28 29  1  0  0  0
 28 51  1  0  0  0
 29 30  2  0  0  0
 29 52  1  0  0  0
 30 31  1  0  0  0
 31 32  1  0  0  0
 31 33  1  0  0  0
 31 34  1  0  0  0
M  END
> <s_m_entry_id>
202

> <s_m_entry_name>
dock_pv.201

> <s_m_Source_Path>
/home/csk/Desktop/cluster/DUD-E-result/kif11

> <s_m_Source_File>
dock_pv.maegz

> <i_m_Source_File_Index>
201

> <chembl_id>
CHEMBL563643

> <chembl_pref_name>
None

> <i_lp_mmshare_version>
53161

> <i_f3d_flags>
0

> <r_lp_tautomer_probability>
1

> <s_lp_Force_Field>
OPLS_2005

> <r_lp_Energy>
28.057532

> <b_lp_Chiralities_Consistent>
1

> <s_lp_Variant>
CHEMBL4581_lig274-1

> <s_i_glide_gridfile>
glide-grid_3cjo

> <i_i_glide_lignum>
400

> <i_i_glide_rotatable_bonds>
7

> <r_i_docking_score>
-8.01765446010317

> <r_i_glide_ligand_efficiency>
-0.235813366473623

> <r_i_glide_ligand_efficiency_sa>
-0.76394376402894

> <r_i_glide_ligand_efficiency_ln>
-1.77132475782695

> <r_i_glide_gscore>
-8.01765446010317

> <r_i_glide_lipo>
-4.00895975454338

> <r_i_glide_hbond>
-0.675471780909387

> <r_i_glide_metal>
0

> <r_i_glide_rewards>
-0.935782844137969

> <r_i_glide_evdw>
-43.1107521057129

> <r_i_glide_ecoul>
-3.61620926856995

> <r_i_glide_erotb>
0.339653656025159

> <r_i_glide_esite>
-0.0391247409664565

> <r_i_glide_emodel>
-60.597601676434

> <r_i_glide_energy>
-46.7269613742828

> <r_i_glide_einternal>
11.5437040328979

> <i_i_glide_confnum>
13

> <i_i_glide_posenum>
338

> <r_i_glide_eff_state_penalty>
0

> <s_user_duplicate_titles>
CHEMBL4581_lig274

> <s_m_subgroup_title>
dock_pv

> <s_m_subgroupid>
dock_pv

> <b_m_subgroup_collapsed>
1

$$$$
CHEMBL4581_lig528
                    3D
 Schrodinger Suite 2021-1.
 64 67  0  0  1  0            999 V2000
   19.0716   16.3920  107.3225 N   0  0  0  0  0  0
   18.3208   15.8892  108.2465 C   0  0  0  0  0  0
   18.6332   14.6522  108.8331 N   0  0  0  0  0  0
   19.8111   13.9372  108.6016 C   0  0  0  0  0  0
   20.1761   15.7019  106.9526 C   0  0  0  0  0  0
   20.5655   14.4867  107.4878 C   0  0  0  0  0  0
   21.7062   13.9621  106.8598 C   0  0  0  0  0  0
   22.1901   14.8033  105.8637 C   0  0  0  0  0  0
   21.2826   16.2841  105.7584 S   0  0  0  0  0  0
   20.1558   12.9447  109.2421 O   0  0  0  0  0  0
   17.0761   16.7235  108.7002 C   0  0  2  0  0  0
   16.0082   16.8412  107.6243 N   0  0  0  0  0  0
   17.6080   18.0934  109.2681 C   0  0  0  0  0  0
   14.9584   17.7311  107.6677 C   0  0  0  0  0  0
   14.4762   18.3218  108.9753 C   0  0  0  0  0  0
   14.3335   18.0591  106.6526 O   0  0  0  0  0  0
   16.0142   15.9356  106.4283 C   0  0  0  0  0  0
   14.8027   14.9762  106.2754 C   0  0  0  0  0  0
   17.6298   13.9024  109.6363 C   0  0  0  0  0  0
   17.9180   13.6775  111.1202 C   0  0  0  0  0  0
   18.8260   14.4724  111.8299 C   0  0  0  0  0  0
   19.0852   14.2033  113.1700 C   0  0  0  0  0  0
   18.4269   13.1512  113.8002 C   0  0  0  0  0  0
   17.5177   12.3626  113.1032 C   0  0  0  0  0  0
   17.2719   12.6176  111.7590 C   0  0  0  0  0  0
   18.4038   17.9730  110.5809 C   0  0  0  0  0  0
   14.9730   13.5971  106.9301 C   0  0  0  0  0  0
   15.8778   12.7620  106.1591 N   0  0  0  0  0  0
   14.0856   19.6681  109.0054 C   0  0  0  0  0  0
   13.9602   18.1491  111.3349 C   0  0  0  0  0  0
   14.3853   17.5586  110.1472 C   0  0  0  0  0  0
   13.5935   19.4945  111.3576 C   0  0  0  0  0  0
   13.6516   20.2529  110.1905 C   0  0  0  0  0  0
   13.1189   20.1409  112.6461 C   0  0  0  0  0  0
   23.5177   14.5205  104.8163 Cl  0  0  0  0  0  0
   22.1536   13.0101  107.1102 H   0  0  0  0  0  0
   16.6082   16.2269  109.5417 H   0  0  0  0  0  0
   18.2129   18.6099  108.5234 H   0  0  0  0  0  0
   16.8176   18.8017  109.4875 H   0  0  0  0  0  0
   16.0466   16.5767  105.5450 H   0  0  0  0  0  0
   16.9157   15.3385  106.3243 H   0  0  0  0  0  0
   13.8898   15.4329  106.6567 H   0  0  0  0  0  0
   14.6125   14.8247  105.2116 H   0  0  0  0  0  0
   16.6257   14.3073  109.5458 H   0  0  0  0  0  0
   17.5364   12.9102  109.1862 H   0  0  0  0  0  0
   19.3499   15.2821  111.3463 H   0  0  0  0  0  0
   19.7983   14.7999  113.7185 H   0  0  0  0  0  0
   18.6235   12.9419  114.8422 H   0  0  0  0  0  0
   16.9965   11.5619  113.6042 H   0  0  0  0  0  0
   16.5730   11.9924  111.2206 H   0  0  0  0  0  0
   18.7038   18.9548  110.9489 H   0  0  0  0  0  0
   17.8056   17.4995  111.3593 H   0  0  0  0  0  0
   19.3125   17.3894  110.4545 H   0  0  0  0  0  0
   15.3144   13.6872  107.9598 H   0  0  0  0  0  0
   14.0076   13.0897  106.9660 H   0  0  0  0  0  0
   16.8215   13.1245  106.1533 H   0  0  0  0  0  0
   15.9178   11.8374  106.5910 H   0  0  0  0  0  0
   14.1301   20.2758  108.1118 H   0  0  0  0  0  0
   13.9196   17.5621  112.2385 H   0  0  0  0  0  0
   14.6309   16.5078  110.1496 H   0  0  0  0  0  0
   13.3669   21.2952  110.2007 H   0  0  0  0  0  0
   13.8248   20.9080  112.9663 H   0  0  0  0  0  0
   12.1582   20.6311  112.4863 H   0  0  0  0  0  0
   12.9895   19.4153  113.4498 H   0  0  0  0  0  0
  1  5  1  0  0  0
  1  2  2  0  0  0
  2 11  1  0  0  0
  2  3  1  0  0  0
  3 19  1  0  0  0
  3  4  1  0  0  0
  4 10  2  0  0  0
  4  6  1  0  0  0
  5  9  1  0  0  0
  5  6  2  0  0  0
  6  7  1  0  0  0
  7  8  2  0  0  0
  7 36  1  0  0  0
  8  9  1  0  0  0
  8 35  1  0  0  0
 11 12  1  0  0  0
 11 13  1  0  0  0
 11 37  1  0  0  0
 12 17  1  0  0  0
 12 14  1  0  0  0
 13 26  1  0  0  0
 13 38  1  0  0  0
 13 39  1  0  0  0
 14 15  1  0  0  0
 14 16  2  0  0  0
 15 29  2  0  0  0
 15 31  1  0  0  0
 17 18  1  0  0  0
 17 40  1  0  0  0
 17 41  1  0  0  0
 18 27  1  0  0  0
 18 42  1  0  0  0
 18 43  1  0  0  0
 19 20  1  0  0  0
 19 44  1  0  0  0
 19 45  1  0  0  0
 20 21  2  0  0  0
 20 25  1  0  0  0
 21 22  1  0  0  0
 21 46  1  0  0  0
 22 23  2  0  0  0
 22 47  1  0  0  0
 23 24  1  0  0  0
 23 48  1  0  0  0
 24 25  2  0  0  0
 24 49  1  0  0  0
 25 50  1  0  0  0
 26 51  1  0  0  0
 26 52  1  0  0  0
 26 53  1  0  0  0
 27 28  1  0  0  0
 27 54  1  0  0  0
 27 55  1  0  0  0
 28 56  1  0  0  0
 28 57  1  0  0  0
 29 33  1  0  0  0
 29 58  1  0  0  0
 30 32  1  0  0  0
 30 31  2  0  0  0
 30 59  1  0  0  0
 31 60  1  0  0  0
 32 33  2  0  0  0
 32 34  1  0  0  0
 33 61  1  0  0  0
 34 62  1  0  0  0
 34 63  1  0  0  0
 34 64  1  0  0  0
M  END
> <s_m_entry_id>
203

> <s_m_entry_name>
dock_pv.202

> <s_m_Source_Path>
/home/csk/Desktop/cluster/DUD-E-result/kif11

> <s_m_Source_File>
dock_pv.maegz

> <i_m_Source_File_Index>
202

> <chembl_id>
CHEMBL1829426

> <chembl_pref_name>
None

> <i_lp_mmshare_version>
53161

> <i_f3d_flags>
0

> <r_lp_tautomer_probability>
1

> <s_lp_Force_Field>
OPLS_2005

> <r_lp_Energy>
56.161549

> <b_lp_Chiralities_Consistent>
1

> <s_lp_Variant>
CHEMBL4581_lig528-1

> <s_i_glide_gridfile>
glide-grid_3cjo

> <i_i_glide_lignum>
780

> <i_i_glide_rotatable_bonds>
10

> <r_i_docking_score>
-8.01675034720727

> <r_i_glide_ligand_efficiency>
-0.229050009920208

> <r_i_glide_ligand_efficiency_sa>
-0.74923776991042

> <r_i_glide_ligand_efficiency_ln>
-1.75985462339976

> <r_i_glide_gscore>
-8.01675034720727

> <r_i_glide_lipo>
-4.70596406298375

> <r_i_glide_hbond>
-0.32

> <r_i_glide_metal>
0

> <r_i_glide_rewards>
-0.539559985313899

> <r_i_glide_evdw>
-51.481517791748

> <r_i_glide_ecoul>
-3.39535021781921

> <r_i_glide_erotb>
0.632152123350673

> <r_i_glide_esite>
0

> <r_i_glide_emodel>
-68.8341907102376

> <r_i_glide_energy>
-54.8768680095673

> <r_i_glide_einternal>
18.0807590484619

> <i_i_glide_confnum>
5

> <i_i_glide_posenum>
19

> <r_i_glide_eff_state_penalty>
0

> <s_user_duplicate_titles>
CHEMBL4581_lig528

> <s_m_subgroup_title>
dock_pv

> <s_m_subgroupid>
dock_pv

> <b_m_subgroup_collapsed>
1

$$$$
CHEMBL4581_lig841
                    3D
 Schrodinger Suite 2021-1.
 45 47  0  0  1  0            999 V2000
   16.7665   14.0280  106.0144 C   0  0  0  0  0  0
   16.3170   12.7192  105.5878 N   0  0  0  0  0  0
   16.0407   14.4880  107.2876 C   0  0  0  0  0  0
   16.4429   13.5618  108.8081 S   0  0  0  0  0  0
   17.6853   14.5746  109.7537 C   0  0  0  0  0  0
   18.9478   14.5638  108.8419 C   0  0  0  0  0  0
   17.1259   16.0012  110.0441 C   0  0  0  0  0  0
   17.9689   13.9478  111.1571 C   0  0  0  0  0  0
   19.9648   13.6078  109.0088 C   0  0  0  0  0  0
   21.0565   13.5625  108.1425 C   0  0  0  0  0  0
   21.1218   14.4408  107.0615 C   0  0  0  0  0  0
   20.1589   15.4292  106.9051 C   0  0  0  0  0  0
   19.0952   15.4990  107.7981 C   0  0  0  0  0  0
   18.9264   14.5526  111.9913 C   0  0  0  0  0  0
   19.1568   14.0878  113.2826 C   0  0  0  0  0  0
   18.4462   12.9948  113.7586 C   0  0  0  0  0  0
   17.5150   12.3618  112.9473 C   0  0  0  0  0  0
   17.2823   12.8238  111.6555 C   0  0  0  0  0  0
   18.0016   17.0930  110.1636 C   0  0  0  0  0  0
   17.5199   18.3623  110.4431 C   0  0  0  0  0  0
   16.1530   18.5708  110.5879 C   0  0  0  0  0  0
   15.2651   17.5062  110.4817 C   0  0  0  0  0  0
   15.7508   16.2294  110.2172 C   0  0  0  0  0  0
   20.2503   16.3220  105.8704 O   0  0  0  0  0  0
   16.5943   14.7345  105.2027 H   0  0  0  0  0  0
   17.8418   13.9789  106.1728 H   0  0  0  0  0  0
   17.0096   12.3628  104.9363 H   0  0  0  0  0  0
   16.3168   12.0808  106.3758 H   0  0  0  0  0  0
   14.9628   14.4359  107.1404 H   0  0  0  0  0  0
   16.2548   15.5425  107.4510 H   0  0  0  0  0  0
   19.8981   12.8639  109.7877 H   0  0  0  0  0  0
   21.8199   12.8087  108.2680 H   0  0  0  0  0  0
   21.9507   14.3687  106.3703 H   0  0  0  0  0  0
   18.3521   16.2655  107.6350 H   0  0  0  0  0  0
   19.4937   15.4010  111.6453 H   0  0  0  0  0  0
   19.8875   14.5786  113.9072 H   0  0  0  0  0  0
   18.6200   12.6341  114.7628 H   0  0  0  0  0  0
   16.9530   11.5202  113.3242 H   0  0  0  0  0  0
   16.5325   12.2984  111.0814 H   0  0  0  0  0  0
   19.0694   16.9669  110.0601 H   0  0  0  0  0  0
   18.2172   19.1760  110.5490 H   0  0  0  0  0  0
   15.7821   19.5617  110.8066 H   0  0  0  0  0  0
   14.2050   17.6694  110.6125 H   0  0  0  0  0  0
   15.0444   15.4177  110.1564 H   0  0  0  0  0  0
   21.0230   16.1673  105.3250 H   0  0  0  0  0  0
  1  2  1  0  0  0
  1  3  1  0  0  0
  1 25  1  0  0  0
  1 26  1  0  0  0
  2 27  1  0  0  0
  2 28  1  0  0  0
  3  4  1  0  0  0
  3 29  1  0  0  0
  3 30  1  0  0  0
  4  5  1  0  0  0
  5  7  1  0  0  0
  5  8  1  0  0  0
  5  6  1  0  0  0
  6 13  1  0  0  0
  6  9  2  0  0  0
  7 19  2  0  0  0
  7 23  1  0  0  0
  8 14  2  0  0  0
  8 18  1  0  0  0
  9 10  1  0  0  0
  9 31  1  0  0  0
 10 11  2  0  0  0
 10 32  1  0  0  0
 11 12  1  0  0  0
 11 33  1  0  0  0
 12 13  2  0  0  0
 12 24  1  0  0  0
 13 34  1  0  0  0
 14 15  1  0  0  0
 14 35  1  0  0  0
 15 16  2  0  0  0
 15 36  1  0  0  0
 16 17  1  0  0  0
 16 37  1  0  0  0
 17 18  2  0  0  0
 17 38  1  0  0  0
 18 39  1  0  0  0
 19 20  1  0  0  0
 19 40  1  0  0  0
 20 21  2  0  0  0
 20 41  1  0  0  0
 21 22  1  0  0  0
 21 42  1  0  0  0
 22 23  2  0  0  0
 22 43  1  0  0  0
 23 44  1  0  0  0
 24 45  1  0  0  0
M  END
> <s_m_entry_id>
204

> <s_m_entry_name>
dock_pv.203

> <s_m_Source_Path>
/home/csk/Desktop/cluster/DUD-E-result/kif11

> <s_m_Source_File>
dock_pv.maegz

> <i_m_Source_File_Index>
203

> <chembl_id>
CHEMBL2023005

> <chembl_pref_name>
None

> <i_lp_mmshare_version>
53161

> <i_f3d_flags>
0

> <r_lp_tautomer_probability>
0.999999999997365

> <s_lp_Force_Field>
OPLS_2005

> <r_lp_Energy>
24.597647

> <b_lp_Chiralities_Consistent>
1

> <s_lp_Variant>
CHEMBL4581_lig841-1

> <s_i_glide_gridfile>
glide-grid_3cjo

> <i_i_glide_lignum>
1228

> <i_i_glide_rotatable_bonds>
7

> <r_i_docking_score>
-8.01121628897015

> <r_i_glide_ligand_efficiency>
-0.33380067870709

> <r_i_glide_ligand_efficiency_sa>
-0.962847769847248

> <r_i_glide_ligand_efficiency_ln>
-1.91745166871222

> <r_i_glide_gscore>
-8.01121628897015

> <r_i_glide_lipo>
-4.71208754169059

> <r_i_glide_hbond>
-0.312108718469133

> <r_i_glide_metal>
0

> <r_i_glide_rewards>
-1.23850616666667

> <r_i_glide_evdw>
-42.8294868469238

> <r_i_glide_ecoul>
-2.97072553634644

> <r_i_glide_erotb>
0.838569310654396

> <r_i_glide_esite>
0

> <r_i_glide_emodel>
-67.2881131490778

> <r_i_glide_energy>
-45.8002123832703

> <r_i_glide_einternal>
1.99052619934082

> <i_i_glide_confnum>
39

> <i_i_glide_posenum>
93

> <r_i_glide_eff_state_penalty>
0

> <s_user_duplicate_titles>
CHEMBL4581_lig841

> <s_m_subgroup_title>
dock_pv

> <s_m_subgroupid>
dock_pv

> <b_m_subgroup_collapsed>
1

$$$$
CHEMBL4581_lig328
                    3D
 Schrodinger Suite 2021-1.
 47 50  0  0  1  0            999 V2000
   21.2513   15.1976  106.3501 C   0  0  0  0  0  0
   21.6834   13.9709  106.8834 C   0  0  0  0  0  0
   21.1188   13.4815  108.0470 C   0  0  0  0  0  0
   20.1640   15.8441  106.9591 C   0  0  0  0  0  0
   19.5662   15.3485  108.1197 C   0  0  0  0  0  0
   20.0774   14.1571  108.6577 C   0  0  0  0  0  0
   19.5330   13.5620  109.7939 N   0  0  0  0  0  0
   18.2639   14.0359  110.3147 C   0  0  2  0  0  0
   18.3903   16.0628  108.7734 C   0  0  2  0  0  0
   18.2101   15.5929  110.2418 C   0  0  1  0  0  0
   16.9157   16.2176  110.8067 C   0  0  0  0  0  0
   15.7108   15.9684  109.8825 C   0  0  0  0  0  0
   16.0398   16.3935  108.4383 C   0  0  0  0  0  0
   17.2311   15.7434  107.9997 O   0  0  0  0  0  0
   18.0625   13.4499  111.6993 C   0  0  0  0  0  0
   18.8908   13.8345  112.7564 C   0  0  0  0  0  0
   18.7203   13.2537  114.0048 C   0  0  0  0  0  0
   17.6817   12.3621  114.2210 C   0  0  0  0  0  0
   16.8711   11.9620  113.1716 C   0  0  0  0  0  0
   17.0914   12.4707  111.8959 C   0  0  0  0  0  0
   21.9173   15.7925  105.2558 N   0  0  0  0  0  0
   21.6615   17.1841  104.8889 C   0  0  0  0  0  0
   22.9949   15.0880  104.5786 C   0  0  0  0  0  0
   19.0466   16.0014  110.8126 H   0  0  0  0  0  0
   18.5667   17.1412  108.7534 H   0  0  0  0  0  0
   22.5017   13.4150  106.4546 H   0  0  0  0  0  0
   21.4874   12.5547  108.4534 H   0  0  0  0  0  0
   19.7810   16.7712  106.5607 H   0  0  0  0  0  0
   19.6994   12.5811  109.9698 H   0  0  0  0  0  0
   17.4811   13.6265  109.6726 H   0  0  0  0  0  0
   17.0564   17.2925  110.9371 H   0  0  0  0  0  0
   16.7179   15.8200  111.7971 H   0  0  0  0  0  0
   14.8376   16.5119  110.2449 H   0  0  0  0  0  0
   15.4433   14.9111  109.8970 H   0  0  0  0  0  0
   16.1526   17.4769  108.3648 H   0  0  0  0  0  0
   15.2240   16.1186  107.7693 H   0  0  0  0  0  0
   19.6816   14.5540  112.6023 H   0  0  0  0  0  0
   19.3770   13.5178  114.8145 H   0  0  0  0  0  0
   17.5188   11.9622  115.2114 H   0  0  0  0  0  0
   16.0854   11.2439  113.3585 H   0  0  0  0  0  0
   16.4670   12.1379  111.0786 H   0  0  0  0  0  0
   21.8071   17.8357  105.7517 H   0  0  0  0  0  0
   22.3180   17.5336  104.0919 H   0  0  0  0  0  0
   20.6324   17.3099  104.5509 H   0  0  0  0  0  0
   23.9178   15.1941  105.1430 H   0  0  0  0  0  0
   22.7927   14.0242  104.4589 H   0  0  0  0  0  0
   23.1180   15.5016  103.5871 H   0  0  0  0  0  0
  1  2  2  0  0  0
  1 21  1  0  0  0
  1  4  1  0  0  0
  2  3  1  0  0  0
  2 26  1  0  0  0
  3  6  2  0  0  0
  3 27  1  0  0  0
  4  5  2  0  0  0
  4 28  1  0  0  0
  5  9  1  0  0  0
  5  6  1  0  0  0
  6  7  1  0  0  0
  7  8  1  0  0  0
  7 29  1  0  0  0
  8 10  1  0  0  0
  8 15  1  0  0  0
  8 30  1  0  0  0
  9 14  1  0  0  0
  9 10  1  0  0  0
  9 25  1  0  0  0
 10 11  1  0  0  0
 10 24  1  0  0  0
 11 12  1  0  0  0
 11 31  1  0  0  0
 11 32  1  0  0  0
 12 13  1  0  0  0
 12 33  1  0  0  0
 12 34  1  0  0  0
 13 14  1  0  0  0
 13 35  1  0  0  0
 13 36  1  0  0  0
 15 16  2  0  0  0
 15 20  1  0  0  0
 16 17  1  0  0  0
 16 37  1  0  0  0
 17 18  2  0  0  0
 17 38  1  0  0  0
 18 19  1  0  0  0
 18 39  1  0  0  0
 19 20  2  0  0  0
 19 40  1  0  0  0
 20 41  1  0  0  0
 21 22  1  0  0  0
 21 23  1  0  0  0
 22 42  1  0  0  0
 22 43  1  0  0  0
 22 44  1  0  0  0
 23 45  1  0  0  0
 23 46  1  0  0  0
 23 47  1  0  0  0
M  END
> <s_m_entry_id>
205

> <s_m_entry_name>
dock_pv.204

> <s_m_Source_Path>
/home/csk/Desktop/cluster/DUD-E-result/kif11

> <s_m_Source_File>
dock_pv.maegz

> <i_m_Source_File_Index>
204

> <chembl_id>
CHEMBL1077303

> <chembl_pref_name>
None

> <i_lp_mmshare_version>
53161

> <i_f3d_flags>
0

> <r_lp_tautomer_probability>
1

> <s_lp_Force_Field>
OPLS_2005

> <r_lp_Energy>
27.94145

> <b_lp_Chiralities_Consistent>
1

> <s_lp_Variant>
CHEMBL4581_lig328-1

> <s_i_glide_gridfile>
glide-grid_3cjo

> <i_i_glide_lignum>
481

> <i_i_glide_rotatable_bonds>
2

> <r_i_docking_score>
-8.00652016793117

> <r_i_glide_ligand_efficiency>
-0.348109572518747

> <r_i_glide_ligand_efficiency_sa>
-0.989977317621618

> <r_i_glide_ligand_efficiency_ln>
-1.93604917571679

> <r_i_glide_gscore>
-8.00652016793117

> <r_i_glide_lipo>
-4.8967181475296

> <r_i_glide_hbond>
-0.00648680936704799

> <r_i_glide_metal>
0

> <r_i_glide_rewards>
-1.83113100787716

> <r_i_glide_evdw>
-29.919605255127

> <r_i_glide_ecoul>
0.195296704769135

> <r_i_glide_erotb>
0.194501553883612

> <r_i_glide_esite>
0

> <r_i_glide_emodel>
-41.9413612200355

> <r_i_glide_energy>
-29.7243085503578

> <r_i_glide_einternal>
0.455535113811493

> <i_i_glide_confnum>
2

> <i_i_glide_posenum>
66

> <r_i_glide_eff_state_penalty>
0

> <s_user_duplicate_titles>
CHEMBL4581_lig328

> <s_m_subgroup_title>
dock_pv

> <s_m_subgroupid>
dock_pv

> <b_m_subgroup_collapsed>
1

$$$$
CHEMBL4581_lig856
                    3D
 Schrodinger Suite 2021-1.
 51 53  0  0  1  0            999 V2000
   16.1827   13.9737  106.3339 C   0  0  0  0  0  0
   15.5417   12.7623  105.8589 N   0  0  0  0  0  0
   15.5226   14.4878  107.6274 C   0  0  0  0  0  0
   15.9509   13.5885  109.1590 S   0  0  0  0  0  0
   17.2799   14.5623  110.0403 C   0  0  0  0  0  0
   18.5149   14.4911  109.1109 C   0  0  0  0  0  0
   16.8302   16.0356  110.3025 C   0  0  0  0  0  0
   17.6300   13.9108  111.4176 C   0  0  0  0  0  0
   19.5537   13.5835  109.3573 C   0  0  0  0  0  0
   20.6716   13.5583  108.5486 C   0  0  0  0  0  0
   20.7319   14.3628  107.4140 C   0  0  0  0  0  0
   19.7093   15.2840  107.1618 C   0  0  0  0  0  0
   18.6289   15.3614  108.0191 C   0  0  0  0  0  0
   18.5617   14.5400  112.2627 C   0  0  0  0  0  0
   18.9467   13.9623  113.4650 C   0  0  0  0  0  0
   18.3732   12.7635  113.8693 C   0  0  0  0  0  0
   17.4556   12.1195  113.0511 C   0  0  0  0  0  0
   17.1181   12.6672  111.8222 C   0  0  0  0  0  0
   17.7789   17.0709  110.3715 C   0  0  0  0  0  0
   17.3905   18.3884  110.5559 C   0  0  0  0  0  0
   16.0404   18.7013  110.6723 C   0  0  0  0  0  0
   15.0801   17.6987  110.6124 C   0  0  0  0  0  0
   15.4780   16.3786  110.4286 C   0  0  0  0  0  0
   21.8898   14.1965  106.4749 C   0  0  0  0  0  0
   22.0332   15.1685  105.5725 N   0  0  0  0  0  0
   22.6459   13.2300  106.5584 O   0  0  0  0  0  0
   23.0484   15.1621  104.5572 C   0  0  0  0  0  0
   16.1069   14.7276  105.5497 H   0  0  0  0  0  0
   17.2439   13.7746  106.4812 H   0  0  0  0  0  0
   16.1074   12.3623  105.1225 H   0  0  0  0  0  0
   15.5255   12.0651  106.6001 H   0  0  0  0  0  0
   14.4372   14.4759  107.5237 H   0  0  0  0  0  0
   15.7726   15.5375  107.7581 H   0  0  0  0  0  0
   19.5136   12.8742  110.1675 H   0  0  0  0  0  0
   21.4519   12.8425  108.7578 H   0  0  0  0  0  0
   19.7184   15.9381  106.3028 H   0  0  0  0  0  0
   17.8661   16.0934  107.8061 H   0  0  0  0  0  0
   19.0301   15.4691  111.9832 H   0  0  0  0  0  0
   19.6761   14.4545  114.0911 H   0  0  0  0  0  0
   18.6487   12.3282  114.8196 H   0  0  0  0  0  0
   16.9984   11.1910  113.3590 H   0  0  0  0  0  0
   16.4220   12.1037  111.2215 H   0  0  0  0  0  0
   18.8350   16.8669  110.2759 H   0  0  0  0  0  0
   18.1411   19.1620  110.6065 H   0  0  0  0  0  0
   15.7343   19.7271  110.8163 H   0  0  0  0  0  0
   14.0320   17.9448  110.7005 H   0  0  0  0  0  0
   14.7181   15.6220  110.3628 H   0  0  0  0  0  0
   21.4250   15.9700  105.6151 H   0  0  0  0  0  0
   22.7178   15.8193  103.7587 H   0  0  0  0  0  0
   23.2506   14.1660  104.1602 H   0  0  0  0  0  0
   23.9411   15.5619  105.0139 H   0  0  0  0  0  0
  1  3  1  0  0  0
  1  2  1  0  0  0
  1 28  1  0  0  0
  1 29  1  0  0  0
  2 30  1  0  0  0
  2 31  1  0  0  0
  3  4  1  0  0  0
  3 32  1  0  0  0
  3 33  1  0  0  0
  4  5  1  0  0  0
  5  7  1  0  0  0
  5  8  1  0  0  0
  5  6  1  0  0  0
  6  9  2  0  0  0
  6 13  1  0  0  0
  7 19  2  0  0  0
  7 23  1  0  0  0
  8 14  2  0  0  0
  8 18  1  0  0  0
  9 10  1  0  0  0
  9 34  1  0  0  0
 10 11  2  0  0  0
 10 35  1  0  0  0
 11 12  1  0  0  0
 11 24  1  0  0  0
 12 13  2  0  0  0
 12 36  1  0  0  0
 13 37  1  0  0  0
 14 15  1  0  0  0
 14 38  1  0  0  0
 15 16  2  0  0  0
 15 39  1  0  0  0
 16 17  1  0  0  0
 16 40  1  0  0  0
 17 18  2  0  0  0
 17 41  1  0  0  0
 18 42  1  0  0  0
 19 20  1  0  0  0
 19 43  1  0  0  0
 20 21  2  0  0  0
 20 44  1  0  0  0
 21 22  1  0  0  0
 21 45  1  0  0  0
 22 23  2  0  0  0
 22 46  1  0  0  0
 23 47  1  0  0  0
 24 25  1  0  0  0
 24 26  2  0  0  0
 25 27  1  0  0  0
 25 48  1  0  0  0
 27 49  1  0  0  0
 27 50  1  0  0  0
 27 51  1  0  0  0
M  END
> <s_m_entry_id>
206

> <s_m_entry_name>
dock_pv.205

> <s_m_Source_Path>
/home/csk/Desktop/cluster/DUD-E-result/kif11

> <s_m_Source_File>
dock_pv.maegz

> <i_m_Source_File_Index>
205

> <chembl_id>
CHEMBL2024134

> <chembl_pref_name>
None

> <i_lp_mmshare_version>
53161

> <i_f3d_flags>
0

> <r_lp_tautomer_probability>
1

> <s_lp_Force_Field>
OPLS_2005

> <r_lp_Energy>
28.446999

> <b_lp_Chiralities_Consistent>
1

> <s_lp_Variant>
CHEMBL4581_lig856-1

> <s_i_glide_gridfile>
glide-grid_3cjo

> <i_i_glide_lignum>
1243

> <i_i_glide_rotatable_bonds>
8

> <r_i_docking_score>
-8.00096551728312

> <r_i_glide_ligand_efficiency>
-0.296332056195671

> <r_i_glide_ligand_efficiency_sa>
-0.888996167610352

> <r_i_glide_ligand_efficiency_ln>
-1.86249286619793

> <r_i_glide_gscore>
-8.00096551728312

> <r_i_glide_lipo>
-4.52171982393791

> <r_i_glide_hbond>
-0.32

> <r_i_glide_metal>
0

> <r_i_glide_rewards>
-1.26864341811779

> <r_i_glide_evdw>
-42.4247856140137

> <r_i_glide_ecoul>
-3.92460322380066

> <r_i_glide_erotb>
0.819327489043358

> <r_i_glide_esite>
0

> <r_i_glide_emodel>
-64.3769731342177

> <r_i_glide_energy>
-46.3493888378143

> <r_i_glide_einternal>
4.62021827697754

> <i_i_glide_confnum>
40

> <i_i_glide_posenum>
72

> <r_i_glide_eff_state_penalty>
0

> <s_user_duplicate_titles>
CHEMBL4581_lig856

> <s_m_subgroup_title>
dock_pv

> <s_m_subgroupid>
dock_pv

> <b_m_subgroup_collapsed>
1

$$$$
CHEMBL4581_lig788
                    3D
 Schrodinger Suite 2021-1.
 45 48  0  0  1  0            999 V2000
   20.5779   15.1778  107.2462 C   0  0  0  0  0  0
   20.5881   13.9622  107.9311 C   0  0  0  0  0  0
   19.5751   13.6660  108.8462 C   0  0  0  0  0  0
   19.6071   16.1360  107.5405 C   0  0  0  0  0  0
   18.6486   15.8676  108.5183 C   0  0  0  0  0  0
   18.5743   14.6060  109.1094 C   0  0  0  0  0  0
   17.3743   14.5118  110.0438 C   0  0  0  0  0  0
   17.6243   16.7260  109.1275 C   0  0  0  0  0  0
   16.8823   15.9572  110.0242 C   0  0  0  0  0  0
   15.8228   16.5525  110.7115 C   0  0  0  0  0  0
   15.5432   17.9092  110.5503 C   0  0  0  0  0  0
   16.3102   18.6773  109.6765 C   0  0  0  0  0  0
   17.3467   18.0835  108.9581 C   0  0  0  0  0  0
   17.8364   14.0285  111.4409 C   0  0  0  0  0  0
   16.0638   13.4309  109.3228 S   0  0  0  0  0  0
   15.5846   14.1018  107.7026 C   0  0  0  0  0  0
   16.3153   13.3459  106.5708 C   0  0  1  0  0  0
   15.4137   13.1055  105.3344 C   0  0  0  0  0  0
   14.8537   11.8598  105.3590 O   0  0  0  0  0  0
   15.2226   13.9458  104.4548 O   0  0  0  0  0  0
   17.5179   14.0802  106.1590 N   0  0  0  0  0  0
   17.3409   12.8513  112.0303 C   0  0  0  0  0  0
   17.7813   12.4394  113.2789 C   0  0  0  0  0  0
   18.7660   13.1628  113.9332 C   0  0  0  0  0  0
   19.2929   14.3181  113.3590 C   0  0  0  0  0  0
   18.8183   14.7570  112.1274 C   0  0  0  0  0  0
   21.3419   15.3906  106.5123 H   0  0  0  0  0  0
   21.3579   13.2336  107.7222 H   0  0  0  0  0  0
   19.5656   12.7056  109.3394 H   0  0  0  0  0  0
   19.6410   17.0967  107.0475 H   0  0  0  0  0  0
   15.2003   15.9633  111.3588 H   0  0  0  0  0  0
   14.7301   18.3642  111.0969 H   0  0  0  0  0  0
   16.0969   19.7289  109.5507 H   0  0  0  0  0  0
   17.9271   18.6879  108.2780 H   0  0  0  0  0  0
   14.5033   13.9727  107.6347 H   0  0  0  0  0  0
   15.7542   15.1777  107.6522 H   0  0  0  0  0  0
   16.6244   12.3633  106.9326 H   0  0  0  0  0  0
   15.1178   11.3405  106.1297 H   0  0  0  0  0  0
   18.1393   14.2495  106.9398 H   0  0  0  0  0  0
   18.0596   13.5637  105.4598 H   0  0  0  0  0  0
   16.5918   12.2352  111.5577 H   0  0  0  0  0  0
   17.3539   11.5621  113.7345 H   0  0  0  0  0  0
   19.1176   12.8290  114.8994 H   0  0  0  0  0  0
   20.0649   14.8714  113.8730 H   0  0  0  0  0  0
   19.2294   15.6581  111.6938 H   0  0  0  0  0  0
  1  2  2  0  0  0
  1  4  1  0  0  0
  1 27  1  0  0  0
  2  3  1  0  0  0
  2 28  1  0  0  0
  3  6  2  0  0  0
  3 29  1  0  0  0
  4  5  2  0  0  0
  4 30  1  0  0  0
  5  8  1  0  0  0
  5  6  1  0  0  0
  6  7  1  0  0  0
  7 14  1  0  0  0
  7 15  1  0  0  0
  7  9  1  0  0  0
  8 13  1  0  0  0
  8  9  2  0  0  0
  9 10  1  0  0  0
 10 11  2  0  0  0
 10 31  1  0  0  0
 11 12  1  0  0  0
 11 32  1  0  0  0
 12 13  2  0  0  0
 12 33  1  0  0  0
 13 34  1  0  0  0
 14 22  2  0  0  0
 14 26  1  0  0  0
 15 16  1  0  0  0
 16 17  1  0  0  0
 16 35  1  0  0  0
 16 36  1  0  0  0
 17 18  1  0  0  0
 17 21  1  0  0  0
 17 37  1  0  0  0
 18 19  1  0  0  0
 18 20  2  0  0  0
 19 38  1  0  0  0
 21 39  1  0  0  0
 21 40  1  0  0  0
 22 23  1  0  0  0
 22 41  1  0  0  0
 23 24  2  0  0  0
 23 42  1  0  0  0
 24 25  1  0  0  0
 24 43  1  0  0  0
 25 26  2  0  0  0
 25 44  1  0  0  0
 26 45  1  0  0  0
M  END
> <s_m_entry_id>
207

> <s_m_entry_name>
dock_pv.206

> <s_m_Source_Path>
/home/csk/Desktop/cluster/DUD-E-result/kif11

> <s_m_Source_File>
dock_pv.maegz

> <i_m_Source_File_Index>
206

> <chembl_id>
CHEMBL264923

> <chembl_pref_name>
None

> <i_lp_mmshare_version>
53161

> <i_f3d_flags>
0

> <r_lp_tautomer_probability>
1

> <s_lp_Force_Field>
OPLS_2005

> <r_lp_Energy>
32.563078

> <b_lp_Chiralities_Consistent>
1

> <s_lp_Variant>
CHEMBL4581_lig788-1

> <s_i_glide_gridfile>
glide-grid_3cjo

> <i_i_glide_lignum>
1171

> <i_i_glide_rotatable_bonds>
6

> <r_i_docking_score>
-7.99571532946257

> <r_i_glide_ligand_efficiency>
-0.307527512671637

> <r_i_glide_ligand_efficiency_sa>
-0.911049046227395

> <r_i_glide_ligand_efficiency_ln>
-1.87776750904238

> <r_i_glide_gscore>
-7.99571532946257

> <r_i_glide_lipo>
-4.27136588328614

> <r_i_glide_hbond>
-0.152

> <r_i_glide_metal>
0

> <r_i_glide_rewards>
-1.06127284848485

> <r_i_glide_evdw>
-36.4854965209961

> <r_i_glide_ecoul>
-9.43227577209473

> <r_i_glide_erotb>
0.734423529243751

> <r_i_glide_esite>
-0.00638393507132135

> <r_i_glide_emodel>
-66.4718843195686

> <r_i_glide_energy>
-45.9177722930908

> <r_i_glide_einternal>
2.36762523651123

> <i_i_glide_confnum>
144

> <i_i_glide_posenum>
226

> <r_i_glide_eff_state_penalty>
0

> <s_user_duplicate_titles>
CHEMBL4581_lig788

> <s_m_subgroup_title>
dock_pv

> <s_m_subgroupid>
dock_pv

> <b_m_subgroup_collapsed>
1

$$$$
CHEMBL4581_lig90
                    3D
 Schrodinger Suite 2021-1.
 52 54  0  0  1  0            999 V2000
   22.7176   14.2160  106.0365 C   0  0  0  0  0  0
   22.7180   15.3797  105.2774 C   0  0  0  0  0  0
   21.6905   16.3045  105.4267 C   0  0  0  0  0  0
   20.6666   16.0604  106.3379 C   0  0  0  0  0  0
   20.6646   14.8946  107.1224 C   0  0  0  0  0  0
   21.7045   13.9618  106.9588 C   0  0  0  0  0  0
   21.7810   12.8360  107.7075 F   0  0  0  0  0  0
   21.6806   17.4315  104.6826 F   0  0  0  0  0  0
   19.5690   14.6702  108.0758 C   0  0  0  0  0  0
   19.6572   14.1277  109.2181 N   0  0  0  0  0  0
   18.4604   14.1614  109.8732 N   0  0  0  0  0  0
   17.3830   14.7766  109.0320 C   0  0  2  0  0  0
   18.1631   15.0339  107.7316 C   0  0  0  0  0  0
   16.8816   16.1112  109.6669 C   0  0  0  0  0  0
   17.7800   17.1818  109.7963 C   0  0  0  0  0  0
   17.3971   18.3624  110.4126 C   0  0  0  0  0  0
   16.0984   18.5050  110.8885 C   0  0  0  0  0  0
   15.1905   17.4572  110.7790 C   0  0  0  0  0  0
   15.5853   16.2640  110.1820 C   0  0  0  0  0  0
   18.5050   14.2107  111.2389 C   0  0  0  0  0  0
   17.8506   13.2347  111.9250 N   0  0  0  0  0  0
   19.1307   15.1025  111.8248 O   0  0  0  0  0  0
   16.2450   13.7236  108.7452 C   0  0  0  0  0  0
   15.0816   14.0837  107.7630 C   0  0  0  0  0  0
   15.3862   14.2113  106.2548 C   0  0  0  0  0  0
   15.9180   12.9764  105.7066 N   0  0  0  0  0  0
   17.7292   13.2705  113.3857 C   0  0  0  0  0  0
   17.4115   11.9616  111.3585 C   0  0  0  0  0  0
   23.5180   13.5146  105.9129 H   0  0  0  0  0  0
   23.5115   15.5546  104.5682 H   0  0  0  0  0  0
   19.8955   16.8104  106.4387 H   0  0  0  0  0  0
   17.8824   14.3793  106.9133 H   0  0  0  0  0  0
   18.0642   16.0628  107.3878 H   0  0  0  0  0  0
   18.7990   17.0921  109.4514 H   0  0  0  0  0  0
   18.1140   19.1619  110.5255 H   0  0  0  0  0  0
   15.8019   19.4282  111.3637 H   0  0  0  0  0  0
   14.1900   17.5677  111.1711 H   0  0  0  0  0  0
   14.8704   15.4595  110.1569 H   0  0  0  0  0  0
   16.6976   12.7964  108.3897 H   0  0  0  0  0  0
   15.7844   13.4506  109.6951 H   0  0  0  0  0  0
   14.3087   13.3203  107.8716 H   0  0  0  0  0  0
   14.5966   15.0082  108.0640 H   0  0  0  0  0  0
   14.4684   14.4489  105.7147 H   0  0  0  0  0  0
   16.0608   15.0440  106.0567 H   0  0  0  0  0  0
   16.4465   13.1563  104.8602 H   0  0  0  0  0  0
   16.5729   12.5541  106.3529 H   0  0  0  0  0  0
   17.9440   14.2570  113.7975 H   0  0  0  0  0  0
   16.7200   13.0006  113.6992 H   0  0  0  0  0  0
   18.4227   12.5595  113.8390 H   0  0  0  0  0  0
   17.4872   11.9264  110.2735 H   0  0  0  0  0  0
   18.0371   11.1623  111.7528 H   0  0  0  0  0  0
   16.3768   11.7525  111.6313 H   0  0  0  0  0  0
  1  2  2  0  0  0
  1  6  1  0  0  0
  1 29  1  0  0  0
  2  3  1  0  0  0
  2 30  1  0  0  0
  3  4  2  0  0  0
  3  8  1  0  0  0
  4  5  1  0  0  0
  4 31  1  0  0  0
  5  9  1  0  0  0
  5  6  2  0  0  0
  6  7  1  0  0  0
  9 10  2  0  0  0
  9 13  1  0  0  0
 10 11  1  0  0  0
 11 20  1  0  0  0
 11 12  1  0  0  0
 12 14  1  0  0  0
 12 23  1  0  0  0
 12 13  1  0  0  0
 13 32  1  0  0  0
 13 33  1  0  0  0
 14 15  2  0  0  0
 14 19  1  0  0  0
 15 16  1  0  0  0
 15 34  1  0  0  0
 16 17  2  0  0  0
 16 35  1  0  0  0
 17 18  1  0  0  0
 17 36  1  0  0  0
 18 19  2  0  0  0
 18 37  1  0  0  0
 19 38  1  0  0  0
 20 21  1  0  0  0
 20 22  2  0  0  0
 21 27  1  0  0  0
 21 28  1  0  0  0
 23 24  1  0  0  0
 23 39  1  0  0  0
 23 40  1  0  0  0
 24 25  1  0  0  0
 24 41  1  0  0  0
 24 42  1  0  0  0
 25 26  1  0  0  0
 25 43  1  0  0  0
 25 44  1  0  0  0
 26 45  1  0  0  0
 26 46  1  0  0  0
 27 47  1  0  0  0
 27 48  1  0  0  0
 27 49  1  0  0  0
 28 50  1  0  0  0
 28 51  1  0  0  0
 28 52  1  0  0  0
M  END
> <s_m_entry_id>
208

> <s_m_entry_name>
dock_pv.207

> <s_m_Source_Path>
/home/csk/Desktop/cluster/DUD-E-result/kif11

> <s_m_Source_File>
dock_pv.maegz

> <i_m_Source_File_Index>
207

> <chembl_id>
CHEMBL208865

> <chembl_pref_name>
None

> <i_lp_mmshare_version>
53161

> <i_f3d_flags>
0

> <r_lp_tautomer_probability>
1

> <s_lp_Force_Field>
OPLS_2005

> <r_lp_Energy>
57.157816

> <b_lp_Chiralities_Consistent>
1

> <s_lp_Variant>
CHEMBL4581_lig90-1

> <s_i_glide_gridfile>
glide-grid_3cjo

> <i_i_glide_lignum>
144

> <i_i_glide_rotatable_bonds>
7

> <r_i_docking_score>
-7.99478408056605

> <r_i_glide_ligand_efficiency>
-0.285528002877359

> <r_i_glide_ligand_efficiency_sa>
-0.867031183736029

> <r_i_glide_ligand_efficiency_ln>
-1.84543090285521

> <r_i_glide_gscore>
-7.99478408056605

> <r_i_glide_lipo>
-3.5306302470294

> <r_i_glide_hbond>
0

> <r_i_glide_metal>
0

> <r_i_glide_rewards>
-2.50446611389518

> <r_i_glide_evdw>
-44.850715637207

> <r_i_glide_ecoul>
-2.45881795883179

> <r_i_glide_erotb>
0.651670756043647

> <r_i_glide_esite>
0

> <r_i_glide_emodel>
-68.6791720258108

> <r_i_glide_energy>
-47.3095335960388

> <r_i_glide_einternal>
3.3325023651123

> <i_i_glide_confnum>
72

> <i_i_glide_posenum>
330

> <r_i_glide_eff_state_penalty>
0

> <s_user_duplicate_titles>
CHEMBL4581_lig90

> <s_m_subgroup_title>
dock_pv

> <s_m_subgroupid>
dock_pv

> <b_m_subgroup_collapsed>
1

$$$$
CHEMBL4581_lig710
                    3D
 Schrodinger Suite 2021-1.
 52 55  0  0  1  0            999 V2000
   18.4982   17.1282  110.8311 C   0  0  0  0  0  0
   19.1482   16.0890  111.3767 C   0  0  0  0  0  0
   17.2465   14.7463  109.4871 C   0  0  0  0  0  0
   17.0871   17.1560  110.4167 C   0  0  0  0  0  0
   16.4272   16.0346  109.8510 C   0  0  0  0  0  0
   15.0382   16.1590  109.6428 C   0  0  0  0  0  0
   14.3460   17.3353  109.9186 C   0  0  0  0  0  0
   15.0238   18.4310  110.4335 C   0  0  0  0  0  0
   16.3858   18.3328  110.6860 C   0  0  0  0  0  0
   17.6481   14.1066  110.8619 C   0  0  0  0  0  0
   18.5975   14.7616  111.6914 C   0  0  0  0  0  0
   18.9918   14.2008  112.9111 C   0  0  0  0  0  0
   18.4347   13.0109  113.3601 C   0  0  0  0  0  0
   17.4933   12.3620  112.5758 C   0  0  0  0  0  0
   17.1183   12.8926  111.3441 C   0  0  0  0  0  0
   18.4878   15.0044  108.5763 C   0  0  0  0  0  0
   18.5755   16.1428  107.7580 C   0  0  0  0  0  0
   19.6768   16.3500  106.9329 C   0  0  0  0  0  0
   20.7179   15.4262  106.9189 C   0  0  0  0  0  0
   20.6634   14.3040  107.7439 C   0  0  0  0  0  0
   19.5549   14.0920  108.5606 C   0  0  0  0  0  0
   16.2343   13.5626  108.4668 S   0  0  0  0  0  0
   15.7648   14.5095  106.9707 C   0  0  0  0  0  0
   16.5307   14.0281  105.7129 C   0  0  1  0  0  0
   15.6283   13.1621  104.7907 C   0  0  0  0  0  0
   17.0655   15.1597  104.9201 N   0  0  0  0  0  0
   15.3063   11.9620  105.3590 O   0  0  0  0  0  0
   15.2483   13.5271  103.6755 O   0  0  0  0  0  0
   21.9101   15.6545  106.0072 C   0  0  0  0  0  0
   19.0572   18.0366  110.6528 H   0  0  0  0  0  0
   20.1939   16.2231  111.6129 H   0  0  0  0  0  0
   14.4553   15.3388  109.2564 H   0  0  0  0  0  0
   13.2830   17.3946  109.7366 H   0  0  0  0  0  0
   14.4944   19.3447  110.6609 H   0  0  0  0  0  0
   16.8980   19.1620  111.1445 H   0  0  0  0  0  0
   19.7082   14.7086  113.5410 H   0  0  0  0  0  0
   18.7220   12.6002  114.3180 H   0  0  0  0  0  0
   17.0308   11.4552  112.9317 H   0  0  0  0  0  0
   16.3793   12.3394  110.7855 H   0  0  0  0  0  0
   17.7803   16.8721  107.7394 H   0  0  0  0  0  0
   19.7163   17.2237  106.3004 H   0  0  0  0  0  0
   21.4678   13.5827  107.7402 H   0  0  0  0  0  0
   19.5207   13.2020  109.1729 H   0  0  0  0  0  0
   15.9482   15.5684  107.1442 H   0  0  0  0  0  0
   14.6828   14.4357  106.8508 H   0  0  0  0  0  0
   17.3718   13.4043  106.0213 H   0  0  0  0  0  0
   17.6110   14.7519  104.1706 H   0  0  0  0  0  0
   16.3071   15.6685  104.4865 H   0  0  0  0  0  0
   15.6438   11.8046  106.2493 H   0  0  0  0  0  0
   22.6884   14.9031  106.1489 H   0  0  0  0  0  0
   21.5959   15.6367  104.9630 H   0  0  0  0  0  0
   22.3472   16.6348  106.2010 H   0  0  0  0  0  0
  1  4  1  0  0  0
  1  2  2  0  0  0
  1 30  1  0  0  0
  2 11  1  0  0  0
  2 31  1  0  0  0
  3 10  1  0  0  0
  3  5  1  0  0  0
  3 16  1  0  0  0
  3 22  1  0  0  0
  4  5  2  0  0  0
  4  9  1  0  0  0
  5  6  1  0  0  0
  6  7  2  0  0  0
  6 32  1  0  0  0
  7  8  1  0  0  0
  7 33  1  0  0  0
  8  9  2  0  0  0
  8 34  1  0  0  0
  9 35  1  0  0  0
 10 11  2  0  0  0
 10 15  1  0  0  0
 11 12  1  0  0  0
 12 13  2  0  0  0
 12 36  1  0  0  0
 13 14  1  0  0  0
 13 37  1  0  0  0
 14 15  2  0  0  0
 14 38  1  0  0  0
 15 39  1  0  0  0
 16 17  2  0  0  0
 16 21  1  0  0  0
 17 18  1  0  0  0
 17 40  1  0  0  0
 18 19  2  0  0  0
 18 41  1  0  0  0
 19 20  1  0  0  0
 19 29  1  0  0  0
 20 21  2  0  0  0
 20 42  1  0  0  0
 21 43  1  0  0  0
 22 23  1  0  0  0
 23 24  1  0  0  0
 23 44  1  0  0  0
 23 45  1  0  0  0
 24 25  1  0  0  0
 24 26  1  0  0  0
 24 46  1  0  0  0
 25 27  1  0  0  0
 25 28  2  0  0  0
 26 47  1  0  0  0
 26 48  1  0  0  0
 27 49  1  0  0  0
 29 50  1  0  0  0
 29 51  1  0  0  0
 29 52  1  0  0  0
M  END
> <s_m_entry_id>
209

> <s_m_entry_name>
dock_pv.208

> <s_m_Source_Path>
/home/csk/Desktop/cluster/DUD-E-result/kif11

> <s_m_Source_File>
dock_pv.maegz

> <i_m_Source_File_Index>
208

> <chembl_id>
CHEMBL3633536

> <chembl_pref_name>
None

> <i_lp_mmshare_version>
53161

> <i_f3d_flags>
0

> <r_lp_tautomer_probability>
1

> <s_lp_Force_Field>
OPLS_2005

> <r_lp_Energy>
38.024779

> <b_lp_Chiralities_Consistent>
1

> <s_lp_Variant>
CHEMBL4581_lig710-1

> <s_i_glide_gridfile>
glide-grid_3cjo

> <i_i_glide_lignum>
1053

> <i_i_glide_rotatable_bonds>
6

> <r_i_docking_score>
-7.9938093961251

> <r_i_glide_ligand_efficiency>
-0.275648599866383

> <r_i_glide_ligand_efficiency_sa>
-0.846879830395668

> <r_i_glide_ligand_efficiency_ln>
-1.83037964619627

> <r_i_glide_gscore>
-7.9938093961251

> <r_i_glide_lipo>
-4.72408785310771

> <r_i_glide_hbond>
-0.00274191934481539

> <r_i_glide_metal>
0

> <r_i_glide_rewards>
-0.765817993492338

> <r_i_glide_evdw>
-45.8417167663574

> <r_i_glide_ecoul>
-5.31412267684937

> <r_i_glide_erotb>
0.608327562377963

> <r_i_glide_esite>
-0.0202849527129245

> <r_i_glide_emodel>
-76.5779260762913

> <r_i_glide_energy>
-51.1558394432068

> <r_i_glide_einternal>
2.7747631072998

> <i_i_glide_confnum>
8

> <i_i_glide_posenum>
260

> <r_i_glide_eff_state_penalty>
0

> <s_user_duplicate_titles>
CHEMBL4581_lig710

> <s_m_subgroup_title>
dock_pv

> <s_m_subgroupid>
dock_pv

> <b_m_subgroup_collapsed>
1

$$$$
CHEMBL4581_lig319
                    3D
 Schrodinger Suite 2021-1.
 48 51  0  0  1  0            999 V2000
   21.5162   15.0185  106.4067 C   0  0  0  0  0  0
   21.9180   13.7956  106.9589 C   0  0  0  0  0  0
   21.2903   13.3010  108.0889 C   0  0  0  0  0  0
   20.4095   15.6770  106.9577 C   0  0  0  0  0  0
   19.7533   15.1840  108.0902 C   0  0  0  0  0  0
   20.2232   13.9855  108.6499 C   0  0  0  0  0  0
   19.6120   13.3984  109.7584 N   0  0  0  0  0  0
   18.3364   13.9003  110.2464 C   0  0  2  0  0  0
   18.5483   15.9062  108.6832 C   0  0  2  0  0  0
   18.2965   15.4555  110.1474 C   0  0  1  0  0  0
   16.9775   16.0921  110.6509 C   0  0  0  0  0  0
   15.8178   15.8404  109.6707 C   0  0  0  0  0  0
   16.2181   16.2438  108.2384 C   0  0  0  0  0  0
   17.4238   15.5811  107.8626 O   0  0  0  0  0  0
   18.0941   13.3606  111.6459 C   0  0  0  0  0  0
   17.0813   12.4290  111.8661 C   0  0  0  0  0  0
   16.8410   11.9620  113.1555 C   0  0  0  0  0  0
   17.6612   12.3621  114.1982 C   0  0  0  0  0  0
   18.7223   13.2222  113.9660 C   0  0  0  0  0  0
   18.9209   13.7550  112.7008 C   0  0  0  0  0  0
   22.2723   15.6595  105.2422 C   0  0  0  0  0  0
   23.3597   14.7490  104.6371 C   0  0  0  0  0  0
   22.8430   17.0498  105.5891 C   0  0  0  0  0  0
   19.1098   15.8678  110.7476 H   0  0  0  0  0  0
   18.7263   16.9844  108.6589 H   0  0  0  0  0  0
   22.7385   13.2239  106.5571 H   0  0  0  0  0  0
   21.6158   12.3622  108.4951 H   0  0  0  0  0  0
   20.0675   16.6046  106.5207 H   0  0  0  0  0  0
   19.7479   12.4128  109.9339 H   0  0  0  0  0  0
   17.5624   13.4843  109.5985 H   0  0  0  0  0  0
   17.1178   17.1682  110.7691 H   0  0  0  0  0  0
   16.7184   15.7175  111.6408 H   0  0  0  0  0  0
   14.9318   16.3942  109.9835 H   0  0  0  0  0  0
   15.5415   14.7852  109.6859 H   0  0  0  0  0  0
   16.3420   17.3256  108.1565 H   0  0  0  0  0  0
   15.4317   15.9672  107.5356 H   0  0  0  0  0  0
   16.4512   12.0940  111.0543 H   0  0  0  0  0  0
   16.0332   11.2736  113.3589 H   0  0  0  0  0  0
   17.4915   11.9811  115.1951 H   0  0  0  0  0  0
   19.3816   13.4916  114.7719 H   0  0  0  0  0  0
   19.7361   14.4431  112.5317 H   0  0  0  0  0  0
   21.5180   15.8330  104.4863 H   0  0  0  0  0  0
   22.9821   13.7697  104.3677 H   0  0  0  0  0  0
   23.7893   15.1587  103.7314 H   0  0  0  0  0  0
   24.1477   14.5729  105.3656 H   0  0  0  0  0  0
   22.1421   17.6592  106.1589 H   0  0  0  0  0  0
   23.7672   16.9728  106.1590 H   0  0  0  0  0  0
   23.0715   17.6088  104.6828 H   0  0  0  0  0  0
  1  2  2  0  0  0
  1 21  1  0  0  0
  1  4  1  0  0  0
  2  3  1  0  0  0
  2 26  1  0  0  0
  3  6  2  0  0  0
  3 27  1  0  0  0
  4  5  2  0  0  0
  4 28  1  0  0  0
  5  9  1  0  0  0
  5  6  1  0  0  0
  6  7  1  0  0  0
  7  8  1  0  0  0
  7 29  1  0  0  0
  8 10  1  0  0  0
  8 15  1  0  0  0
  8 30  1  0  0  0
  9 14  1  0  0  0
  9 10  1  0  0  0
  9 25  1  0  0  0
 10 11  1  0  0  0
 10 24  1  0  0  0
 11 12  1  0  0  0
 11 31  1  0  0  0
 11 32  1  0  0  0
 12 13  1  0  0  0
 12 33  1  0  0  0
 12 34  1  0  0  0
 13 14  1  0  0  0
 13 35  1  0  0  0
 13 36  1  0  0  0
 15 16  2  0  0  0
 15 20  1  0  0  0
 16 17  1  0  0  0
 16 37  1  0  0  0
 17 18  2  0  0  0
 17 38  1  0  0  0
 18 19  1  0  0  0
 18 39  1  0  0  0
 19 20  2  0  0  0
 19 40  1  0  0  0
 20 41  1  0  0  0
 21 22  1  0  0  0
 21 23  1  0  0  0
 21 42  1  0  0  0
 22 43  1  0  0  0
 22 44  1  0  0  0
 22 45  1  0  0  0
 23 46  1  0  0  0
 23 47  1  0  0  0
 23 48  1  0  0  0
M  END
> <s_m_entry_id>
210

> <s_m_entry_name>
dock_pv.209

> <s_m_Source_Path>
/home/csk/Desktop/cluster/DUD-E-result/kif11

> <s_m_Source_File>
dock_pv.maegz

> <i_m_Source_File_Index>
209

> <chembl_id>
CHEMBL1092159

> <chembl_pref_name>
None

> <i_lp_mmshare_version>
53161

> <i_f3d_flags>
0

> <r_lp_tautomer_probability>
1

> <s_lp_Force_Field>
OPLS_2005

> <r_lp_Energy>
25.826316

> <b_lp_Chiralities_Consistent>
1

> <s_lp_Variant>
CHEMBL4581_lig319-1

> <s_i_glide_gridfile>
glide-grid_3cjo

> <i_i_glide_lignum>
472

> <i_i_glide_rotatable_bonds>
2

> <r_i_docking_score>
-7.98882616743012

> <r_i_glide_ligand_efficiency>
-0.347340268149136

> <r_i_glide_ligand_efficiency_sa>
-0.987789518329713

> <r_i_glide_ligand_efficiency_ln>
-1.93177060595531

> <r_i_glide_gscore>
-7.98882616743012

> <r_i_glide_lipo>
-5.11088909174835

> <r_i_glide_hbond>
-0.100063413721953

> <r_i_glide_metal>
0

> <r_i_glide_rewards>
-1.46298204545454

> <r_i_glide_evdw>
-26.4713726043701

> <r_i_glide_ecoul>
-1.24615240097046

> <r_i_glide_erotb>
0.195599873858802

> <r_i_glide_esite>
0

> <r_i_glide_emodel>
-40.797515877453

> <r_i_glide_energy>
-27.7175250053406

> <r_i_glide_einternal>
1.28694975376129

> <i_i_glide_confnum>
1

> <i_i_glide_posenum>
1

> <r_i_glide_eff_state_penalty>
0

> <s_user_duplicate_titles>
CHEMBL4581_lig319,616210

> <s_m_subgroup_title>
dock_pv

> <s_m_subgroupid>
dock_pv

> <b_m_subgroup_collapsed>
1

$$$$
CHEMBL4581_lig98
                    3D
 Schrodinger Suite 2021-1.
 68 71  0  0  1  0            999 V2000
   22.5652   14.0485  106.1589 C   0  0  0  0  0  0
   22.7008   15.1619  105.3368 C   0  0  0  0  0  0
   21.7721   16.1945  105.4163 C   0  0  0  0  0  0
   20.7068   16.1060  106.3124 C   0  0  0  0  0  0
   20.5563   14.9861  107.1528 C   0  0  0  0  0  0
   21.5180   13.9618  107.0720 C   0  0  0  0  0  0
   21.5181   12.8958  107.9045 F   0  0  0  0  0  0
   21.8965   17.2739  104.6152 F   0  0  0  0  0  0
   19.4253   14.9446  108.1059 C   0  0  0  0  0  0
   18.7174   15.9493  108.4214 N   0  0  0  0  0  0
   17.6980   15.6000  109.2463 N   0  0  0  0  0  0
   17.7038   14.1455  109.5636 C   0  0  1  0  0  0
   18.9701   13.6988  108.8282 C   0  0  0  0  0  0
   17.8765   13.8402  111.0786 C   0  0  0  0  0  0
   18.7322   14.6393  111.8529 C   0  0  0  0  0  0
   18.9918   14.3215  113.1834 C   0  0  0  0  0  0
   18.3850   13.2087  113.7589 C   0  0  0  0  0  0
   17.5178   12.4175  113.0166 C   0  0  0  0  0  0
   17.2667   12.7288  111.6857 C   0  0  0  0  0  0
   16.6624   16.4617  109.4110 C   0  0  0  0  0  0
   16.2366   16.5591  110.6814 N   0  0  0  0  0  0
   16.2044   17.1591  108.5002 O   0  0  0  0  0  0
   15.1566   17.4370  111.1333 C   0  0  0  0  0  0
   16.4325   13.4493  108.9408 C   0  0  0  0  0  0
   15.5102   18.9336  111.0633 C   0  0  0  0  0  0
   16.2066   13.6135  107.4149 C   0  0  0  0  0  0
   14.7263   13.4861  107.0004 C   0  0  0  0  0  0
   13.9290   14.8018  107.0777 C   0  0  0  0  0  0
   14.4004   15.7818  106.1080 N   0  0  1  0  0  0
   13.9287   15.5040  104.7547 C   0  0  0  0  0  0
   14.5070   16.5137  103.7818 C   0  0  0  0  0  0
   14.0602   17.8363  103.8154 C   0  0  0  0  0  0
   14.5711   18.7622  102.9140 C   0  0  0  0  0  0
   15.5180   18.3618  101.9721 C   0  0  0  0  0  0
   15.9695   17.0438  101.9331 C   0  0  0  0  0  0
   15.4642   16.1173  102.8415 C   0  0  0  0  0  0
   23.2764   13.2439  106.1017 H   0  0  0  0  0  0
   23.5144   15.2121  104.6305 H   0  0  0  0  0  0
   20.0027   16.9261  106.3487 H   0  0  0  0  0  0
   19.7511   13.3554  109.5094 H   0  0  0  0  0  0
   18.7413   12.8774  108.1591 H   0  0  0  0  0  0
   19.2375   15.4881  111.4141 H   0  0  0  0  0  0
   19.6721   14.9272  113.7621 H   0  0  0  0  0  0
   18.5905   12.9541  114.7885 H   0  0  0  0  0  0
   17.0389   11.5616  113.4677 H   0  0  0  0  0  0
   16.6044   12.0677  111.1502 H   0  0  0  0  0  0
   16.7126   16.0116  111.3832 H   0  0  0  0  0  0
   14.2548   17.2408  110.5503 H   0  0  0  0  0  0
   14.9145   17.1661  112.1591 H   0  0  0  0  0  0
   15.5514   13.7922  109.4845 H   0  0  0  0  0  0
   16.4737   12.3728  109.1037 H   0  0  0  0  0  0
   14.6908   19.5417  111.4486 H   0  0  0  0  0  0
   16.3930   19.1610  111.6616 H   0  0  0  0  0  0
   15.6977   19.2631  110.0415 H   0  0  0  0  0  0
   16.7811   12.8464  106.8931 H   0  0  0  0  0  0
   16.6045   14.5589  107.0472 H   0  0  0  0  0  0
   14.2352   12.7618  107.6420 H   0  0  0  0  0  0
   14.6617   13.0537  106.0021 H   0  0  0  0  0  0
   14.0653   15.2328  108.0701 H   0  0  0  0  0  0
   12.8572   14.6301  106.9647 H   0  0  0  0  0  0
   14.1524   16.7166  106.4044 H   0  0  0  0  0  0
   12.8364   15.5470  104.7111 H   0  0  0  0  0  0
   14.2527   14.5075  104.4507 H   0  0  0  0  0  0
   13.3219   18.1478  104.5408 H   0  0  0  0  0  0
   14.2346   19.7866  102.9569 H   0  0  0  0  0  0
   15.9118   19.0866  101.2732 H   0  0  0  0  0  0
   16.7058   16.7443  101.2016 H   0  0  0  0  0  0
   15.8141   15.0953  102.8146 H   0  0  0  0  0  0
  1  6  1  0  0  0
  1  2  2  0  0  0
  1 37  1  0  0  0
  2  3  1  0  0  0
  2 38  1  0  0  0
  3  4  2  0  0  0
  3  8  1  0  0  0
  4  5  1  0  0  0
  4 39  1  0  0  0
  5  9  1  0  0  0
  5  6  2  0  0  0
  6  7  1  0  0  0
  9 10  2  0  0  0
  9 13  1  0  0  0
 10 11  1  0  0  0
 11 20  1  0  0  0
 11 12  1  0  0  0
 12 24  1  0  0  0
 12 13  1  0  0  0
 12 14  1  0  0  0
 13 40  1  0  0  0
 13 41  1  0  0  0
 14 19  1  0  0  0
 14 15  2  0  0  0
 15 16  1  0  0  0
 15 42  1  0  0  0
 16 17  2  0  0  0
 16 43  1  0  0  0
 17 18  1  0  0  0
 17 44  1  0  0  0
 18 19  2  0  0  0
 18 45  1  0  0  0
 19 46  1  0  0  0
 20 21  1  0  0  0
 20 22  2  0  0  0
 21 23  1  0  0  0
 21 47  1  0  0  0
 23 25  1  0  0  0
 23 48  1  0  0  0
 23 49  1  0  0  0
 24 26  1  0  0  0
 24 50  1  0  0  0
 24 51  1  0  0  0
 25 52  1  0  0  0
 25 53  1  0  0  0
 25 54  1  0  0  0
 26 27  1  0  0  0
 26 55  1  0  0  0
 26 56  1  0  0  0
 27 28  1  0  0  0
 27 57  1  0  0  0
 27 58  1  0  0  0
 28 29  1  0  0  0
 28 59  1  0  0  0
 28 60  1  0  0  0
 29 30  1  0  0  0
 29 61  1  0  0  0
 30 31  1  0  0  0
 30 62  1  0  0  0
 30 63  1  0  0  0
 31 32  2  0  0  0
 31 36  1  0  0  0
 32 33  1  0  0  0
 32 64  1  0  0  0
 33 34  2  0  0  0
 33 65  1  0  0  0
 34 35  1  0  0  0
 34 66  1  0  0  0
 35 36  2  0  0  0
 35 67  1  0  0  0
 36 68  1  0  0  0
M  END
> <s_m_entry_id>
211

> <s_m_entry_name>
dock_pv.210

> <s_m_Source_Path>
/home/csk/Desktop/cluster/DUD-E-result/kif11

> <s_m_Source_File>
dock_pv.maegz

> <i_m_Source_File_Index>
210

> <chembl_id>
CHEMBL207993

> <chembl_pref_name>
None

> <i_lp_mmshare_version>
53161

> <i_f3d_flags>
0

> <r_lp_tautomer_probability>
1

> <s_lp_Force_Field>
OPLS_2005

> <r_lp_Energy>
38.34234

> <b_lp_Chiralities_Consistent>
1

> <s_lp_Variant>
CHEMBL4581_lig98-2

> <s_i_glide_gridfile>
glide-grid_3cjo

> <i_i_glide_lignum>
165

> <i_i_glide_rotatable_bonds>
12

> <r_i_docking_score>
-7.98300361335879

> <r_i_glide_ligand_efficiency>
-0.221750100371078

> <r_i_glide_ligand_efficiency_sa>
-0.732202697985759

> <r_i_glide_ligand_efficiency_ln>
-1.74167571260167

> <r_i_glide_gscore>
-7.98300361335879

> <r_i_glide_lipo>
-4.55402855386069

> <r_i_glide_hbond>
0

> <r_i_glide_metal>
0

> <r_i_glide_rewards>
-1.61678592935071

> <r_i_glide_evdw>
-51.9152221679688

> <r_i_glide_ecoul>
-0.413527488708496

> <r_i_glide_erotb>
0.845601101557321

> <r_i_glide_esite>
0

> <r_i_glide_emodel>
-73.5848374594249

> <r_i_glide_energy>
-52.3287496566772

> <r_i_glide_einternal>
6.4426417350769

> <i_i_glide_confnum>
8

> <i_i_glide_posenum>
320

> <r_i_glide_eff_state_penalty>
0

> <s_user_duplicate_titles>
CHEMBL4581_lig98,347635

> <s_m_subgroup_title>
dock_pv

> <s_m_subgroupid>
dock_pv

> <b_m_subgroup_collapsed>
1

$$$$
CHEMBL4581_lig197
                    3D
 Schrodinger Suite 2021-1.
 36 38  0  0  1  0            999 V2000
   18.7180   13.6651  113.3582 C   0  0  0  0  0  0
   19.0198   14.7202  112.4925 C   0  0  0  0  0  0
   18.5288   14.7237  111.1798 C   0  0  0  0  0  0
   17.7325   13.6575  110.7540 C   0  0  0  0  0  0
   17.4508   12.6029  111.6098 C   0  0  0  0  0  0
   17.9184   12.6109  112.9207 C   0  0  0  0  0  0
   18.8335   15.8934  110.2411 C   0  0  2  0  0  0
   17.8843   17.0246  110.4210 N   0  0  0  0  0  0
   16.8813   17.3770  109.5617 C   0  0  0  0  0  0
   16.7779   16.6074  108.4423 N   0  0  0  0  0  0
   17.7832   15.8411  107.9368 C   0  0  0  0  0  0
   18.8551   15.5327  108.7193 C   0  0  0  0  0  0
   16.0009   18.7618  109.7590 S   0  0  0  0  0  0
   19.9692   14.6923  108.2456 C   0  0  0  0  0  0
   20.3180   13.6798  108.8549 O   0  0  0  0  0  0
   16.7180   11.5620  111.1323 O   0  0  0  0  0  0
   17.5151   15.3902  106.5029 C   0  0  0  0  0  0
   20.7180   15.1611  107.0776 C   0  0  0  0  0  0
   20.7180   16.3620  106.3739 C   0  0  0  0  0  0
   21.7285   16.2757  105.4141 C   0  0  0  0  0  0
   22.2911   15.0182  105.5583 C   0  0  0  0  0  0
   21.6722   14.3395  106.5590 O   0  0  0  0  0  0
   19.1169   13.6456  114.3610 H   0  0  0  0  0  0
   19.6440   15.5301  112.8388 H   0  0  0  0  0  0
   17.3427   13.6268  109.7474 H   0  0  0  0  0  0
   17.6936   11.7928  113.5870 H   0  0  0  0  0  0
   19.8408   16.1675  110.5590 H   0  0  0  0  0  0
   17.9613   17.6172  111.2351 H   0  0  0  0  0  0
   15.9902   16.8689  107.8685 H   0  0  0  0  0  0
   16.1155   11.1620  111.7707 H   0  0  0  0  0  0
   18.2136   14.6307  106.1519 H   0  0  0  0  0  0
   16.5192   14.9531  106.4187 H   0  0  0  0  0  0
   17.5727   16.2389  105.8209 H   0  0  0  0  0  0
   20.0762   17.2107  106.5590 H   0  0  0  0  0  0
   22.0115   17.0328  104.6973 H   0  0  0  0  0  0
   23.0804   14.4892  105.0443 H   0  0  0  0  0  0
  1  6  1  0  0  0
  1  2  2  0  0  0
  1 23  1  0  0  0
  2  3  1  0  0  0
  2 24  1  0  0  0
  3  7  1  0  0  0
  3  4  2  0  0  0
  4  5  1  0  0  0
  4 25  1  0  0  0
  5  6  2  0  0  0
  5 16  1  0  0  0
  6 26  1  0  0  0
  7 12  1  0  0  0
  7  8  1  0  0  0
  7 27  1  0  0  0
  8  9  1  0  0  0
  8 28  1  0  0  0
  9 13  2  0  0  0
  9 10  1  0  0  0
 10 11  1  0  0  0
 10 29  1  0  0  0
 11 12  2  0  0  0
 11 17  1  0  0  0
 12 14  1  0  0  0
 14 15  2  0  0  0
 14 18  1  0  0  0
 16 30  1  0  0  0
 17 31  1  0  0  0
 17 32  1  0  0  0
 17 33  1  0  0  0
 18 19  2  0  0  0
 18 22  1  0  0  0
 19 20  1  0  0  0
 19 34  1  0  0  0
 20 21  2  0  0  0
 20 35  1  0  0  0
 21 22  1  0  0  0
 21 36  1  0  0  0
M  END
> <s_m_entry_id>
212

> <s_m_entry_name>
dock_pv.211

> <s_m_Source_Path>
/home/csk/Desktop/cluster/DUD-E-result/kif11

> <s_m_Source_File>
dock_pv.maegz

> <i_m_Source_File_Index>
211

> <chembl_id>
CHEMBL240471

> <chembl_pref_name>
None

> <i_lp_mmshare_version>
53161

> <i_f3d_flags>
0

> <r_lp_tautomer_probability>
0.999999999995238

> <s_lp_Force_Field>
OPLS_2005

> <r_lp_Energy>
34.935961

> <b_lp_Chiralities_Consistent>
1

> <s_lp_Variant>
CHEMBL4581_lig197-1

> <s_i_glide_gridfile>
glide-grid_3cjo

> <i_i_glide_lignum>
298

> <i_i_glide_rotatable_bonds>
4

> <r_i_docking_score>
-7.97653051887508

> <r_i_glide_ligand_efficiency>
-0.362569569039776

> <r_i_glide_ligand_efficiency_sa>
-1.01593419150146

> <r_i_glide_ligand_efficiency_ln>
-1.94975500983305

> <r_i_glide_gscore>
-7.97653051887508

> <r_i_glide_lipo>
-3.5039808377536

> <r_i_glide_hbond>
-0.271684986768246

> <r_i_glide_metal>
0

> <r_i_glide_rewards>
-2.16069801591924

> <r_i_glide_evdw>
-41.8470458984375

> <r_i_glide_ecoul>
-3.41385579109192

> <r_i_glide_erotb>
0.564263985151667

> <r_i_glide_esite>
0

> <r_i_glide_emodel>
-62.9226649646164

> <r_i_glide_energy>
-45.2609016895294

> <r_i_glide_einternal>
5.23635339736938

> <i_i_glide_confnum>
10

> <i_i_glide_posenum>
324

> <r_i_glide_eff_state_penalty>
0

> <s_user_duplicate_titles>
CHEMBL4581_lig197

> <s_m_subgroup_title>
dock_pv

> <s_m_subgroupid>
dock_pv

> <b_m_subgroup_collapsed>
1

$$$$
CHEMBL4581_lig3
                    3D
 Schrodinger Suite 2021-1.
 50 52  0  0  1  0            999 V2000
   16.3183   14.7034  104.4461 N   0  0  0  0  0  0
   16.1343   13.3847  105.0946 C   0  0  2  0  0  0
   14.6283   12.9969  105.0184 C   0  0  0  0  0  0
   14.3182   11.8923  105.7588 O   0  0  0  0  0  0
   13.8169   13.6075  104.3197 O   0  0  0  0  0  0
   16.7634   13.3443  106.5116 C   0  0  0  0  0  0
   15.9994   14.5425  107.6624 S   0  0  0  0  0  0
   17.2957   15.1622  108.8364 C   0  0  0  0  0  0
   18.6508   15.2369  108.0443 C   0  0  0  0  0  0
   16.6578   16.5066  109.3280 C   0  0  0  0  0  0
   17.4540   14.2416  110.0929 C   0  0  0  0  0  0
   19.7125   14.3621  108.3426 C   0  0  0  0  0  0
   20.8877   14.3622  107.6019 C   0  0  0  0  0  0
   21.0780   15.2836  106.5695 C   0  0  0  0  0  0
   20.0212   16.1324  106.2268 C   0  0  0  0  0  0
   18.8184   16.0843  106.9370 C   0  0  0  0  0  0
   18.1369   14.7520  111.2120 C   0  0  0  0  0  0
   18.3107   13.9869  112.3615 C   0  0  0  0  0  0
   17.7974   12.6960  112.4097 C   0  0  0  0  0  0
   17.1180   12.1686  111.3165 C   0  0  0  0  0  0
   16.9452   12.9342  110.1649 C   0  0  0  0  0  0
   15.5103   16.4256  110.1429 C   0  0  0  0  0  0
   14.8334   17.5606  110.5716 C   0  0  0  0  0  0
   15.2846   18.8105  110.1769 C   0  0  0  0  0  0
   16.4174   18.9267  109.3828 C   0  0  0  0  0  0
   17.1272   17.7891  108.9911 C   0  0  0  0  0  0
   22.4373   15.3862  105.8616 C   0  0  0  0  0  0
   23.2531   14.3748  106.1596 F   0  0  0  0  0  0
   22.3162   15.3755  104.5582 F   0  0  0  0  0  0
   23.0313   16.5388  106.1589 F   0  0  0  0  0  0
   15.5713   14.8502  103.7788 H   0  0  0  0  0  0
   16.2372   15.4333  105.1402 H   0  0  0  0  0  0
   16.6464   12.6286  104.4983 H   0  0  0  0  0  0
   15.0246   11.5137  106.2984 H   0  0  0  0  0  0
   17.8311   13.5160  106.3999 H   0  0  0  0  0  0
   16.6875   12.3607  106.9583 H   0  0  0  0  0  0
   19.6459   13.6357  109.1380 H   0  0  0  0  0  0
   21.6725   13.6713  107.8752 H   0  0  0  0  0  0
   20.1305   16.8340  105.4123 H   0  0  0  0  0  0
   18.0034   16.7140  106.6162 H   0  0  0  0  0  0
   18.5414   15.7539  111.1867 H   0  0  0  0  0  0
   18.8395   14.3928  113.2115 H   0  0  0  0  0  0
   17.9267   12.0979  113.2999 H   0  0  0  0  0  0
   16.7184   11.1640  111.3573 H   0  0  0  0  0  0
   16.4184   12.4838  109.3382 H   0  0  0  0  0  0
   15.1177   15.4610  110.4271 H   0  0  0  0  0  0
   13.9500   17.4725  111.1865 H   0  0  0  0  0  0
   14.7515   19.6982  110.4858 H   0  0  0  0  0  0
   16.7180   19.9144  109.0759 H   0  0  0  0  0  0
   18.0231   17.9427  108.4140 H   0  0  0  0  0  0
  1  2  1  0  0  0
  1 31  1  0  0  0
  1 32  1  0  0  0
  2  3  1  0  0  0
  2  6  1  0  0  0
  2 33  1  0  0  0
  3  4  1  0  0  0
  3  5  2  0  0  0
  4 34  1  0  0  0
  6  7  1  0  0  0
  6 35  1  0  0  0
  6 36  1  0  0  0
  7  8  1  0  0  0
  8  9  1  0  0  0
  8 10  1  0  0  0
  8 11  1  0  0  0
  9 16  1  0  0  0
  9 12  2  0  0  0
 10 22  2  0  0  0
 10 26  1  0  0  0
 11 17  2  0  0  0
 11 21  1  0  0  0
 12 13  1  0  0  0
 12 37  1  0  0  0
 13 14  2  0  0  0
 13 38  1  0  0  0
 14 27  1  0  0  0
 14 15  1  0  0  0
 15 16  2  0  0  0
 15 39  1  0  0  0
 16 40  1  0  0  0
 17 18  1  0  0  0
 17 41  1  0  0  0
 18 19  2  0  0  0
 18 42  1  0  0  0
 19 20  1  0  0  0
 19 43  1  0  0  0
 20 21  2  0  0  0
 20 44  1  0  0  0
 21 45  1  0  0  0
 22 23  1  0  0  0
 22 46  1  0  0  0
 23 24  2  0  0  0
 23 47  1  0  0  0
 24 25  1  0  0  0
 24 48  1  0  0  0
 25 26  2  0  0  0
 25 49  1  0  0  0
 26 50  1  0  0  0
 27 28  1  0  0  0
 27 29  1  0  0  0
 27 30  1  0  0  0
M  END
> <s_m_entry_id>
213

> <s_m_entry_name>
dock_pv.212

> <s_m_Source_Path>
/home/csk/Desktop/cluster/DUD-E-result/kif11

> <s_m_Source_File>
dock_pv.maegz

> <i_m_Source_File_Index>
212

> <chembl_id>
CHEMBL232133

> <chembl_pref_name>
None

> <i_lp_mmshare_version>
53161

> <i_f3d_flags>
0

> <r_lp_tautomer_probability>
1

> <s_lp_Force_Field>
OPLS_2005

> <r_lp_Energy>
22.945175

> <b_lp_Chiralities_Consistent>
1

> <s_lp_Variant>
CHEMBL4581_lig3-1

> <s_i_glide_gridfile>
glide-grid_3cjo

> <i_i_glide_lignum>
3

> <i_i_glide_rotatable_bonds>
9

> <r_i_docking_score>
-7.97275091029128

> <r_i_glide_ligand_efficiency>
-0.265758363676376

> <r_i_glide_ligand_efficiency_sa>
-0.825773025408137

> <r_i_glide_ligand_efficiency_ln>
-1.81149587689709

> <r_i_glide_gscore>
-7.97275091029128

> <r_i_glide_lipo>
-4.20167203708478

> <r_i_glide_hbond>
0

> <r_i_glide_metal>
0

> <r_i_glide_rewards>
-1.68580346961434

> <r_i_glide_evdw>
-41.2691307067871

> <r_i_glide_ecoul>
-5.13132476806641

> <r_i_glide_erotb>
0.747879846957148

> <r_i_glide_esite>
0

> <r_i_glide_emodel>
-65.1638021055174

> <r_i_glide_energy>
-46.4004554748535

> <r_i_glide_einternal>
8.77234840393066

> <i_i_glide_confnum>
15

> <i_i_glide_posenum>
308

> <r_i_glide_eff_state_penalty>
0

> <s_user_duplicate_titles>
CHEMBL4581_lig3,397759

> <s_m_subgroup_title>
dock_pv

> <s_m_subgroupid>
dock_pv

> <b_m_subgroup_collapsed>
1

$$$$
CHEMBL4581_lig752
                    3D
 Schrodinger Suite 2021-1.
 34 35  0  0  1  0            999 V2000
   21.0297   15.7148  106.4203 C   0  0  0  0  0  0
   21.9099   16.5770  105.5216 C   0  0  0  0  0  0
   21.3181   14.5254  106.5574 O   0  0  0  0  0  0
   20.0071   16.3623  107.0207 N   0  0  0  0  0  0
   18.9570   14.1991  108.4091 S   0  0  0  0  0  0
   19.0952   15.9210  107.9273 C   0  0  0  0  0  0
   18.3167   16.7403  108.4962 N   0  0  0  0  0  0
   17.4973   16.1199  109.3890 N   0  0  0  0  0  0
   17.5807   14.6373  109.4871 C   0  0  1  0  0  0
   16.3196   14.0032  108.8304 C   0  0  0  0  0  0
   17.8886   14.1141  110.9202 C   0  0  0  0  0  0
   18.8518   14.7463  111.7302 C   0  0  0  0  0  0
   19.1289   14.2756  113.0136 C   0  0  0  0  0  0
   18.4359   13.1842  113.5285 C   0  0  0  0  0  0
   17.4677   12.5610  112.7523 C   0  0  0  0  0  0
   17.2124   13.0027  111.4542 C   0  0  0  0  0  0
   16.7300   11.5624  113.2811 F   0  0  0  0  0  0
   19.5178   15.8355  111.2897 F   0  0  0  0  0  0
   16.6513   16.8621  110.1670 C   0  0  0  0  0  0
   15.8490   16.3624  110.9572 O   0  0  0  0  0  0
   16.6928   18.3944  110.0852 C   0  0  0  0  0  0
   22.9413   16.5459  105.8728 H   0  0  0  0  0  0
   21.5836   17.6167  105.5108 H   0  0  0  0  0  0
   21.8891   16.1982  104.5002 H   0  0  0  0  0  0
   19.9583   17.3565  106.8506 H   0  0  0  0  0  0
   15.4249   14.1716  109.4304 H   0  0  0  0  0  0
   16.1257   14.4275  107.8437 H   0  0  0  0  0  0
   16.4244   12.9261  108.6904 H   0  0  0  0  0  0
   19.8820   14.7620  113.6140 H   0  0  0  0  0  0
   18.6325   12.8295  114.5304 H   0  0  0  0  0  0
   16.4554   12.4775  110.8929 H   0  0  0  0  0  0
   17.6992   18.7622  110.2916 H   0  0  0  0  0  0
   16.3958   18.7301  109.0923 H   0  0  0  0  0  0
   16.0174   18.8403  110.8160 H   0  0  0  0  0  0
  1  2  1  0  0  0
  1  3  2  0  0  0
  1  4  1  0  0  0
  2 22  1  0  0  0
  2 23  1  0  0  0
  2 24  1  0  0  0
  4  6  1  0  0  0
  4 25  1  0  0  0
  5  6  1  0  0  0
  5  9  1  0  0  0
  6  7  2  0  0  0
  7  8  1  0  0  0
  8  9  1  0  0  0
  8 19  1  0  0  0
  9 10  1  0  0  0
  9 11  1  0  0  0
 10 26  1  0  0  0
 10 27  1  0  0  0
 10 28  1  0  0  0
 11 12  1  0  0  0
 11 16  2  0  0  0
 12 13  2  0  0  0
 12 18  1  0  0  0
 13 14  1  0  0  0
 13 29  1  0  0  0
 14 15  2  0  0  0
 14 30  1  0  0  0
 15 16  1  0  0  0
 15 17  1  0  0  0
 16 31  1  0  0  0
 19 20  2  0  0  0
 19 21  1  0  0  0
 21 32  1  0  0  0
 21 33  1  0  0  0
 21 34  1  0  0  0
M  END
> <s_m_entry_id>
214

> <s_m_entry_name>
dock_pv.213

> <s_m_Source_Path>
/home/csk/Desktop/cluster/DUD-E-result/kif11

> <s_m_Source_File>
dock_pv.maegz

> <i_m_Source_File_Index>
213

> <chembl_id>
CHEMBL3735751

> <chembl_pref_name>
None

> <i_lp_mmshare_version>
53161

> <i_f3d_flags>
0

> <r_lp_tautomer_probability>
1

> <s_lp_Force_Field>
OPLS_2005

> <r_lp_Energy>
16.613263

> <b_lp_Chiralities_Consistent>
1

> <s_lp_Variant>
CHEMBL4581_lig752-2

> <s_i_glide_gridfile>
glide-grid_3cjo

> <i_i_glide_lignum>
1111

> <i_i_glide_rotatable_bonds>
4

> <r_i_docking_score>
-7.97110586665502

> <r_i_glide_ligand_efficiency>
-0.379576469840715

> <r_i_glide_ligand_efficiency_sa>
-1.04722269836618

> <r_i_glide_ligand_efficiency_ln>
-1.97083981839443

> <r_i_glide_gscore>
-7.97110586665502

> <r_i_glide_lipo>
-2.72315513130465

> <r_i_glide_hbond>
-0.245698585808717

> <r_i_glide_metal>
0

> <r_i_glide_rewards>
-2.86927410699104

> <r_i_glide_evdw>
-41.2876396179199

> <r_i_glide_ecoul>
-2.97974491119385

> <r_i_glide_erotb>
0.378365675024464

> <r_i_glide_esite>
0

> <r_i_glide_emodel>
-62.7806032480259

> <r_i_glide_energy>
-44.2673845291138

> <r_i_glide_einternal>
4.2830638885498

> <i_i_glide_confnum>
2

> <i_i_glide_posenum>
182

> <r_i_glide_eff_state_penalty>
0

> <s_user_duplicate_titles>
CHEMBL4581_lig752

> <s_m_subgroup_title>
dock_pv

> <s_m_subgroupid>
dock_pv

> <b_m_subgroup_collapsed>
1

$$$$
CHEMBL4581_lig593
                    3D
 Schrodinger Suite 2021-1.
 50 52  0  0  1  0            999 V2000
   18.8470   14.8282  107.9272 C   0  0  0  0  0  0
   17.4356   14.8086  108.5959 C   0  0  1  0  0  0
   17.1109   16.0928  109.4142 C   0  0  0  0  0  0
   18.0303   17.1465  109.5631 C   0  0  0  0  0  0
   17.7149   18.2681  110.3252 C   0  0  0  0  0  0
   16.4713   18.3547  110.9411 C   0  0  0  0  0  0
   15.5427   17.3289  110.8050 C   0  0  0  0  0  0
   15.8626   16.2056  110.0487 C   0  0  0  0  0  0
   16.1796   14.7396  107.2386 S   0  0  0  0  0  0
   16.5627   13.1990  106.3447 C   0  0  0  0  0  0
   15.7839   13.0013  105.0373 C   0  0  0  0  0  0
   17.1846   13.5181  109.4743 C   0  0  0  0  0  0
   17.6935   13.4437  110.9250 C   0  0  0  0  0  0
   18.6896   14.2857  111.4406 C   0  0  0  0  0  0
   19.0846   14.1733  112.7731 C   0  0  0  0  0  0
   18.4953   13.2103  113.5890 C   0  0  0  0  0  0
   17.5159   12.3607  113.0859 C   0  0  0  0  0  0
   17.1222   12.4736  111.7548 C   0  0  0  0  0  0
   16.3180   13.8497  103.9860 N   0  0  0  0  0  0
   19.0906   15.6898  106.8436 C   0  0  0  0  0  0
   20.3030   15.6763  106.1629 C   0  0  0  0  0  0
   21.1069   13.9619  107.6574 C   0  0  0  0  0  0
   19.8859   13.9731  108.3340 C   0  0  0  0  0  0
   21.3062   14.7999  106.5591 C   0  0  0  0  0  0
   22.6142   14.7469  105.7873 C   0  0  0  0  0  0
   19.0082   17.1179  109.1067 H   0  0  0  0  0  0
   18.4356   19.0641  110.4465 H   0  0  0  0  0  0
   16.2263   19.2239  111.5340 H   0  0  0  0  0  0
   14.5832   17.4025  111.2949 H   0  0  0  0  0  0
   15.1310   15.4154  109.9545 H   0  0  0  0  0  0
   17.6347   13.1394  106.1611 H   0  0  0  0  0  0
   16.3258   12.3669  107.0046 H   0  0  0  0  0  0
   15.8671   11.9638  104.7191 H   0  0  0  0  0  0
   14.7218   13.2045  105.1821 H   0  0  0  0  0  0
   16.1058   13.3663  109.5524 H   0  0  0  0  0  0
   17.5404   12.6308  108.9516 H   0  0  0  0  0  0
   19.1729   15.0267  110.8249 H   0  0  0  0  0  0
   19.8512   14.8244  113.1660 H   0  0  0  0  0  0
   18.8044   13.1134  114.6202 H   0  0  0  0  0  0
   17.0648   11.6050  113.7166 H   0  0  0  0  0  0
   16.3675   11.8021  111.3725 H   0  0  0  0  0  0
   17.3016   13.5948  103.8843 H   0  0  0  0  0  0
   15.8692   13.6398  103.1072 H   0  0  0  0  0  0
   18.3200   16.3638  106.5047 H   0  0  0  0  0  0
   20.4544   16.3357  105.3219 H   0  0  0  0  0  0
   21.8823   13.2807  107.9726 H   0  0  0  0  0  0
   19.7561   13.2767  109.1487 H   0  0  0  0  0  0
   22.4255   14.8332  104.7172 H   0  0  0  0  0  0
   23.2816   15.5559  106.0866 H   0  0  0  0  0  0
   23.1233   13.7957  105.9330 H   0  0  0  0  0  0
  1 20  2  0  0  0
  1  2  1  0  0  0
  1 23  1  0  0  0
  2  9  1  0  0  0
  2  3  1  0  0  0
  2 12  1  0  0  0
  3  4  2  0  0  0
  3  8  1  0  0  0
  4  5  1  0  0  0
  4 26  1  0  0  0
  5  6  2  0  0  0
  5 27  1  0  0  0
  6  7  1  0  0  0
  6 28  1  0  0  0
  7  8  2  0  0  0
  7 29  1  0  0  0
  8 30  1  0  0  0
  9 10  1  0  0  0
 10 11  1  0  0  0
 10 31  1  0  0  0
 10 32  1  0  0  0
 11 19  1  0  0  0
 11 33  1  0  0  0
 11 34  1  0  0  0
 12 13  1  0  0  0
 12 35  1  0  0  0
 12 36  1  0  0  0
 13 14  2  0  0  0
 13 18  1  0  0  0
 14 15  1  0  0  0
 14 37  1  0  0  0
 15 16  2  0  0  0
 15 38  1  0  0  0
 16 17  1  0  0  0
 16 39  1  0  0  0
 17 18  2  0  0  0
 17 40  1  0  0  0
 18 41  1  0  0  0
 19 42  1  0  0  0
 19 43  1  0  0  0
 20 21  1  0  0  0
 20 44  1  0  0  0
 21 24  2  0  0  0
 21 45  1  0  0  0
 22 24  1  0  0  0
 22 23  2  0  0  0
 22 46  1  0  0  0
 23 47  1  0  0  0
 24 25  1  0  0  0
 25 48  1  0  0  0
 25 49  1  0  0  0
 25 50  1  0  0  0
M  END
> <s_m_entry_id>
215

> <s_m_entry_name>
dock_pv.214

> <s_m_Source_Path>
/home/csk/Desktop/cluster/DUD-E-result/kif11

> <s_m_Source_File>
dock_pv.maegz

> <i_m_Source_File_Index>
214

> <chembl_id>
CHEMBL2043409

> <chembl_pref_name>
None

> <i_lp_mmshare_version>
53161

> <i_f3d_flags>
0

> <r_lp_tautomer_probability>
1

> <s_lp_Force_Field>
OPLS_2005

> <r_lp_Energy>
24.213538

> <b_lp_Chiralities_Consistent>
1

> <s_lp_Variant>
CHEMBL4581_lig593-1

> <s_i_glide_gridfile>
glide-grid_3cjo

> <i_i_glide_lignum>
910

> <i_i_glide_rotatable_bonds>
7

> <r_i_docking_score>
-7.96739487539272

> <r_i_glide_ligand_efficiency>
-0.318695795015709

> <r_i_glide_ligand_efficiency_sa>
-0.931872156719924

> <r_i_glide_ligand_efficiency_ln>
-1.88851134902545

> <r_i_glide_gscore>
-7.96739487539272

> <r_i_glide_lipo>
-4.98571255052293

> <r_i_glide_hbond>
-0.16

> <r_i_glide_metal>
0

> <r_i_glide_rewards>
-1.13965477272727

> <r_i_glide_evdw>
-41.9226837158203

> <r_i_glide_ecoul>
-3.5407292842865

> <r_i_glide_erotb>
0.945216026291474

> <r_i_glide_esite>
0

> <r_i_glide_emodel>
-61.8732738699096

> <r_i_glide_energy>
-45.4634130001068

> <r_i_glide_einternal>
10.1206426620483

> <i_i_glide_confnum>
58

> <i_i_glide_posenum>
198

> <r_i_glide_eff_state_penalty>
0

> <s_user_duplicate_titles>
CHEMBL4581_lig593

> <s_m_subgroup_title>
dock_pv

> <s_m_subgroupid>
dock_pv

> <b_m_subgroup_collapsed>
1

$$$$
CHEMBL4581_lig370
                    3D
 Schrodinger Suite 2021-1.
 54 58  0  0  1  0            999 V2000
   21.4693   15.3743  106.0944 C   0  0  0  0  0  0
   21.9435   14.1460  106.5587 C   0  0  0  0  0  0
   21.3743   13.5620  107.6886 C   0  0  0  0  0  0
   20.3563   15.9553  106.7080 C   0  0  0  0  0  0
   19.7622   15.3829  107.8318 C   0  0  0  0  0  0
   20.3070   14.1877  108.3381 C   0  0  0  0  0  0
   19.7635   13.5621  109.4726 N   0  0  0  0  0  0
   18.4713   13.9969  110.0071 C   0  0  2  0  0  0
   18.5348   16.0234  108.4634 C   0  0  2  0  0  0
   18.3458   15.5454  109.9190 C   0  0  1  0  0  0
   17.0138   16.1205  110.4507 C   0  0  0  0  0  0
   15.8328   15.7672  109.5316 C   0  0  0  0  0  0
   16.1370   16.0907  108.0459 C   0  0  1  0  0  0
   17.4309   15.6338  107.6485 O   0  0  0  0  0  0
   18.2463   13.4543  111.4148 C   0  0  0  0  0  0
   19.0383   13.9036  112.4784 C   0  0  0  0  0  0
   18.8649   13.3669  113.7499 C   0  0  0  0  0  0
   17.8863   12.4014  113.9623 C   0  0  0  0  0  0
   17.0860   11.9623  112.9131 C   0  0  0  0  0  0
   17.2641   12.4858  111.6370 C   0  0  0  0  0  0
   15.0431   15.5967  107.0648 C   0  0  0  0  0  0
   14.8041   14.1516  107.0435 N   0  0  1  0  0  0
   19.1503   15.9939  110.5047 H   0  0  0  0  0  0
   18.6343   17.1114  108.4515 H   0  0  0  0  0  0
   15.8958   13.4003  106.4360 C   0  0  0  0  0  0
   22.2200   16.1209  105.0017 C   0  0  0  0  0  0
   21.6055   17.2198  104.1578 C   0  0  0  0  0  0
   22.6014   17.5619  105.2378 C   0  0  0  0  0  0
   22.7912   13.6724  106.0846 H   0  0  0  0  0  0
   21.7738   12.6309  108.0614 H   0  0  0  0  0  0
   19.9651   16.8953  106.3479 H   0  0  0  0  0  0
   19.9947   12.6015  109.6826 H   0  0  0  0  0  0
   17.7053   13.5504  109.3702 H   0  0  0  0  0  0
   17.0939   17.2068  110.5285 H   0  0  0  0  0  0
   16.8088   15.7618  111.4596 H   0  0  0  0  0  0
   14.9451   16.3125  109.8549 H   0  0  0  0  0  0
   15.5875   14.7105  109.6414 H   0  0  0  0  0  0
   16.1478   17.1777  107.9401 H   0  0  0  0  0  0
   19.8115   14.6395  112.3126 H   0  0  0  0  0  0
   19.5082   13.6792  114.5585 H   0  0  0  0  0  0
   17.7601   11.9629  114.9436 H   0  0  0  0  0  0
   16.3187   11.2192  113.0886 H   0  0  0  0  0  0
   16.6465   12.1273  110.8253 H   0  0  0  0  0  0
   15.2594   15.9431  106.0529 H   0  0  0  0  0  0
   14.1013   16.0711  107.3427 H   0  0  0  0  0  0
   14.6676   13.8181  107.9867 H   0  0  0  0  0  0
   15.5954   12.3620  106.3035 H   0  0  0  0  0  0
   16.7856   13.3960  107.0643 H   0  0  0  0  0  0
   16.1613   13.7972  105.4553 H   0  0  0  0  0  0
   22.9636   15.5043  104.4943 H   0  0  0  0  0  0
   21.9179   17.3230  103.1197 H   0  0  0  0  0  0
   20.5585   17.4898  104.2914 H   0  0  0  0  0  0
   22.2437   18.0134  106.1591 H   0  0  0  0  0  0
   23.5852   17.9359  104.9595 H   0  0  0  0  0  0
  1  2  2  0  0  0
  1  4  1  0  0  0
  1 26  1  0  0  0
  2  3  1  0  0  0
  2 29  1  0  0  0
  3  6  2  0  0  0
  3 30  1  0  0  0
  4  5  2  0  0  0
  4 31  1  0  0  0
  5  9  1  0  0  0
  5  6  1  0  0  0
  6  7  1  0  0  0
  7  8  1  0  0  0
  7 32  1  0  0  0
  8 10  1  0  0  0
  8 15  1  0  0  0
  8 33  1  0  0  0
  9 10  1  0  0  0
  9 24  1  0  0  0
  9 14  1  0  0  0
 10 23  1  0  0  0
 10 11  1  0  0  0
 11 12  1  0  0  0
 11 34  1  0  0  0
 11 35  1  0  0  0
 12 13  1  0  0  0
 12 36  1  0  0  0
 12 37  1  0  0  0
 13 14  1  0  0  0
 13 21  1  0  0  0
 13 38  1  0  0  0
 15 16  2  0  0  0
 15 20  1  0  0  0
 16 17  1  0  0  0
 16 39  1  0  0  0
 17 18  2  0  0  0
 17 40  1  0  0  0
 18 19  1  0  0  0
 18 41  1  0  0  0
 19 20  2  0  0  0
 19 42  1  0  0  0
 20 43  1  0  0  0
 21 22  1  0  0  0
 21 44  1  0  0  0
 21 45  1  0  0  0
 22 25  1  0  0  0
 22 46  1  0  0  0
 25 47  1  0  0  0
 25 48  1  0  0  0
 25 49  1  0  0  0
 26 27  1  0  0  0
 26 28  1  0  0  0
 26 50  1  0  0  0
 27 28  1  0  0  0
 27 51  1  0  0  0
 27 52  1  0  0  0
 28 53  1  0  0  0
 28 54  1  0  0  0
M  END
> <s_m_entry_id>
216

> <s_m_entry_name>
dock_pv.215

> <s_m_Source_Path>
/home/csk/Desktop/cluster/DUD-E-result/kif11

> <s_m_Source_File>
dock_pv.maegz

> <i_m_Source_File_Index>
215

> <chembl_id>
CHEMBL1083836

> <chembl_pref_name>
None

> <i_lp_mmshare_version>
53161

> <i_f3d_flags>
0

> <r_lp_tautomer_probability>
1

> <s_lp_Force_Field>
OPLS_2005

> <r_lp_Energy>
36.850122

> <b_lp_Chiralities_Consistent>
1

> <s_lp_Variant>
CHEMBL4581_lig370-1

> <s_i_glide_gridfile>
glide-grid_3cjo

> <i_i_glide_lignum>
523

> <i_i_glide_rotatable_bonds>
4

> <r_i_docking_score>
-7.96162360859325

> <r_i_glide_ligand_efficiency>
-0.306216292638202

> <r_i_glide_ligand_efficiency_sa>
-0.907164562037744

> <r_i_glide_ligand_efficiency_ln>
-1.86976118026028

> <r_i_glide_gscore>
-7.96162360859325

> <r_i_glide_lipo>
-5.2522871972833

> <r_i_glide_hbond>
0

> <r_i_glide_metal>
0

> <r_i_glide_rewards>
-1.12474925757576

> <r_i_glide_evdw>
-37.3675270080566

> <r_i_glide_ecoul>
-1.24332392215729

> <r_i_glide_erotb>
0.470287784992236

> <r_i_glide_esite>
0

> <r_i_glide_emodel>
-51.9179634202565

> <r_i_glide_energy>
-38.6108509302139

> <r_i_glide_einternal>
2.18997764587402

> <i_i_glide_confnum>
5

> <i_i_glide_posenum>
399

> <r_i_glide_eff_state_penalty>
0

> <s_user_duplicate_titles>
CHEMBL4581_lig370,615880

> <s_m_subgroup_title>
dock_pv

> <s_m_subgroupid>
dock_pv

> <b_m_subgroup_collapsed>
1

$$$$
CHEMBL4581_lig97
                    3D
 Schrodinger Suite 2021-1.
 61 63  0  0  1  0            999 V2000
   22.5269   14.0115  106.1589 C   0  0  0  0  0  0
   22.6685   15.1246  105.3383 C   0  0  0  0  0  0
   21.7711   16.1820  105.4502 C   0  0  0  0  0  0
   20.7278   16.1155  106.3734 C   0  0  0  0  0  0
   20.5720   14.9982  107.2165 C   0  0  0  0  0  0
   21.5161   13.9571  107.1151 C   0  0  0  0  0  0
   21.5179   12.8980  107.9554 F   0  0  0  0  0  0
   21.9019   17.2611  104.6482 F   0  0  0  0  0  0
   19.4551   14.9845  108.1926 C   0  0  0  0  0  0
   18.8112   16.0150  108.5577 N   0  0  0  0  0  0
   17.7943   15.7075  109.4027 N   0  0  0  0  0  0
   17.7206   14.2443  109.6788 C   0  0  1  0  0  0
   18.9309   13.7439  108.8718 C   0  0  0  0  0  0
   17.9255   13.8779  111.1766 C   0  0  0  0  0  0
   17.2895   12.7618  111.7501 C   0  0  0  0  0  0
   17.5182   12.4147  113.0756 C   0  0  0  0  0  0
   18.4030   13.1619  113.8412 C   0  0  0  0  0  0
   19.0500   14.2675  113.2979 C   0  0  0  0  0  0
   18.8058   14.6278  111.9735 C   0  0  0  0  0  0
   16.8256   16.6375  109.6248 C   0  0  0  0  0  0
   16.3221   16.6358  110.8716 N   0  0  0  0  0  0
   16.4881   17.4714  108.7791 O   0  0  0  0  0  0
   15.1803   17.4395  111.3172 C   0  0  0  0  0  0
   16.3778   13.6426  109.1061 C   0  0  0  0  0  0
   15.4016   18.9618  111.2463 C   0  0  0  0  0  0
   15.9684   14.0395  107.6685 C   0  0  0  0  0  0
   14.5689   13.5155  107.2842 C   0  0  0  0  0  0
   14.0979   13.9301  105.8674 C   0  0  0  0  0  0
   14.4726   13.0349  104.7657 N   0  0  0  0  0  0
   15.9116   12.8292  104.6357 C   0  0  0  0  0  0
   13.7616   11.7581  104.8101 C   0  0  0  0  0  0
   23.2007   13.1759  106.0732 H   0  0  0  0  0  0
   23.4612   15.1596  104.6056 H   0  0  0  0  0  0
   20.0448   16.9520  106.4281 H   0  0  0  0  0  0
   19.7007   13.3133  109.5138 H   0  0  0  0  0  0
   18.6425   12.9773  108.1592 H   0  0  0  0  0  0
   16.6113   12.1352  111.1931 H   0  0  0  0  0  0
   17.0110   11.5621  113.5027 H   0  0  0  0  0  0
   18.5900   12.8786  114.8685 H   0  0  0  0  0  0
   19.7480   14.8342  113.8943 H   0  0  0  0  0  0
   19.3335   15.4752  111.5585 H   0  0  0  0  0  0
   16.7289   16.0012  111.5426 H   0  0  0  0  0  0
   14.2992   17.1685  110.7315 H   0  0  0  0  0  0
   14.9488   17.1618  112.3442 H   0  0  0  0  0  0
   15.5609   13.9095  109.7797 H   0  0  0  0  0  0
   16.4316   12.5531  109.1194 H   0  0  0  0  0  0
   14.5741   19.4948  111.7155 H   0  0  0  0  0  0
   16.3189   19.2531  111.7587 H   0  0  0  0  0  0
   15.4612   19.3200  110.2188 H   0  0  0  0  0  0
   16.7294   13.6769  106.9823 H   0  0  0  0  0  0
   15.9620   15.1203  107.5413 H   0  0  0  0  0  0
   13.8391   13.8617  108.0156 H   0  0  0  0  0  0
   14.6015   12.4305  107.3592 H   0  0  0  0  0  0
   14.5143   14.9094  105.6259 H   0  0  0  0  0  0
   13.0171   14.0781  105.8613 H   0  0  0  0  0  0
   16.4510   13.7774  104.6620 H   0  0  0  0  0  0
   16.1366   12.3638  103.6838 H   0  0  0  0  0  0
   16.3058   12.1775  105.4183 H   0  0  0  0  0  0
   12.6869   11.9167  104.9048 H   0  0  0  0  0  0
   13.9202   11.1959  103.8889 H   0  0  0  0  0  0
   14.0853   11.1329  105.6430 H   0  0  0  0  0  0
  1  6  1  0  0  0
  1  2  2  0  0  0
  1 32  1  0  0  0
  2  3  1  0  0  0
  2 33  1  0  0  0
  3  4  2  0  0  0
  3  8  1  0  0  0
  4  5  1  0  0  0
  4 34  1  0  0  0
  5  9  1  0  0  0
  5  6  2  0  0  0
  6  7  1  0  0  0
  9 10  2  0  0  0
  9 13  1  0  0  0
 10 11  1  0  0  0
 11 20  1  0  0  0
 11 12  1  0  0  0
 12 24  1  0  0  0
 12 13  1  0  0  0
 12 14  1  0  0  0
 13 35  1  0  0  0
 13 36  1  0  0  0
 14 15  2  0  0  0
 14 19  1  0  0  0
 15 16  1  0  0  0
 15 37  1  0  0  0
 16 17  2  0  0  0
 16 38  1  0  0  0
 17 18  1  0  0  0
 17 39  1  0  0  0
 18 19  2  0  0  0
 18 40  1  0  0  0
 19 41  1  0  0  0
 20 21  1  0  0  0
 20 22  2  0  0  0
 21 23  1  0  0  0
 21 42  1  0  0  0
 23 25  1  0  0  0
 23 43  1  0  0  0
 23 44  1  0  0  0
 24 26  1  0  0  0
 24 45  1  0  0  0
 24 46  1  0  0  0
 25 47  1  0  0  0
 25 48  1  0  0  0
 25 49  1  0  0  0
 26 27  1  0  0  0
 26 50  1  0  0  0
 26 51  1  0  0  0
 27 28  1  0  0  0
 27 52  1  0  0  0
 27 53  1  0  0  0
 28 29  1  0  0  0
 28 54  1  0  0  0
 28 55  1  0  0  0
 29 30  1  0  0  0
 29 31  1  0  0  0
 30 56  1  0  0  0
 30 57  1  0  0  0
 30 58  1  0  0  0
 31 59  1  0  0  0
 31 60  1  0  0  0
 31 61  1  0  0  0
M  END
> <s_m_entry_id>
217

> <s_m_entry_name>
dock_pv.216

> <s_m_Source_Path>
/home/csk/Desktop/cluster/DUD-E-result/kif11

> <s_m_Source_File>
dock_pv.maegz

> <i_m_Source_File_Index>
216

> <chembl_id>
CHEMBL210672

> <chembl_pref_name>
None

> <i_lp_mmshare_version>
53161

> <i_f3d_flags>
0

> <r_lp_tautomer_probability>
1

> <s_lp_Force_Field>
OPLS_2005

> <r_lp_Energy>
37.965069

> <b_lp_Chiralities_Consistent>
1

> <s_lp_Variant>
CHEMBL4581_lig97-2

> <s_i_glide_gridfile>
glide-grid_3cjo

> <i_i_glide_lignum>
163

> <i_i_glide_rotatable_bonds>
10

> <r_i_docking_score>
-7.95594433868258

> <r_i_glide_ligand_efficiency>
-0.256643365763954

> <r_i_glide_ligand_efficiency_sa>
-0.80621450285265

> <r_i_glide_ligand_efficiency_ln>
-1.79430926878518

> <r_i_glide_gscore>
-7.95594433868258

> <r_i_glide_lipo>
-4.2328682697229

> <r_i_glide_hbond>
0

> <r_i_glide_metal>
0

> <r_i_glide_rewards>
-2.10452066926015

> <r_i_glide_evdw>
-46.6040153503418

> <r_i_glide_ecoul>
-1.02516794204712

> <r_i_glide_erotb>
0.865420559124623

> <r_i_glide_esite>
0

> <r_i_glide_emodel>
-68.2753777264466

> <r_i_glide_energy>
-47.6291832923889

> <r_i_glide_einternal>
5.56740427017212

> <i_i_glide_confnum>
118

> <i_i_glide_posenum>
43

> <r_i_glide_eff_state_penalty>
0

> <s_user_duplicate_titles>
CHEMBL4581_lig97,348325

> <s_m_subgroup_title>
dock_pv

> <s_m_subgroupid>
dock_pv

> <b_m_subgroup_collapsed>
1

$$$$
CHEMBL4581_lig861
                    3D
 Schrodinger Suite 2021-1.
 55 57  0  0  1  0            999 V2000
   17.8705   14.4498  108.6896 C   0  0  0  0  0  0
   19.2889   14.4950  108.0219 C   0  0  0  0  0  0
   17.9225   13.8484  110.1276 C   0  0  0  0  0  0
   19.5217   15.3482  106.9289 C   0  0  0  0  0  0
   20.7066   15.2829  106.2032 C   0  0  0  0  0  0
   21.6842   14.3620  106.5590 C   0  0  0  0  0  0
   21.5179   13.5620  107.6901 C   0  0  0  0  0  0
   20.3346   13.6407  108.4291 C   0  0  0  0  0  0
   17.1144   12.7785  110.5536 C   0  0  0  0  0  0
   17.1183   12.3620  111.8816 C   0  0  0  0  0  0
   17.9434   12.9816  112.8196 C   0  0  0  0  0  0
   18.8009   14.0101  112.4023 C   0  0  0  0  0  0
   18.7790   14.4288  111.0738 C   0  0  0  0  0  0
   17.2371   15.8652  108.8951 C   0  0  0  0  0  0
   18.0462   16.9716  109.2053 C   0  0  0  0  0  0
   17.4905   18.2154  109.4853 C   0  0  0  0  0  0
   16.1123   18.3851  109.4233 C   0  0  0  0  0  0
   15.2876   17.3126  109.1016 C   0  0  0  0  0  0
   15.8448   16.0626  108.8497 C   0  0  0  0  0  0
   16.9803   13.5544  107.7360 C   0  0  0  0  0  0
   16.7032   14.0840  106.3008 C   0  0  0  0  0  0
   15.5258   13.4275  105.5388 C   0  0  1  0  0  0
   15.6742   11.9661  105.3590 N   0  0  0  0  0  0
   19.7664   14.6922  113.3507 C   0  0  0  0  0  0
   17.8632   12.5417  114.2719 C   0  0  0  0  0  0
   14.1480   13.7729  106.1600 C   0  0  0  0  0  0
   13.6473   12.7848  106.9578 O   0  0  0  0  0  0
   13.6156   14.8636  105.9722 O   0  0  0  0  0  0
   18.7563   16.0365  106.6015 H   0  0  0  0  0  0
   20.8537   15.9236  105.3462 H   0  0  0  0  0  0
   22.5919   14.2888  105.9779 H   0  0  0  0  0  0
   22.2911   12.8647  107.9778 H   0  0  0  0  0  0
   20.2075   12.9619  109.2599 H   0  0  0  0  0  0
   16.4470   12.2537  109.8905 H   0  0  0  0  0  0
   16.4583   11.5619  112.1834 H   0  0  0  0  0  0
   19.4339   15.2334  110.7743 H   0  0  0  0  0  0
   19.1178   16.8713  109.2609 H   0  0  0  0  0  0
   18.1297   19.0408  109.7585 H   0  0  0  0  0  0
   15.6804   19.3522  109.6383 H   0  0  0  0  0  0
   14.2163   17.4464  109.0616 H   0  0  0  0  0  0
   15.1640   15.2543  108.6392 H   0  0  0  0  0  0
   17.4372   12.5663  107.6494 H   0  0  0  0  0  0
   16.0130   13.3682  108.1946 H   0  0  0  0  0  0
   16.5345   15.1605  106.3211 H   0  0  0  0  0  0
   17.5986   13.9576  105.6969 H   0  0  0  0  0  0
   15.5060   13.8791  104.5459 H   0  0  0  0  0  0
   15.9182   11.4528  106.2076 H   0  0  0  0  0  0
   14.8704   11.5254  104.9343 H   0  0  0  0  0  0
   19.2185   15.1614  114.1584 H   0  0  0  0  0  0
   20.4488   13.9620  113.7769 H   0  0  0  0  0  0
   20.3536   15.4661  112.8577 H   0  0  0  0  0  0
   16.9614   11.9621  114.4644 H   0  0  0  0  0  0
   18.7432   11.9634  114.5570 H   0  0  0  0  0  0
   17.7995   13.4034  114.9308 H   0  0  0  0  0  0
   14.2374   12.0261  106.9592 H   0  0  0  0  0  0
  1  2  1  0  0  0
  1  3  1  0  0  0
  1 14  1  0  0  0
  1 20  1  0  0  0
  2  4  2  0  0  0
  2  8  1  0  0  0
  3  9  2  0  0  0
  3 13  1  0  0  0
  4  5  1  0  0  0
  4 29  1  0  0  0
  5  6  2  0  0  0
  5 30  1  0  0  0
  6  7  1  0  0  0
  6 31  1  0  0  0
  7  8  2  0  0  0
  7 32  1  0  0  0
  8 33  1  0  0  0
  9 10  1  0  0  0
  9 34  1  0  0  0
 10 11  2  0  0  0
 10 35  1  0  0  0
 11 12  1  0  0  0
 11 25  1  0  0  0
 12 13  2  0  0  0
 12 24  1  0  0  0
 13 36  1  0  0  0
 14 15  2  0  0  0
 14 19  1  0  0  0
 15 16  1  0  0  0
 15 37  1  0  0  0
 16 17  2  0  0  0
 16 38  1  0  0  0
 17 18  1  0  0  0
 17 39  1  0  0  0
 18 19  2  0  0  0
 18 40  1  0  0  0
 19 41  1  0  0  0
 20 21  1  0  0  0
 20 42  1  0  0  0
 20 43  1  0  0  0
 21 22  1  0  0  0
 21 44  1  0  0  0
 21 45  1  0  0  0
 22 23  1  0  0  0
 22 26  1  0  0  0
 22 46  1  0  0  0
 23 47  1  0  0  0
 23 48  1  0  0  0
 24 49  1  0  0  0
 24 50  1  0  0  0
 24 51  1  0  0  0
 25 52  1  0  0  0
 25 53  1  0  0  0
 25 54  1  0  0  0
 26 27  1  0  0  0
 26 28  2  0  0  0
 27 55  1  0  0  0
M  END
> <s_m_entry_id>
218

> <s_m_entry_name>
dock_pv.217

> <s_m_Source_Path>
/home/csk/Desktop/cluster/DUD-E-result/kif11

> <s_m_Source_File>
dock_pv.maegz

> <i_m_Source_File_Index>
217

> <chembl_id>
CHEMBL2325418

> <chembl_pref_name>
None

> <i_lp_mmshare_version>
53161

> <i_f3d_flags>
0

> <r_lp_tautomer_probability>
1

> <s_lp_Force_Field>
OPLS_2005

> <r_lp_Energy>
32.563847

> <b_lp_Chiralities_Consistent>
1

> <s_lp_Variant>
CHEMBL4581_lig861-2

> <s_i_glide_gridfile>
glide-grid_3cjo

> <i_i_glide_lignum>
1251

> <i_i_glide_rotatable_bonds>
8

> <r_i_docking_score>
-7.95542058961333

> <r_i_glide_ligand_efficiency>
-0.284122163914762

> <r_i_glide_ligand_efficiency_sa>
-0.862762228650715

> <r_i_glide_ligand_efficiency_ln>
-1.83634465338101

> <r_i_glide_gscore>
-7.95542058961333

> <r_i_glide_lipo>
-4.67325573662111

> <r_i_glide_hbond>
-0.309238301629017

> <r_i_glide_metal>
0

> <r_i_glide_rewards>
-0.948972972436091

> <r_i_glide_evdw>
-38.8209381103516

> <r_i_glide_ecoul>
-6.99158954620361

> <r_i_glide_erotb>
0.969794651277237

> <r_i_glide_esite>
-0.00396289275622654

> <r_i_glide_emodel>
-66.5011771351252

> <r_i_glide_energy>
-45.8125276565552

> <r_i_glide_einternal>
2.10867166519165

> <i_i_glide_confnum>
91

> <i_i_glide_posenum>
8

> <r_i_glide_eff_state_penalty>
0

> <s_user_duplicate_titles>
CHEMBL4581_lig861

> <s_m_subgroup_title>
dock_pv

> <s_m_subgroupid>
dock_pv

> <b_m_subgroup_collapsed>
1

$$$$
CHEMBL4581_lig405
                    3D
 Schrodinger Suite 2021-1.
 50 53  0  0  1  0            999 V2000
   21.8544   16.3890  105.3630 C   0  0  0  0  0  0
   22.4544   15.1574  105.6099 C   0  0  0  0  0  0
   21.9204   14.2467  106.5213 C   0  0  0  0  0  0
   20.6753   16.7575  106.0111 C   0  0  0  0  0  0
   20.1022   15.8749  106.9426 C   0  0  0  0  0  0
   20.7569   14.6299  107.1929 C   0  0  0  0  0  0
   20.0253   13.9774  108.1565 N   0  0  0  0  0  0
   18.9188   15.8919  107.7596 C   0  0  0  0  0  0
   18.8861   14.6835  108.4235 C   0  0  0  0  0  0
   17.7354   14.1618  109.2618 C   0  0  2  0  0  0
   16.5531   15.0359  108.9982 N   0  0  0  0  0  0
   16.7700   16.5108  109.0154 C   0  0  2  0  0  0
   17.7930   16.9035  107.8974 C   0  0  0  0  0  0
   18.0642   13.9003  110.7361 C   0  0  0  0  0  0
   19.1101   14.5729  111.3891 C   0  0  0  0  0  0
   19.3524   14.3618  112.7460 C   0  0  0  0  0  0
   18.5617   13.4620  113.4580 C   0  0  0  0  0  0
   17.5182   12.7963  112.8216 C   0  0  0  0  0  0
   17.2680   13.0136  111.4670 C   0  0  0  0  0  0
   16.7172   11.9619  113.5451 O   0  0  0  0  0  0
   17.0404   17.0402  110.4359 C   0  0  0  0  0  0
   18.1650   17.8131  110.5284 O   0  0  0  0  0  0
   16.3095   16.7632  111.3589 O   0  0  0  0  0  0
   15.3448   14.5608  108.5845 C   0  0  0  0  0  0
   15.2508   13.1631  107.9518 C   0  0  0  0  0  0
   14.3305   15.2591  108.5591 O   0  0  0  0  0  0
   16.0587   13.0313  106.6284 C   0  0  0  0  0  0
   15.2261   12.5091  105.4479 C   0  0  0  0  0  0
   22.3011   17.0595  104.6433 H   0  0  0  0  0  0
   23.3576   14.8999  105.0762 H   0  0  0  0  0  0
   22.4000   13.2952  106.7000 H   0  0  0  0  0  0
   20.2125   17.7090  105.7933 H   0  0  0  0  0  0
   20.1996   13.0646  108.5508 H   0  0  0  0  0  0
   17.5149   13.1625  108.8944 H   0  0  0  0  0  0
   15.8477   17.0528  108.7942 H   0  0  0  0  0  0
   18.1827   17.9081  108.0542 H   0  0  0  0  0  0
   17.2392   16.9233  106.9581 H   0  0  0  0  0  0
   19.7243   15.2830  110.8565 H   0  0  0  0  0  0
   20.1526   14.8915  113.2419 H   0  0  0  0  0  0
   18.7452   13.2906  114.5085 H   0  0  0  0  0  0
   16.4490   12.4991  110.9879 H   0  0  0  0  0  0
   16.0202   11.5410  113.0313 H   0  0  0  0  0  0
   18.6169   17.8877  109.6860 H   0  0  0  0  0  0
   14.1960   12.9746  107.7536 H   0  0  0  0  0  0
   15.5203   12.3988  108.6790 H   0  0  0  0  0  0
   16.9057   12.3624  106.7877 H   0  0  0  0  0  0
   16.5071   13.9811  106.3255 H   0  0  0  0  0  0
   15.8495   12.3710  104.5635 H   0  0  0  0  0  0
   14.7647   11.5494  105.6802 H   0  0  0  0  0  0
   14.4272   13.2051  105.1889 H   0  0  0  0  0  0
  1  2  2  0  0  0
  1  4  1  0  0  0
  1 29  1  0  0  0
  2  3  1  0  0  0
  2 30  1  0  0  0
  3  6  2  0  0  0
  3 31  1  0  0  0
  4  5  2  0  0  0
  4 32  1  0  0  0
  5  8  1  0  0  0
  5  6  1  0  0  0
  6  7  1  0  0  0
  7  9  1  0  0  0
  7 33  1  0  0  0
  8  9  2  0  0  0
  8 13  1  0  0  0
  9 10  1  0  0  0
 10 14  1  0  0  0
 10 11  1  0  0  0
 10 34  1  0  0  0
 11 24  1  0  0  0
 11 12  1  0  0  0
 12 13  1  0  0  0
 12 21  1  0  0  0
 12 35  1  0  0  0
 13 36  1  0  0  0
 13 37  1  0  0  0
 14 15  2  0  0  0
 14 19  1  0  0  0
 15 16  1  0  0  0
 15 38  1  0  0  0
 16 17  2  0  0  0
 16 39  1  0  0  0
 17 18  1  0  0  0
 17 40  1  0  0  0
 18 19  2  0  0  0
 18 20  1  0  0  0
 19 41  1  0  0  0
 20 42  1  0  0  0
 21 22  1  0  0  0
 21 23  2  0  0  0
 22 43  1  0  0  0
 24 25  1  0  0  0
 24 26  2  0  0  0
 25 27  1  0  0  0
 25 44  1  0  0  0
 25 45  1  0  0  0
 27 28  1  0  0  0
 27 46  1  0  0  0
 27 47  1  0  0  0
 28 48  1  0  0  0
 28 49  1  0  0  0
 28 50  1  0  0  0
M  END
> <s_m_entry_id>
219

> <s_m_entry_name>
dock_pv.218

> <s_m_Source_Path>
/home/csk/Desktop/cluster/DUD-E-result/kif11

> <s_m_Source_File>
dock_pv.maegz

> <i_m_Source_File_Index>
218

> <chembl_id>
CHEMBL1164547

> <chembl_pref_name>
None

> <i_lp_mmshare_version>
53161

> <i_f3d_flags>
0

> <r_lp_tautomer_probability>
0.999999999997365

> <s_lp_Force_Field>
OPLS_2005

> <r_lp_Energy>
22.035492

> <b_lp_Chiralities_Consistent>
1

> <s_lp_Variant>
CHEMBL4581_lig405-1

> <s_i_glide_gridfile>
glide-grid_3cjo

> <i_i_glide_lignum>
592

> <i_i_glide_rotatable_bonds>
7

> <r_i_docking_score>
-7.95172211347261

> <r_i_glide_ligand_efficiency>
-0.283990075481165

> <r_i_glide_ligand_efficiency_sa>
-0.862361130370387

> <r_i_glide_ligand_efficiency_ln>
-1.83549093649575

> <r_i_glide_gscore>
-7.95172211347261

> <r_i_glide_lipo>
-4.24118684138565

> <r_i_glide_hbond>
-0.269613723280056

> <r_i_glide_metal>
0

> <r_i_glide_rewards>
-1.30218814029556

> <r_i_glide_evdw>
-43.8184204101562

> <r_i_glide_ecoul>
-3.26076936721802

> <r_i_glide_erotb>
0.54130301707917

> <r_i_glide_esite>
0

> <r_i_glide_emodel>
-63.6834129450174

> <r_i_glide_energy>
-47.0791897773743

> <r_i_glide_einternal>
9.48097801208496

> <i_i_glide_confnum>
2

> <i_i_glide_posenum>
167

> <r_i_glide_eff_state_penalty>
0

> <s_user_duplicate_titles>
CHEMBL4581_lig405

> <s_m_subgroup_title>
dock_pv

> <s_m_subgroupid>
dock_pv

> <b_m_subgroup_collapsed>
1

$$$$
CHEMBL4581_lig612
                    3D
 Schrodinger Suite 2021-1.
 50 52  0  0  1  0            999 V2000
   15.1204   13.7454  104.0514 C   0  0  0  0  0  0
   15.0695   13.1475  105.4787 C   0  0  2  0  0  0
   16.3174   13.4759  106.3334 C   0  0  0  0  0  0
   14.1422   14.3028  103.5577 O   0  0  0  0  0  0
   16.3179   13.5647  103.4135 O   0  0  0  0  0  0
   16.0193   14.9988  107.2802 S   0  0  0  0  0  0
   17.2511   14.9700  108.6570 C   0  0  0  0  0  0
   16.9467   13.6846  109.5099 C   0  0  0  0  0  0
   17.5183   13.4948  110.9195 C   0  0  0  0  0  0
   17.1069   12.3454  111.5884 C   0  0  0  0  0  0
   17.5178   12.0945  112.8862 C   0  0  0  0  0  0
   18.3720   12.9866  113.5270 C   0  0  0  0  0  0
   18.8274   14.1220  112.8593 C   0  0  0  0  0  0
   18.4076   14.3735  111.5536 C   0  0  0  0  0  0
   18.6704   14.9382  108.0115 C   0  0  0  0  0  0
   19.6620   14.0301  108.4217 C   0  0  0  0  0  0
   20.8812   13.9620  107.7557 C   0  0  0  0  0  0
   21.1207   14.7999  106.6707 C   0  0  0  0  0  0
   20.1801   15.7423  106.2778 C   0  0  0  0  0  0
   18.9659   15.8101  106.9488 C   0  0  0  0  0  0
   16.9534   16.2489  109.4814 C   0  0  0  0  0  0
   17.9108   17.2602  109.6613 C   0  0  0  0  0  0
   17.6083   18.3903  110.4087 C   0  0  0  0  0  0
   16.3399   18.5393  110.9589 C   0  0  0  0  0  0
   15.3773   17.5517  110.7986 C   0  0  0  0  0  0
   15.6869   16.4104  110.0687 C   0  0  0  0  0  0
   14.8538   11.6968  105.3590 N   0  0  0  0  0  0
   14.1974   13.5678  105.9829 H   0  0  0  0  0  0
   17.2370   13.5840  105.7590 H   0  0  0  0  0  0
   16.5045   12.6555  107.0191 H   0  0  0  0  0  0
   16.9877   13.1197  103.9471 H   0  0  0  0  0  0
   15.8653   13.5856  109.6175 H   0  0  0  0  0  0
   17.2527   12.7956  108.9614 H   0  0  0  0  0  0
   16.4389   11.6437  111.1079 H   0  0  0  0  0  0
   17.1585   11.1950  113.3600 H   0  0  0  0  0  0
   18.6957   12.7869  114.5389 H   0  0  0  0  0  0
   19.5082   14.8014  113.3500 H   0  0  0  0  0  0
   18.7907   15.2468  111.0531 H   0  0  0  0  0  0
   19.5042   13.3374  109.2320 H   0  0  0  0  0  0
   21.6288   13.2452  108.0630 H   0  0  0  0  0  0
   22.0602   14.7318  106.1415 H   0  0  0  0  0  0
   20.3846   16.4057  105.4504 H   0  0  0  0  0  0
   18.2348   16.5329  106.6208 H   0  0  0  0  0  0
   18.9015   17.1863  109.2399 H   0  0  0  0  0  0
   18.3518   19.1620  110.5503 H   0  0  0  0  0  0
   16.1042   19.4247  111.5316 H   0  0  0  0  0  0
   14.3978   17.6728  111.2372 H   0  0  0  0  0  0
   14.9260   15.6555  109.9427 H   0  0  0  0  0  0
   15.1109   11.2152  106.2273 H   0  0  0  0  0  0
   13.8823   11.4798  105.1816 H   0  0  0  0  0  0
  1  2  1  0  0  0
  1  4  2  0  0  0
  1  5  1  0  0  0
  2  3  1  0  0  0
  2 27  1  0  0  0
  2 28  1  0  0  0
  3  6  1  0  0  0
  3 29  1  0  0  0
  3 30  1  0  0  0
  5 31  1  0  0  0
  6  7  1  0  0  0
  7  8  1  0  0  0
  7 15  1  0  0  0
  7 21  1  0  0  0
  8  9  1  0  0  0
  8 32  1  0  0  0
  8 33  1  0  0  0
  9 10  1  0  0  0
  9 14  2  0  0  0
 10 11  2  0  0  0
 10 34  1  0  0  0
 11 12  1  0  0  0
 11 35  1  0  0  0
 12 13  2  0  0  0
 12 36  1  0  0  0
 13 14  1  0  0  0
 13 37  1  0  0  0
 14 38  1  0  0  0
 15 16  1  0  0  0
 15 20  2  0  0  0
 16 17  2  0  0  0
 16 39  1  0  0  0
 17 18  1  0  0  0
 17 40  1  0  0  0
 18 19  2  0  0  0
 18 41  1  0  0  0
 19 20  1  0  0  0
 19 42  1  0  0  0
 20 43  1  0  0  0
 21 22  1  0  0  0
 21 26  2  0  0  0
 22 23  2  0  0  0
 22 44  1  0  0  0
 23 24  1  0  0  0
 23 45  1  0  0  0
 24 25  2  0  0  0
 24 46  1  0  0  0
 25 26  1  0  0  0
 25 47  1  0  0  0
 26 48  1  0  0  0
 27 49  1  0  0  0
 27 50  1  0  0  0
M  END
> <s_m_entry_id>
220

> <s_m_entry_name>
dock_pv.219

> <s_m_Source_Path>
/home/csk/Desktop/cluster/DUD-E-result/kif11

> <s_m_Source_File>
dock_pv.maegz

> <i_m_Source_File_Index>
219

> <chembl_id>
CHEMBL2043387

> <chembl_pref_name>
None

> <i_lp_mmshare_version>
53161

> <i_f3d_flags>
0

> <r_lp_tautomer_probability>
1

> <s_lp_Force_Field>
OPLS_2005

> <r_lp_Energy>
25.589186

> <b_lp_Chiralities_Consistent>
1

> <s_lp_Variant>
CHEMBL4581_lig612-1

> <s_i_glide_gridfile>
glide-grid_3cjo

> <i_i_glide_lignum>
943

> <i_i_glide_rotatable_bonds>
9

> <r_i_docking_score>
-7.94939307202264

> <r_i_glide_ligand_efficiency>
-0.294421965630468

> <r_i_glide_ligand_efficiency_sa>
-0.883265895921038

> <r_i_glide_ligand_efficiency_ln>
-1.8504876511795

> <r_i_glide_gscore>
-7.94939307202264

> <r_i_glide_lipo>
-4.49475078058637

> <r_i_glide_hbond>
-0.306511114595061

> <r_i_glide_metal>
0

> <r_i_glide_rewards>
-0.928780287532154

> <r_i_glide_evdw>
-38.4551620483398

> <r_i_glide_ecoul>
-9.22621726989746

> <r_i_glide_erotb>
1.08733980359255

> <r_i_glide_esite>
0

> <r_i_glide_emodel>
-64.3081756662565

> <r_i_glide_energy>
-47.6813793182373

> <r_i_glide_einternal>
9.12595653533936

> <i_i_glide_confnum>
114

> <i_i_glide_posenum>
344

> <r_i_glide_eff_state_penalty>
0

> <s_user_duplicate_titles>
CHEMBL4581_lig612

> <s_m_subgroup_title>
dock_pv

> <s_m_subgroupid>
dock_pv

> <b_m_subgroup_collapsed>
1

$$$$
CHEMBL4581_lig864
                    3D
 Schrodinger Suite 2021-1.
 53 55  0  0  1  0            999 V2000
   17.9181   14.5158  109.3909 C   0  0  0  0  0  0
   18.0853   13.9341  110.8311 C   0  0  0  0  0  0
   17.2467   15.9064  109.5953 C   0  0  0  0  0  0
   17.3605   12.8261  111.3088 C   0  0  0  0  0  0
   17.5112   12.3883  112.6227 C   0  0  0  0  0  0
   18.3805   13.0491  113.4823 C   0  0  0  0  0  0
   19.1180   14.1361  113.0298 C   0  0  0  0  0  0
   18.9783   14.5657  111.7131 C   0  0  0  0  0  0
   18.0206   17.0651  109.7680 C   0  0  0  0  0  0
   17.4234   18.3023  109.9804 C   0  0  0  0  0  0
   16.0329   18.4295  110.0108 C   0  0  0  0  0  0
   15.2372   17.2833  109.8532 C   0  0  0  0  0  0
   15.8488   16.0407  109.6598 C   0  0  0  0  0  0
   19.2663   14.5440  108.6063 C   0  0  0  0  0  0
   19.4852   15.4745  107.5739 C   0  0  0  0  0  0
   20.5892   15.3706  106.7368 C   0  0  0  0  0  0
   21.5179   14.3617  106.9543 C   0  0  0  0  0  0
   21.3882   13.5056  108.0406 C   0  0  0  0  0  0
   20.2624   13.5850  108.8578 C   0  0  0  0  0  0
   16.8383   13.4264  108.3310 S   0  0  0  0  0  0
   16.8400   14.2123  106.6803 C   0  0  0  0  0  0
   15.6703   13.7833  105.7703 C   0  0  2  0  0  0
   15.7357   12.3619  105.3805 N   0  0  0  0  0  0
   13.7174   17.3583  109.9056 C   0  0  0  0  0  0
   15.4237   19.8131  110.1920 C   0  0  0  0  0  0
   15.6629   14.6337  104.4800 C   0  0  0  0  0  0
   16.7177   14.3621  103.6511 O   0  0  0  0  0  0
   14.7988   15.4819  104.2701 O   0  0  0  0  0  0
   16.6569   12.2919  110.6897 H   0  0  0  0  0  0
   16.9244   11.5575  112.9820 H   0  0  0  0  0  0
   18.4848   12.7145  114.5052 H   0  0  0  0  0  0
   19.8001   14.6448  113.6947 H   0  0  0  0  0  0
   19.5618   15.4119  111.3852 H   0  0  0  0  0  0
   19.1016   17.0172  109.7567 H   0  0  0  0  0  0
   18.0586   19.1622  110.1262 H   0  0  0  0  0  0
   15.2198   15.1696  109.5675 H   0  0  0  0  0  0
   18.7589   16.2434  107.3565 H   0  0  0  0  0  0
   20.7168   16.0597  105.9143 H   0  0  0  0  0  0
   22.3758   14.2702  106.3003 H   0  0  0  0  0  0
   22.1417   12.7563  108.2185 H   0  0  0  0  0  0
   20.1420   12.8535  109.6429 H   0  0  0  0  0  0
   16.8076   15.2947  106.8291 H   0  0  0  0  0  0
   17.7865   13.9745  106.1949 H   0  0  0  0  0  0
   14.7451   13.9802  106.3113 H   0  0  0  0  0  0
   15.9183   11.7864  106.2023 H   0  0  0  0  0  0
   14.8468   12.0423  105.0199 H   0  0  0  0  0  0
   13.3963   17.8732  110.8121 H   0  0  0  0  0  0
   13.3350   17.9168  109.0510 H   0  0  0  0  0  0
   13.2520   16.3741  109.9057 H   0  0  0  0  0  0
   16.0647   20.5798  109.7568 H   0  0  0  0  0  0
   14.4669   19.9120  109.6794 H   0  0  0  0  0  0
   15.2810   20.0308  111.2501 H   0  0  0  0  0  0
   17.2813   13.6534  103.9995 H   0  0  0  0  0  0
  1  2  1  0  0  0
  1  3  1  0  0  0
  1 14  1  0  0  0
  1 20  1  0  0  0
  2  4  2  0  0  0
  2  8  1  0  0  0
  3  9  2  0  0  0
  3 13  1  0  0  0
  4  5  1  0  0  0
  4 29  1  0  0  0
  5  6  2  0  0  0
  5 30  1  0  0  0
  6  7  1  0  0  0
  6 31  1  0  0  0
  7  8  2  0  0  0
  7 32  1  0  0  0
  8 33  1  0  0  0
  9 10  1  0  0  0
  9 34  1  0  0  0
 10 11  2  0  0  0
 10 35  1  0  0  0
 11 12  1  0  0  0
 11 25  1  0  0  0
 12 13  2  0  0  0
 12 24  1  0  0  0
 13 36  1  0  0  0
 14 15  2  0  0  0
 14 19  1  0  0  0
 15 16  1  0  0  0
 15 37  1  0  0  0
 16 17  2  0  0  0
 16 38  1  0  0  0
 17 18  1  0  0  0
 17 39  1  0  0  0
 18 19  2  0  0  0
 18 40  1  0  0  0
 19 41  1  0  0  0
 20 21  1  0  0  0
 21 22  1  0  0  0
 21 42  1  0  0  0
 21 43  1  0  0  0
 22 23  1  0  0  0
 22 26  1  0  0  0
 22 44  1  0  0  0
 23 45  1  0  0  0
 23 46  1  0  0  0
 24 47  1  0  0  0
 24 48  1  0  0  0
 24 49  1  0  0  0
 25 50  1  0  0  0
 25 51  1  0  0  0
 25 52  1  0  0  0
 26 27  1  0  0  0
 26 28  2  0  0  0
 27 53  1  0  0  0
M  END
> <s_m_entry_id>
221

> <s_m_entry_name>
dock_pv.220

> <s_m_Source_Path>
/home/csk/Desktop/cluster/DUD-E-result/kif11

> <s_m_Source_File>
dock_pv.maegz

> <i_m_Source_File_Index>
220

> <chembl_id>
CHEMBL2325410

> <chembl_pref_name>
None

> <i_lp_mmshare_version>
53161

> <i_f3d_flags>
0

> <r_lp_tautomer_probability>
1

> <s_lp_Force_Field>
OPLS_2005

> <r_lp_Energy>
23.442579

> <b_lp_Chiralities_Consistent>
1

> <s_lp_Variant>
CHEMBL4581_lig864-1

> <s_i_glide_gridfile>
glide-grid_3cjo

> <i_i_glide_lignum>
1254

> <i_i_glide_rotatable_bonds>
8

> <r_i_docking_score>
-7.94636059819332

> <r_i_glide_ligand_efficiency>
-0.283798592792619

> <r_i_glide_ligand_efficiency_sa>
-0.861779676150689

> <r_i_glide_ligand_efficiency_ln>
-1.83425334134836

> <r_i_glide_gscore>
-7.94636059819332

> <r_i_glide_lipo>
-4.64018822935621

> <r_i_glide_hbond>
-0.304

> <r_i_glide_metal>
0

> <r_i_glide_rewards>
-0.847923333333332

> <r_i_glide_evdw>
-43.0554656982422

> <r_i_glide_ecoul>
-5.88666343688965

> <r_i_glide_erotb>
0.891159471452689

> <r_i_glide_esite>
-0.00963570651090878

> <r_i_glide_emodel>
-71.6544362743151

> <r_i_glide_energy>
-48.9421291351318

> <r_i_glide_einternal>
3.40195822715759

> <i_i_glide_confnum>
85

> <i_i_glide_posenum>
196

> <r_i_glide_eff_state_penalty>
0

> <s_user_duplicate_titles>
CHEMBL4581_lig864

> <s_m_subgroup_title>
dock_pv

> <s_m_subgroupid>
dock_pv

> <b_m_subgroup_collapsed>
1

$$$$
CHEMBL4581_lig28
                    3D
 Schrodinger Suite 2021-1.
 38 40  0  0  1  0            999 V2000
   18.6884   14.2446  110.0652 N   0  0  0  0  0  0
   19.8504   14.2726  109.3589 N   0  0  0  0  0  0
   19.6297   14.6333  108.1611 C   0  0  0  0  0  0
   17.5455   14.7016  109.2577 C   0  0  2  0  0  0
   18.6634   13.9627  111.3934 C   0  0  0  0  0  0
   18.1643   14.8042  107.8707 C   0  0  0  0  0  0
   20.6537   14.8547  107.1355 C   0  0  0  0  0  0
   21.7272   13.9621  106.9581 C   0  0  0  0  0  0
   20.5668   15.9921  106.3174 C   0  0  0  0  0  0
   19.5178   14.3607  112.1911 O   0  0  0  0  0  0
   16.9675   16.0349  109.7602 C   0  0  0  0  0  0
   17.6820   13.1115  111.7432 N   0  0  0  0  0  0
   22.7007   14.2350  105.9966 C   0  0  0  0  0  0
   21.5485   16.2560  105.3638 C   0  0  0  0  0  0
   21.8672   12.8501  107.7200 F   0  0  0  0  0  0
   22.6130   15.3746  105.2062 C   0  0  0  0  0  0
   21.4664   17.3602  104.5922 F   0  0  0  0  0  0
   17.8139   17.1191  110.0328 C   0  0  0  0  0  0
   15.5875   16.1737  109.9314 C   0  0  0  0  0  0
   17.4858   12.6008  113.0947 C   0  0  0  0  0  0
   15.0597   17.3839  110.3745 C   0  0  0  0  0  0
   17.2866   18.3284  110.4723 C   0  0  0  0  0  0
   15.9103   18.4551  110.6391 C   0  0  0  0  0  0
   16.7617   13.9403  109.2829 H   0  0  0  0  0  0
   17.8272   14.0014  107.2120 H   0  0  0  0  0  0
   17.9467   15.7642  107.4012 H   0  0  0  0  0  0
   19.7623   16.7056  106.4276 H   0  0  0  0  0  0
   17.0817   12.7351  111.0240 H   0  0  0  0  0  0
   23.5242   13.5619  105.8538 H   0  0  0  0  0  0
   23.3636   15.5612  104.4576 H   0  0  0  0  0  0
   18.8828   17.0279  109.9046 H   0  0  0  0  0  0
   14.9217   15.3488  109.7244 H   0  0  0  0  0  0
   16.7420   11.8043  113.0905 H   0  0  0  0  0  0
   18.4142   12.1982  113.5032 H   0  0  0  0  0  0
   17.1317   13.3919  113.7567 H   0  0  0  0  0  0
   13.9942   17.4942  110.5091 H   0  0  0  0  0  0
   17.9442   19.1603  110.6831 H   0  0  0  0  0  0
   15.4989   19.3917  110.9867 H   0  0  0  0  0  0
  1  2  1  0  0  0
  1  4  1  0  0  0
  1  5  1  0  0  0
  2  3  2  0  0  0
  3  7  1  0  0  0
  3  6  1  0  0  0
  4  6  1  0  0  0
  4 11  1  0  0  0
  4 24  1  0  0  0
  5 10  2  0  0  0
  5 12  1  0  0  0
  6 25  1  0  0  0
  6 26  1  0  0  0
  7  8  2  0  0  0
  7  9  1  0  0  0
  8 13  1  0  0  0
  8 15  1  0  0  0
  9 14  2  0  0  0
  9 27  1  0  0  0
 11 18  1  0  0  0
 11 19  2  0  0  0
 12 20  1  0  0  0
 12 28  1  0  0  0
 13 16  2  0  0  0
 13 29  1  0  0  0
 14 16  1  0  0  0
 14 17  1  0  0  0
 16 30  1  0  0  0
 18 22  2  0  0  0
 18 31  1  0  0  0
 19 21  1  0  0  0
 19 32  1  0  0  0
 20 33  1  0  0  0
 20 34  1  0  0  0
 20 35  1  0  0  0
 21 23  2  0  0  0
 21 36  1  0  0  0
 22 23  1  0  0  0
 22 37  1  0  0  0
 23 38  1  0  0  0
M  END
> <s_m_entry_id>
222

> <s_m_entry_name>
dock_pv.221

> <s_m_Source_Path>
/home/csk/Desktop/cluster/DUD-E-result/kif11

> <s_m_Source_File>
dock_pv.maegz

> <i_m_Source_File_Index>
221

> <chembl_id>
CHEMBL193686

> <chembl_pref_name>
None

> <i_lp_mmshare_version>
53161

> <i_f3d_flags>
0

> <r_lp_tautomer_probability>
1

> <s_lp_Force_Field>
OPLS_2005

> <r_lp_Energy>
24.976152

> <b_lp_Chiralities_Consistent>
1

> <s_lp_Variant>
CHEMBL4581_lig28-1

> <s_i_glide_gridfile>
glide-grid_3cjo

> <i_i_glide_lignum>
42

> <i_i_glide_rotatable_bonds>
4

> <r_i_docking_score>
-7.94406570224371

> <r_i_glide_ligand_efficiency>
-0.345394160967118

> <r_i_glide_ligand_efficiency_sa>
-0.982255048381304

> <r_i_glide_ligand_efficiency_ln>
-1.92094711960777

> <r_i_glide_gscore>
-7.94406570224371

> <r_i_glide_lipo>
-3.16248309218129

> <r_i_glide_hbond>
0

> <r_i_glide_metal>
0

> <r_i_glide_rewards>
-3.05919351791254

> <r_i_glide_evdw>
-39.0035934448242

> <r_i_glide_ecoul>
-2.22308993339539

> <r_i_glide_erotb>
0.561254070100634

> <r_i_glide_esite>
0

> <r_i_glide_emodel>
-59.0529471024012

> <r_i_glide_energy>
-41.2266833782196

> <r_i_glide_einternal>
3.27167510986328

> <i_i_glide_confnum>
7

> <i_i_glide_posenum>
133

> <r_i_glide_eff_state_penalty>
0

> <s_user_duplicate_titles>
CHEMBL4581_lig28

> <s_m_subgroup_title>
dock_pv

> <s_m_subgroupid>
dock_pv

> <b_m_subgroup_collapsed>
1

$$$$
CHEMBL4581_lig796
                    3D
 Schrodinger Suite 2021-1.
 54 56  0  0  1  0            999 V2000
   15.2462   13.8010  106.0770 C   0  0  2  0  0  0
   15.0552   14.5357  104.7211 C   0  0  0  0  0  0
   14.0821   14.2525  104.0189 O   0  0  0  0  0  0
   16.4454   14.3069  106.9192 C   0  0  0  0  0  0
   15.3524   12.3636  105.7590 N   0  0  0  0  0  0
   16.5276   13.5545  108.5798 S   0  0  0  0  0  0
   17.7246   14.5737  109.5811 C   0  0  0  0  0  0
   17.9523   13.9335  110.9903 C   0  0  0  0  0  0
   18.9266   14.4884  111.8384 C   0  0  0  0  0  0
   19.1180   14.0047  113.1296 C   0  0  0  0  0  0
   18.3471   12.9459  113.5937 C   0  0  0  0  0  0
   17.3955   12.3633  112.7676 C   0  0  0  0  0  0
   17.2008   12.8463  111.4759 C   0  0  0  0  0  0
   19.0225   14.5847  108.7155 C   0  0  0  0  0  0
   19.1901   15.5294  107.6852 C   0  0  0  0  0  0
   20.2599   15.4477  106.8010 C   0  0  0  0  0  0
   21.2002   14.4378  106.9601 C   0  0  0  0  0  0
   21.1180   13.5620  108.0396 C   0  0  0  0  0  0
   20.0285   13.6237  108.9060 C   0  0  0  0  0  0
   17.1415   15.9913  109.8714 C   0  0  0  0  0  0
   18.0005   17.0884  110.0551 C   0  0  0  0  0  0
   17.5012   18.3444  110.3739 C   0  0  0  0  0  0
   16.1288   18.5289  110.5033 C   0  0  0  0  0  0
   15.2551   17.4611  110.3212 C   0  0  0  0  0  0
   15.7588   16.2006  110.0104 C   0  0  0  0  0  0
   15.9673   15.4572  104.3509 N   0  0  0  0  0  0
   15.8843   16.2506  103.1126 C   0  0  0  0  0  0
   16.4443   15.5179  101.8712 C   0  0  0  0  0  0
   16.3176   15.9733  100.7557 O   0  0  0  0  0  0
   17.1175   14.3623  102.1619 O   0  0  0  0  0  0
   14.3436   13.9939  106.6598 H   0  0  0  0  0  0
   17.3754   14.0817  106.3944 H   0  0  0  0  0  0
   16.3836   15.3876  107.0508 H   0  0  0  0  0  0
   15.5181   11.7855  106.5876 H   0  0  0  0  0  0
   14.4957   12.0249  105.3439 H   0  0  0  0  0  0
   19.5357   15.3140  111.5043 H   0  0  0  0  0  0
   19.8641   14.4517  113.7700 H   0  0  0  0  0  0
   18.4892   12.5731  114.5989 H   0  0  0  0  0  0
   16.7863   11.5498  113.1319 H   0  0  0  0  0  0
   16.4330   12.3655  110.8902 H   0  0  0  0  0  0
   18.4537   16.3022  107.5190 H   0  0  0  0  0  0
   20.3505   16.1522  105.9874 H   0  0  0  0  0  0
   22.0242   14.3580  106.2656 H   0  0  0  0  0  0
   21.8701   12.7975  108.1640 H   0  0  0  0  0  0
   19.9460   12.8804  109.6865 H   0  0  0  0  0  0
   19.0710   16.9729  109.9802 H   0  0  0  0  0  0
   18.1859   19.1618  110.5360 H   0  0  0  0  0  0
   15.7409   19.5047  110.7574 H   0  0  0  0  0  0
   14.1905   17.6087  110.4310 H   0  0  0  0  0  0
   15.0604   15.3853  109.8993 H   0  0  0  0  0  0
   16.7253   15.6616  104.9868 H   0  0  0  0  0  0
   16.4539   17.1716  103.2405 H   0  0  0  0  0  0
   14.8538   16.5505  102.9054 H   0  0  0  0  0  0
   17.0812   14.1402  103.0996 H   0  0  0  0  0  0
  1  5  1  0  0  0
  1  2  1  0  0  0
  1  4  1  0  0  0
  1 31  1  0  0  0
  2  3  2  0  0  0
  2 26  1  0  0  0
  4  6  1  0  0  0
  4 32  1  0  0  0
  4 33  1  0  0  0
  5 34  1  0  0  0
  5 35  1  0  0  0
  6  7  1  0  0  0
  7  8  1  0  0  0
  7 14  1  0  0  0
  7 20  1  0  0  0
  8  9  2  0  0  0
  8 13  1  0  0  0
  9 10  1  0  0  0
  9 36  1  0  0  0
 10 11  2  0  0  0
 10 37  1  0  0  0
 11 12  1  0  0  0
 11 38  1  0  0  0
 12 13  2  0  0  0
 12 39  1  0  0  0
 13 40  1  0  0  0
 14 19  1  0  0  0
 14 15  2  0  0  0
 15 16  1  0  0  0
 15 41  1  0  0  0
 16 17  2  0  0  0
 16 42  1  0  0  0
 17 18  1  0  0  0
 17 43  1  0  0  0
 18 19  2  0  0  0
 18 44  1  0  0  0
 19 45  1  0  0  0
 20 21  2  0  0  0
 20 25  1  0  0  0
 21 22  1  0  0  0
 21 46  1  0  0  0
 22 23  2  0  0  0
 22 47  1  0  0  0
 23 24  1  0  0  0
 23 48  1  0  0  0
 24 25  2  0  0  0
 24 49  1  0  0  0
 25 50  1  0  0  0
 26 27  1  0  0  0
 26 51  1  0  0  0
 27 28  1  0  0  0
 27 52  1  0  0  0
 27 53  1  0  0  0
 28 29  2  0  0  0
 28 30  1  0  0  0
 30 54  1  0  0  0
M  END
> <s_m_entry_id>
223

> <s_m_entry_name>
dock_pv.222

> <s_m_Source_Path>
/home/csk/Desktop/cluster/DUD-E-result/kif11

> <s_m_Source_File>
dock_pv.maegz

> <i_m_Source_File_Index>
222

> <chembl_id>
CHEMBL270748

> <chembl_pref_name>
None

> <i_lp_mmshare_version>
53161

> <i_f3d_flags>
0

> <r_lp_tautomer_probability>
1

> <s_lp_Force_Field>
OPLS_2005

> <r_lp_Energy>
24.103762

> <b_lp_Chiralities_Consistent>
1

> <s_lp_Variant>
CHEMBL4581_lig796-1

> <s_i_glide_gridfile>
glide-grid_3cjo

> <i_i_glide_lignum>
1180

> <i_i_glide_rotatable_bonds>
11

> <r_i_docking_score>
-7.93957144464573

> <r_i_glide_ligand_efficiency>
-0.264652381488191

> <r_i_glide_ligand_efficiency_sa>
-0.822336481605899

> <r_i_glide_ligand_efficiency_ln>
-1.80395714078319

> <r_i_glide_gscore>
-7.93957144464573

> <r_i_glide_lipo>
-4.68874917353777

> <r_i_glide_hbond>
-0.304

> <r_i_glide_metal>
0

> <r_i_glide_rewards>
-0.608531300498317

> <r_i_glide_evdw>
-45.6930618286133

> <r_i_glide_ecoul>
-7.69518995285034

> <r_i_glide_erotb>
1.11926454478577

> <r_i_glide_esite>
-0.0186239310372019

> <r_i_glide_emodel>
-74.8462489862195

> <r_i_glide_energy>
-53.3882517814636

> <r_i_glide_einternal>
11.3151369094849

> <i_i_glide_confnum>
86

> <i_i_glide_posenum>
166

> <r_i_glide_eff_state_penalty>
0

> <s_user_duplicate_titles>
CHEMBL4581_lig796

> <s_m_subgroup_title>
dock_pv

> <s_m_subgroupid>
dock_pv

> <b_m_subgroup_collapsed>
1

$$$$
CHEMBL4581_lig598
                    3D
 Schrodinger Suite 2021-1.
 47 49  0  0  1  0            999 V2000
   19.5563   15.0892  107.8480 C   0  0  0  0  0  0
   18.5453   14.5800  108.9352 C   0  0  1  0  0  0
   17.7444   15.7287  109.6363 C   0  0  0  0  0  0
   16.3442   15.7134  109.7797 C   0  0  0  0  0  0
   15.6733   16.7712  110.3882 C   0  0  0  0  0  0
   16.3926   17.8555  110.8781 C   0  0  0  0  0  0
   17.7793   17.8777  110.7845 C   0  0  0  0  0  0
   18.4440   16.8118  110.1881 C   0  0  0  0  0  0
   17.4319   13.4151  108.0326 S   0  0  0  0  0  0
   16.6636   14.4210  106.7158 C   0  0  0  0  0  0
   15.2065   14.0682  106.3831 C   0  0  0  0  0  0
   19.3022   13.7831  110.0481 C   0  0  0  0  0  0
   18.5887   13.4205  111.3496 C   0  0  0  0  0  0
   19.1164   13.8701  112.5650 C   0  0  0  0  0  0
   18.6560   13.3221  113.7588 C   0  0  0  0  0  0
   17.6296   12.3890  113.7488 C   0  0  0  0  0  0
   17.0876   11.9625  112.5459 C   0  0  0  0  0  0
   17.5550   12.4792  111.3457 C   0  0  0  0  0  0
   15.1174   12.7616  105.7591 N   0  0  0  0  0  0
   21.5181   14.8117  106.4112 C   0  0  0  0  0  0
   21.2396   16.0064  105.7599 C   0  0  0  0  0  0
   20.1327   16.7506  106.1433 C   0  0  0  0  0  0
   19.3027   16.2949  107.1668 C   0  0  0  0  0  0
   20.7139   14.3663  107.4590 C   0  0  0  0  0  0
   21.1179   13.2363  108.0832 F   0  0  0  0  0  0
   15.7474   14.8896  109.4234 H   0  0  0  0  0  0
   14.5974   16.7521  110.4781 H   0  0  0  0  0  0
   15.8757   18.6780  111.3516 H   0  0  0  0  0  0
   18.3376   18.7107  111.1887 H   0  0  0  0  0  0
   19.5177   16.8339  110.1578 H   0  0  0  0  0  0
   16.6956   15.4707  107.0002 H   0  0  0  0  0  0
   17.2811   14.3320  105.8199 H   0  0  0  0  0  0
   14.5957   14.0884  107.2871 H   0  0  0  0  0  0
   14.7898   14.8094  105.6991 H   0  0  0  0  0  0
   19.6179   12.8150  109.6611 H   0  0  0  0  0  0
   20.2253   14.3053  110.2934 H   0  0  0  0  0  0
   19.9404   14.5679  112.5852 H   0  0  0  0  0  0
   19.1181   13.5620  114.6992 H   0  0  0  0  0  0
   17.2790   11.9628  114.6786 H   0  0  0  0  0  0
   16.3181   11.2085  112.5475 H   0  0  0  0  0  0
   17.1637   12.0827  110.4212 H   0  0  0  0  0  0
   15.5169   12.0642  106.3823 H   0  0  0  0  0  0
   14.1496   12.4978  105.6393 H   0  0  0  0  0  0
   22.3836   14.2340  106.1214 H   0  0  0  0  0  0
   21.8795   16.3529  104.9616 H   0  0  0  0  0  0
   19.9183   17.6840  105.6459 H   0  0  0  0  0  0
   18.4435   16.8965  107.4192 H   0  0  0  0  0  0
  1 24  2  0  0  0
  1  2  1  0  0  0
  1 23  1  0  0  0
  2  9  1  0  0  0
  2  3  1  0  0  0
  2 12  1  0  0  0
  3  4  2  0  0  0
  3  8  1  0  0  0
  4  5  1  0  0  0
  4 26  1  0  0  0
  5  6  2  0  0  0
  5 27  1  0  0  0
  6  7  1  0  0  0
  6 28  1  0  0  0
  7  8  2  0  0  0
  7 29  1  0  0  0
  8 30  1  0  0  0
  9 10  1  0  0  0
 10 11  1  0  0  0
 10 31  1  0  0  0
 10 32  1  0  0  0
 11 19  1  0  0  0
 11 33  1  0  0  0
 11 34  1  0  0  0
 12 13  1  0  0  0
 12 35  1  0  0  0
 12 36  1  0  0  0
 13 14  2  0  0  0
 13 18  1  0  0  0
 14 15  1  0  0  0
 14 37  1  0  0  0
 15 16  2  0  0  0
 15 38  1  0  0  0
 16 17  1  0  0  0
 16 39  1  0  0  0
 17 18  2  0  0  0
 17 40  1  0  0  0
 18 41  1  0  0  0
 19 42  1  0  0  0
 19 43  1  0  0  0
 20 24  1  0  0  0
 20 21  2  0  0  0
 20 44  1  0  0  0
 21 22  1  0  0  0
 21 45  1  0  0  0
 22 23  2  0  0  0
 22 46  1  0  0  0
 23 47  1  0  0  0
 24 25  1  0  0  0
M  END
> <s_m_entry_id>
224

> <s_m_entry_name>
dock_pv.223

> <s_m_Source_Path>
/home/csk/Desktop/cluster/DUD-E-result/kif11

> <s_m_Source_File>
dock_pv.maegz

> <i_m_Source_File_Index>
223

> <chembl_id>
CHEMBL2043404

> <chembl_pref_name>
None

> <i_lp_mmshare_version>
53161

> <i_f3d_flags>
0

> <r_lp_tautomer_probability>
1

> <s_lp_Force_Field>
OPLS_2005

> <r_lp_Energy>
26.021772

> <b_lp_Chiralities_Consistent>
1

> <s_lp_Variant>
CHEMBL4581_lig598-1

> <s_i_glide_gridfile>
glide-grid_3cjo

> <i_i_glide_lignum>
920

> <i_i_glide_rotatable_bonds>
7

> <r_i_docking_score>
-7.937035101329

> <r_i_glide_ligand_efficiency>
-0.31748140405316

> <r_i_glide_ligand_efficiency_sa>
-0.928321256008115

> <r_i_glide_ligand_efficiency_ln>
-1.88131517276334

> <r_i_glide_gscore>
-7.937035101329

> <r_i_glide_lipo>
-4.64826848039643

> <r_i_glide_hbond>
-0.32

> <r_i_glide_metal>
0

> <r_i_glide_rewards>
-1.5459616310606

> <r_i_glide_evdw>
-37.3514442443848

> <r_i_glide_ecoul>
-3.21055889129639

> <r_i_glide_erotb>
0.92635105604173

> <r_i_glide_esite>
0

> <r_i_glide_emodel>
-58.4944562418917

> <r_i_glide_energy>
-40.5620031356812

> <r_i_glide_einternal>
7.95330810546875

> <i_i_glide_confnum>
46

> <i_i_glide_posenum>
242

> <r_i_glide_eff_state_penalty>
0

> <s_user_duplicate_titles>
CHEMBL4581_lig598

> <s_m_subgroup_title>
dock_pv

> <s_m_subgroupid>
dock_pv

> <b_m_subgroup_collapsed>
1

$$$$
CHEMBL4581_lig93
                    3D
 Schrodinger Suite 2021-1.
 66 69  0  0  1  0            999 V2000
   22.7002   14.2170  106.0641 C   0  0  0  0  0  0
   22.6998   15.3653  105.2808 C   0  0  0  0  0  0
   21.6420   16.2650  105.3631 C   0  0  0  0  0  0
   20.5921   16.0180  106.2473 C   0  0  0  0  0  0
   20.5976   14.8783  107.0707 C   0  0  0  0  0  0
   21.6615   13.9625  106.9587 C   0  0  0  0  0  0
   21.7423   12.8584  107.7421 F   0  0  0  0  0  0
   21.6280   17.3690  104.5867 F   0  0  0  0  0  0
   19.5058   14.6761  108.0367 C   0  0  0  0  0  0
   19.6043   14.1223  109.1743 N   0  0  0  0  0  0
   18.4233   14.1590  109.8512 N   0  0  0  0  0  0
   17.3490   14.8237  109.0593 C   0  0  2  0  0  0
   18.1017   15.1141  107.7428 C   0  0  0  0  0  0
   16.8668   16.1469  109.7348 C   0  0  0  0  0  0
   15.5471   16.3402  110.1701 C   0  0  0  0  0  0
   15.1667   17.5395  110.7656 C   0  0  0  0  0  0
   16.1033   18.5503  110.9397 C   0  0  0  0  0  0
   17.4218   18.3670  110.5429 C   0  0  0  0  0  0
   17.8000   17.1761  109.9413 C   0  0  0  0  0  0
   18.4538   14.1211  111.2077 C   0  0  0  0  0  0
   17.6992   13.1374  111.7302 N   0  0  0  0  0  0
   19.1394   14.8846  111.8962 O   0  0  0  0  0  0
   17.4718   12.9269  113.1597 C   0  0  0  0  0  0
   16.2014   13.8004  108.7608 C   0  0  0  0  0  0
   18.7150   12.4579  113.9222 C   0  0  0  0  0  0
   15.1308   14.2759  107.7401 C   0  0  0  0  0  0
   14.6710   13.1742  106.7687 C   0  0  0  0  0  0
   13.6135   13.6262  105.7435 C   0  0  0  0  0  0
   14.0451   14.7406  104.8991 N   0  0  0  0  0  0
   14.8059   14.6392  103.7908 C   0  0  0  0  0  0
   15.0892   15.9250  103.0417 C   0  0  0  0  0  0
   15.2333   13.5619  103.3775 O   0  0  0  0  0  0
   14.7444   17.1107  103.6270 N   0  0  0  0  0  0
   14.9617   18.2643  102.9441 C   0  0  0  0  0  0
   15.5183   18.2901  101.6655 C   0  0  0  0  0  0
   15.8819   17.0808  101.0743 C   0  0  0  0  0  0
   15.6729   15.8861  101.7648 C   0  0  0  0  0  0
   23.5182   13.5314  105.9863 H   0  0  0  0  0  0
   23.5165   15.5533  104.5997 H   0  0  0  0  0  0
   19.7984   16.7491  106.2980 H   0  0  0  0  0  0
   17.7288   14.5362  106.8923 H   0  0  0  0  0  0
   18.0477   16.1688  107.4716 H   0  0  0  0  0  0
   14.7977   15.5755  110.0704 H   0  0  0  0  0  0
   14.1482   17.6862  111.0953 H   0  0  0  0  0  0
   15.8088   19.4822  111.4019 H   0  0  0  0  0  0
   18.1473   19.1540  110.6916 H   0  0  0  0  0  0
   18.8284   17.0509  109.6398 H   0  0  0  0  0  0
   17.2571   12.4895  111.0953 H   0  0  0  0  0  0
   17.0907   13.8421  113.6148 H   0  0  0  0  0  0
   16.6845   12.1800  113.2679 H   0  0  0  0  0  0
   15.7107   13.4937  109.6839 H   0  0  0  0  0  0
   16.6579   12.8816  108.3799 H   0  0  0  0  0  0
   18.4697   12.2241  114.9568 H   0  0  0  0  0  0
   19.1192   11.5623  113.4597 H   0  0  0  0  0  0
   19.4934   13.2185  113.9402 H   0  0  0  0  0  0
   15.5027   15.1207  107.1602 H   0  0  0  0  0  0
   14.2539   14.6566  108.2658 H   0  0  0  0  0  0
   14.2558   12.3589  107.3525 H   0  0  0  0  0  0
   15.5305   12.7604  106.2397 H   0  0  0  0  0  0
   12.7329   13.9824  106.2809 H   0  0  0  0  0  0
   13.2788   12.7834  105.1368 H   0  0  0  0  0  0
   13.7326   15.6625  105.1641 H   0  0  0  0  0  0
   14.6730   19.1805  103.4382 H   0  0  0  0  0  0
   15.6702   19.2295  101.1503 H   0  0  0  0  0  0
   16.3179   17.0688  100.0841 H   0  0  0  0  0  0
   15.9370   14.9457  101.3008 H   0  0  0  0  0  0
  1  6  1  0  0  0
  1  2  2  0  0  0
  1 38  1  0  0  0
  2  3  1  0  0  0
  2 39  1  0  0  0
  3  4  2  0  0  0
  3  8  1  0  0  0
  4  5  1  0  0  0
  4 40  1  0  0  0
  5  9  1  0  0  0
  5  6  2  0  0  0
  6  7  1  0  0  0
  9 10  2  0  0  0
  9 13  1  0  0  0
 10 11  1  0  0  0
 11 20  1  0  0  0
 11 12  1  0  0  0
 12 24  1  0  0  0
 12 13  1  0  0  0
 12 14  1  0  0  0
 13 41  1  0  0  0
 13 42  1  0  0  0
 14 19  1  0  0  0
 14 15  2  0  0  0
 15 16  1  0  0  0
 15 43  1  0  0  0
 16 17  2  0  0  0
 16 44  1  0  0  0
 17 18  1  0  0  0
 17 45  1  0  0  0
 18 19  2  0  0  0
 18 46  1  0  0  0
 19 47  1  0  0  0
 20 21  1  0  0  0
 20 22  2  0  0  0
 21 23  1  0  0  0
 21 48  1  0  0  0
 23 25  1  0  0  0
 23 49  1  0  0  0
 23 50  1  0  0  0
 24 26  1  0  0  0
 24 51  1  0  0  0
 24 52  1  0  0  0
 25 53  1  0  0  0
 25 54  1  0  0  0
 25 55  1  0  0  0
 26 27  1  0  0  0
 26 56  1  0  0  0
 26 57  1  0  0  0
 27 28  1  0  0  0
 27 58  1  0  0  0
 27 59  1  0  0  0
 28 29  1  0  0  0
 28 60  1  0  0  0
 28 61  1  0  0  0
 29 30  1  0  0  0
 29 62  1  0  0  0
 30 31  1  0  0  0
 30 32  2  0  0  0
 31 33  2  0  0  0
 31 37  1  0  0  0
 33 34  1  0  0  0
 34 35  2  0  0  0
 34 63  1  0  0  0
 35 36  1  0  0  0
 35 64  1  0  0  0
 36 37  2  0  0  0
 36 65  1  0  0  0
 37 66  1  0  0  0
M  END
> <s_m_entry_id>
225

> <s_m_entry_name>
dock_pv.224

> <s_m_Source_Path>
/home/csk/Desktop/cluster/DUD-E-result/kif11

> <s_m_Source_File>
dock_pv.maegz

> <i_m_Source_File_Index>
224

> <chembl_id>
CHEMBL425420

> <chembl_pref_name>
None

> <i_lp_mmshare_version>
53161

> <i_f3d_flags>
0

> <r_lp_tautomer_probability>
1

> <s_lp_Force_Field>
OPLS_2005

> <r_lp_Energy>
37.060209

> <b_lp_Chiralities_Consistent>
1

> <s_lp_Variant>
CHEMBL4581_lig93-1

> <s_i_glide_gridfile>
glide-grid_3cjo

> <i_i_glide_lignum>
152

> <i_i_glide_rotatable_bonds>
12

> <r_i_docking_score>
-7.935589630309

> <r_i_glide_ligand_efficiency>
-0.214475395413757

> <r_i_glide_ligand_efficiency_sa>
-0.71467959837791

> <r_i_glide_ligand_efficiency_ln>
-1.72104335419803

> <r_i_glide_gscore>
-7.935589630309

> <r_i_glide_lipo>
-3.92128678558116

> <r_i_glide_hbond>
0

> <r_i_glide_metal>
0

> <r_i_glide_rewards>
-1.70206448480124

> <r_i_glide_evdw>
-54.2208404541016

> <r_i_glide_ecoul>
-2.67645812034607

> <r_i_glide_erotb>
0.800272380830385

> <r_i_glide_esite>
0

> <r_i_glide_emodel>
-81.4189258961893

> <r_i_glide_energy>
-56.8972985744476

> <r_i_glide_einternal>
5.23082637786865

> <i_i_glide_confnum>
18

> <i_i_glide_posenum>
244

> <r_i_glide_eff_state_penalty>
0

> <s_user_duplicate_titles>
CHEMBL4581_lig93,348315

> <s_m_subgroup_title>
dock_pv

> <s_m_subgroupid>
dock_pv

> <b_m_subgroup_collapsed>
1

$$$$
CHEMBL4581_lig9
                    3D
 Schrodinger Suite 2021-1.
 47 49  0  0  1  0            999 V2000
   16.0077   12.9232  105.7152 C   0  0  2  0  0  0
   14.4963   13.1468  105.9082 C   0  0  0  0  0  0
   13.9477   14.2441  105.8062 O   0  0  0  0  0  0
   16.9080   13.6460  106.7429 C   0  0  0  0  0  0
   16.3179   13.3261  104.3325 N   0  0  0  0  0  0
   16.3809   13.5521  108.5106 S   0  0  0  0  0  0
   17.4567   14.7213  109.4816 C   0  0  0  0  0  0
   16.6917   16.0981  109.5423 C   0  0  0  0  0  0
   16.1544   16.6937  108.3838 C   0  0  0  0  0  0
   15.4869   17.9134  108.4217 C   0  0  0  0  0  0
   15.3157   18.5647  109.6338 C   0  0  0  0  0  0
   15.7878   17.9871  110.8041 C   0  0  0  0  0  0
   16.4518   16.7648  110.7595 C   0  0  0  0  0  0
   17.7385   14.1479  110.9191 C   0  0  0  0  0  0
   18.7215   14.7728  111.7100 C   0  0  0  0  0  0
   19.0688   14.2739  112.9609 C   0  0  0  0  0  0
   18.4533   13.1220  113.4375 C   0  0  0  0  0  0
   17.5021   12.4641  112.6660 C   0  0  0  0  0  0
   17.1401   12.9765  111.4215 C   0  0  0  0  0  0
   18.8158   14.7475  108.7180 C   0  0  0  0  0  0
   19.7252   13.6873  108.9083 C   0  0  0  0  0  0
   20.8849   13.5939  108.1543 C   0  0  0  0  0  0
   21.1168   14.5313  107.1534 C   0  0  0  0  0  0
   20.2804   15.6306  106.9962 C   0  0  0  0  0  0
   19.1530   15.7571  107.8007 C   0  0  0  0  0  0
   13.8742   11.9632  106.1635 O   0  0  0  0  0  0
   22.5071   14.3648  106.1471 Cl  0  0  0  0  0  0
   16.2174   11.8571  105.8112 H   0  0  0  0  0  0
   17.0438   14.6751  106.4276 H   0  0  0  0  0  0
   17.9004   13.1987  106.6747 H   0  0  0  0  0  0
   17.3173   13.1616  104.1577 H   0  0  0  0  0  0
   15.8153   12.7585  103.6672 H   0  0  0  0  0  0
   16.2434   16.2324  107.4201 H   0  0  0  0  0  0
   15.1023   18.3508  107.5119 H   0  0  0  0  0  0
   14.8028   19.5149  109.6698 H   0  0  0  0  0  0
   15.6385   18.4908  111.7455 H   0  0  0  0  0  0
   16.7704   16.3628  111.7045 H   0  0  0  0  0  0
   19.2231   15.6587  111.3462 H   0  0  0  0  0  0
   19.8217   14.7703  113.5550 H   0  0  0  0  0  0
   18.7233   12.7294  114.4077 H   0  0  0  0  0  0
   17.0315   11.5630  113.0345 H   0  0  0  0  0  0
   16.3940   12.4290  110.8666 H   0  0  0  0  0  0
   19.5145   12.8881  109.6046 H   0  0  0  0  0  0
   21.5615   12.7638  108.2887 H   0  0  0  0  0  0
   20.5017   16.3838  106.2540 H   0  0  0  0  0  0
   18.5334   16.6229  107.6441 H   0  0  0  0  0  0
   14.4946   11.2700  106.4222 H   0  0  0  0  0  0
  1  4  1  0  0  0
  1  5  1  0  0  0
  1  2  1  0  0  0
  1 28  1  0  0  0
  2  3  2  0  0  0
  2 26  1  0  0  0
  4  6  1  0  0  0
  4 29  1  0  0  0
  4 30  1  0  0  0
  5 31  1  0  0  0
  5 32  1  0  0  0
  6  7  1  0  0  0
  7  8  1  0  0  0
  7 14  1  0  0  0
  7 20  1  0  0  0
  8  9  2  0  0  0
  8 13  1  0  0  0
  9 10  1  0  0  0
  9 33  1  0  0  0
 10 11  2  0  0  0
 10 34  1  0  0  0
 11 12  1  0  0  0
 11 35  1  0  0  0
 12 13  2  0  0  0
 12 36  1  0  0  0
 13 37  1  0  0  0
 14 15  2  0  0  0
 14 19  1  0  0  0
 15 16  1  0  0  0
 15 38  1  0  0  0
 16 17  2  0  0  0
 16 39  1  0  0  0
 17 18  1  0  0  0
 17 40  1  0  0  0
 18 19  2  0  0  0
 18 41  1  0  0  0
 19 42  1  0  0  0
 20 21  2  0  0  0
 20 25  1  0  0  0
 21 22  1  0  0  0
 21 43  1  0  0  0
 22 23  2  0  0  0
 22 44  1  0  0  0
 23 24  1  0  0  0
 23 27  1  0  0  0
 24 25  2  0  0  0
 24 45  1  0  0  0
 25 46  1  0  0  0
 26 47  1  0  0  0
M  END
> <s_m_entry_id>
226

> <s_m_entry_name>
dock_pv.225

> <s_m_Source_Path>
/home/csk/Desktop/cluster/DUD-E-result/kif11

> <s_m_Source_File>
dock_pv.maegz

> <i_m_Source_File_Index>
225

> <chembl_id>
CHEMBL409102

> <chembl_pref_name>
None

> <i_lp_mmshare_version>
53161

> <i_f3d_flags>
0

> <r_lp_tautomer_probability>
1

> <s_lp_Force_Field>
OPLS_2005

> <r_lp_Energy>
26.407058

> <b_lp_Chiralities_Consistent>
1

> <s_lp_Variant>
CHEMBL4581_lig9-1

> <s_i_glide_gridfile>
glide-grid_3cjo

> <i_i_glide_lignum>
10

> <i_i_glide_rotatable_bonds>
8

> <r_i_docking_score>
-7.9277227478763

> <r_i_glide_ligand_efficiency>
-0.293619361032456

> <r_i_glide_ligand_efficiency_sa>
-0.880858082129645

> <r_i_glide_ligand_efficiency_ln>
-1.84544315698144

> <r_i_glide_gscore>
-7.9277227478763

> <r_i_glide_lipo>
-4.43631163107683

> <r_i_glide_hbond>
-0.152

> <r_i_glide_metal>
0

> <r_i_glide_rewards>
-0.786046924919416

> <r_i_glide_evdw>
-39.6649169921875

> <r_i_glide_ecoul>
-9.50212669372559

> <r_i_glide_erotb>
0.865589395740072

> <r_i_glide_esite>
-0.010388733951908

> <r_i_glide_emodel>
-69.9832112503099

> <r_i_glide_energy>
-49.1670436859131

> <r_i_glide_einternal>
7.66955280303955

> <i_i_glide_confnum>
131

> <i_i_glide_posenum>
109

> <r_i_glide_eff_state_penalty>
0

> <s_user_duplicate_titles>
CHEMBL4581_lig9

> <s_m_subgroup_title>
dock_pv

> <s_m_subgroupid>
dock_pv

> <b_m_subgroup_collapsed>
1

$$$$
CHEMBL4581_lig875
                    3D
 Schrodinger Suite 2021-1.
 50 52  0  0  1  0            999 V2000
   17.6010   14.5594  109.3780 C   0  0  0  0  0  0
   18.9232   14.5117  108.5458 C   0  0  0  0  0  0
   17.8196   13.9742  110.8080 C   0  0  0  0  0  0
   19.9663   13.6249  108.8726 C   0  0  0  0  0  0
   21.1180   13.5620  108.0932 C   0  0  0  0  0  0
   21.2259   14.3620  106.9590 C   0  0  0  0  0  0
   20.2201   15.2613  106.6274 C   0  0  0  0  0  0
   19.0806   15.3383  107.4203 C   0  0  0  0  0  0
   18.7625   14.5701  111.6670 C   0  0  0  0  0  0
   19.0067   14.0538  112.9346 C   0  0  0  0  0  0
   18.3067   12.9292  113.3491 C   0  0  0  0  0  0
   17.3584   12.3371  112.5345 C   0  0  0  0  0  0
   17.1190   12.8462  111.2705 C   0  0  0  0  0  0
   17.0690   16.0114  109.6040 C   0  0  0  0  0  0
   17.9690   17.0783  109.7667 C   0  0  0  0  0  0
   17.5180   18.3620  110.0444 C   0  0  0  0  0  0
   16.1536   18.6081  110.1440 C   0  0  0  0  0  0
   15.2390   17.5750  109.9718 C   0  0  0  0  0  0
   15.6933   16.2859  109.7072 C   0  0  0  0  0  0
   16.5621   13.6793  108.5802 C   0  0  0  0  0  0
   16.1675   14.1021  107.1472 C   0  0  0  0  0  0
   14.8203   13.4692  106.7096 C   0  0  1  0  0  0
   13.6924   14.4185  106.7840 N   0  0  0  0  0  0
   14.8884   12.8430  105.2998 C   0  0  0  0  0  0
   18.5436   12.3620  114.5590 O   0  0  0  0  0  0
   15.3528   11.5620  105.3590 O   0  0  0  0  0  0
   14.5778   13.4431  104.2703 O   0  0  0  0  0  0
   19.8887   12.9524  109.7139 H   0  0  0  0  0  0
   21.9092   12.8711  108.3423 H   0  0  0  0  0  0
   22.1070   14.2930  106.3375 H   0  0  0  0  0  0
   20.3183   15.8887  105.7539 H   0  0  0  0  0  0
   18.3055   16.0360  107.1398 H   0  0  0  0  0  0
   19.3368   15.4254  111.3474 H   0  0  0  0  0  0
   19.7476   14.5120  113.5728 H   0  0  0  0  0  0
   16.8039   11.4780  112.8811 H   0  0  0  0  0  0
   16.3852   12.3212  110.6809 H   0  0  0  0  0  0
   19.0347   16.9198  109.7004 H   0  0  0  0  0  0
   18.2287   19.1620  110.1875 H   0  0  0  0  0  0
   15.8030   19.6066  110.3610 H   0  0  0  0  0  0
   14.1798   17.7712  110.0527 H   0  0  0  0  0  0
   14.9495   15.5131  109.6014 H   0  0  0  0  0  0
   16.9480   12.6595  108.5084 H   0  0  0  0  0  0
   15.6416   13.5857  109.1552 H   0  0  0  0  0  0
   16.1075   15.1885  107.0729 H   0  0  0  0  0  0
   16.9782   13.8127  106.4739 H   0  0  0  0  0  0
   14.5851   12.6366  107.3725 H   0  0  0  0  0  0
   13.9283   15.2972  106.3438 H   0  0  0  0  0  0
   12.8802   14.0587  106.3009 H   0  0  0  0  0  0
   19.1180   12.8406  115.1603 H   0  0  0  0  0  0
   15.5180   11.2354  106.2612 H   0  0  0  0  0  0
  1  2  1  0  0  0
  1  3  1  0  0  0
  1 14  1  0  0  0
  1 20  1  0  0  0
  2  4  2  0  0  0
  2  8  1  0  0  0
  3  9  2  0  0  0
  3 13  1  0  0  0
  4  5  1  0  0  0
  4 28  1  0  0  0
  5  6  2  0  0  0
  5 29  1  0  0  0
  6  7  1  0  0  0
  6 30  1  0  0  0
  7  8  2  0  0  0
  7 31  1  0  0  0
  8 32  1  0  0  0
  9 10  1  0  0  0
  9 33  1  0  0  0
 10 11  2  0  0  0
 10 34  1  0  0  0
 11 12  1  0  0  0
 11 25  1  0  0  0
 12 13  2  0  0  0
 12 35  1  0  0  0
 13 36  1  0  0  0
 14 15  2  0  0  0
 14 19  1  0  0  0
 15 16  1  0  0  0
 15 37  1  0  0  0
 16 17  2  0  0  0
 16 38  1  0  0  0
 17 18  1  0  0  0
 17 39  1  0  0  0
 18 19  2  0  0  0
 18 40  1  0  0  0
 19 41  1  0  0  0
 20 21  1  0  0  0
 20 42  1  0  0  0
 20 43  1  0  0  0
 21 22  1  0  0  0
 21 44  1  0  0  0
 21 45  1  0  0  0
 22 23  1  0  0  0
 22 24  1  0  0  0
 22 46  1  0  0  0
 23 47  1  0  0  0
 23 48  1  0  0  0
 24 26  1  0  0  0
 24 27  2  0  0  0
 25 49  1  0  0  0
 26 50  1  0  0  0
M  END
> <s_m_entry_id>
227

> <s_m_entry_name>
dock_pv.226

> <s_m_Source_Path>
/home/csk/Desktop/cluster/DUD-E-result/kif11

> <s_m_Source_File>
dock_pv.maegz

> <i_m_Source_File_Index>
226

> <chembl_id>
CHEMBL2325437

> <chembl_pref_name>
None

> <i_lp_mmshare_version>
53161

> <i_f3d_flags>
0

> <r_lp_tautomer_probability>
0.999999999997365

> <s_lp_Force_Field>
OPLS_2005

> <r_lp_Energy>
27.930999

> <b_lp_Chiralities_Consistent>
1

> <s_lp_Variant>
CHEMBL4581_lig875-2

> <s_i_glide_gridfile>
glide-grid_3cjo

> <i_i_glide_lignum>
1267

> <i_i_glide_rotatable_bonds>
9

> <r_i_docking_score>
-7.92131767238132

> <r_i_glide_ligand_efficiency>
-0.293382136014123

> <r_i_glide_ligand_efficiency_sa>
-0.880146407075429

> <r_i_glide_ligand_efficiency_ln>
-1.84395216100213

> <r_i_glide_gscore>
-7.92131767238132

> <r_i_glide_lipo>
-4.55653036305685

> <r_i_glide_hbond>
-0.0686087795720315

> <r_i_glide_metal>
0

> <r_i_glide_rewards>
-1.01977077272727

> <r_i_glide_evdw>
-38.2983322143555

> <r_i_glide_ecoul>
-9.22281169891357

> <r_i_glide_erotb>
1.02831540724638

> <r_i_glide_esite>
-0.00638479871673404

> <r_i_glide_emodel>
-65.9497249343629

> <r_i_glide_energy>
-47.521143913269

> <r_i_glide_einternal>
7.93186283111572

> <i_i_glide_confnum>
87

> <i_i_glide_posenum>
105

> <r_i_glide_eff_state_penalty>
0

> <s_user_duplicate_titles>
CHEMBL4581_lig875

> <s_m_subgroup_title>
dock_pv

> <s_m_subgroupid>
dock_pv

> <b_m_subgroup_collapsed>
1

$$$$
CHEMBL4581_lig325
                    3D
 Schrodinger Suite 2021-1.
 43 46  0  0  1  0            999 V2000
   21.7961   14.9685  106.0725 C   0  0  0  0  0  0
   22.1676   13.7518  106.6470 C   0  0  0  0  0  0
   21.5180   13.2833  107.7695 C   0  0  0  0  0  0
   20.7170   15.6787  106.6055 C   0  0  0  0  0  0
   20.0422   15.2200  107.7462 C   0  0  0  0  0  0
   20.4787   14.0174  108.3356 C   0  0  0  0  0  0
   19.8604   13.4861  109.4747 N   0  0  0  0  0  0
   18.5966   14.0346  109.9576 C   0  0  2  0  0  0
   18.8436   15.9758  108.3120 C   0  0  2  0  0  0
   18.5820   15.5836  109.7920 C   0  0  1  0  0  0
   17.2709   16.2597  110.2670 C   0  0  0  0  0  0
   16.1106   15.9873  109.2935 C   0  0  0  0  0  0
   16.5203   16.3334  107.8495 C   0  0  0  0  0  0
   17.7170   15.6403  107.4991 O   0  0  0  0  0  0
   18.3306   13.5620  111.3827 C   0  0  0  0  0  0
   17.3317   12.6166  111.6258 C   0  0  0  0  0  0
   17.1180   12.1555  112.9208 C   0  0  0  0  0  0
   17.8925   12.6421  113.9683 C   0  0  0  0  0  0
   18.9034   13.5635  113.7303 C   0  0  0  0  0  0
   19.1180   14.0336  112.4398 C   0  0  0  0  0  0
   22.5764   15.5112  104.8895 C   0  0  0  0  0  0
   23.3362   14.4327  104.2403 C   0  0  0  0  0  0
   23.9207   13.5620  103.7590 N   0  0  0  0  0  0
   19.0365   17.0499  108.2513 H   0  0  0  0  0  0
   19.3997   16.0058  110.3784 H   0  0  0  0  0  0
   22.9789   13.1574  106.2579 H   0  0  0  0  0  0
   21.8277   12.3342  108.1639 H   0  0  0  0  0  0
   20.4084   16.6066  106.1450 H   0  0  0  0  0  0
   20.0016   12.5164  109.7196 H   0  0  0  0  0  0
   17.8115   13.6098  109.3290 H   0  0  0  0  0  0
   17.4286   17.3374  110.3424 H   0  0  0  0  0  0
   16.9988   15.9301  111.2704 H   0  0  0  0  0  0
   15.2317   16.5643  109.5830 H   0  0  0  0  0  0
   15.8192   14.9375  109.3464 H   0  0  0  0  0  0
   16.6601   17.4099  107.7340 H   0  0  0  0  0  0
   15.7316   16.0447  107.1542 H   0  0  0  0  0  0
   16.7286   12.2293  110.8166 H   0  0  0  0  0  0
   16.3394   11.4305  113.1135 H   0  0  0  0  0  0
   17.7202   12.2868  114.9729 H   0  0  0  0  0  0
   19.5180   13.9125  114.5447 H   0  0  0  0  0  0
   19.9104   14.7449  112.2586 H   0  0  0  0  0  0
   23.2744   16.2675  105.2467 H   0  0  0  0  0  0
   21.9181   15.9772  104.1590 H   0  0  0  0  0  0
  1  2  2  0  0  0
  1 21  1  0  0  0
  1  4  1  0  0  0
  2  3  1  0  0  0
  2 26  1  0  0  0
  3  6  2  0  0  0
  3 27  1  0  0  0
  4  5  2  0  0  0
  4 28  1  0  0  0
  5  9  1  0  0  0
  5  6  1  0  0  0
  6  7  1  0  0  0
  7  8  1  0  0  0
  7 29  1  0  0  0
  8 10  1  0  0  0
  8 15  1  0  0  0
  8 30  1  0  0  0
  9 14  1  0  0  0
  9 10  1  0  0  0
  9 24  1  0  0  0
 10 11  1  0  0  0
 10 25  1  0  0  0
 11 12  1  0  0  0
 11 31  1  0  0  0
 11 32  1  0  0  0
 12 13  1  0  0  0
 12 33  1  0  0  0
 12 34  1  0  0  0
 13 14  1  0  0  0
 13 35  1  0  0  0
 13 36  1  0  0  0
 15 16  2  0  0  0
 15 20  1  0  0  0
 16 17  1  0  0  0
 16 37  1  0  0  0
 17 18  2  0  0  0
 17 38  1  0  0  0
 18 19  1  0  0  0
 18 39  1  0  0  0
 19 20  2  0  0  0
 19 40  1  0  0  0
 20 41  1  0  0  0
 21 22  1  0  0  0
 21 42  1  0  0  0
 21 43  1  0  0  0
 22 23  3  0  0  0
M  END
> <s_m_entry_id>
228

> <s_m_entry_name>
dock_pv.227

> <s_m_Source_Path>
/home/csk/Desktop/cluster/DUD-E-result/kif11

> <s_m_Source_File>
dock_pv.maegz

> <i_m_Source_File_Index>
227

> <chembl_id>
CHEMBL1083521

> <chembl_pref_name>
None

> <i_lp_mmshare_version>
53161

> <i_f3d_flags>
0

> <r_lp_tautomer_probability>
1

> <s_lp_Force_Field>
OPLS_2005

> <r_lp_Energy>
25.68359

> <b_lp_Chiralities_Consistent>
1

> <s_lp_Variant>
CHEMBL4581_lig325-1

> <s_i_glide_gridfile>
glide-grid_3cjo

> <i_i_glide_lignum>
478

> <i_i_glide_rotatable_bonds>
2

> <r_i_docking_score>
-7.91896930970204

> <r_i_glide_ligand_efficiency>
-0.344303013465306

> <r_i_glide_ligand_efficiency_sa>
-0.979151970033998

> <r_i_glide_ligand_efficiency_ln>
-1.91487858432969

> <r_i_glide_gscore>
-7.91896930970204

> <r_i_glide_lipo>
-4.72903034033583

> <r_i_glide_hbond>
-0.0425940872396072

> <r_i_glide_metal>
0

> <r_i_glide_rewards>
-1.42540121212121

> <r_i_glide_evdw>
-33.8517036437988

> <r_i_glide_ecoul>
-2.7451000213623

> <r_i_glide_erotb>
0.398085441419757

> <r_i_glide_esite>
-0.0156789260308631

> <r_i_glide_emodel>
-52.1308926579558

> <r_i_glide_energy>
-36.5968036651611

> <r_i_glide_einternal>
0.762018620967865

> <i_i_glide_confnum>
5

> <i_i_glide_posenum>
352

> <r_i_glide_eff_state_penalty>
0

> <s_user_duplicate_titles>
CHEMBL4581_lig325,616275

> <s_m_subgroup_title>
dock_pv

> <s_m_subgroupid>
dock_pv

> <b_m_subgroup_collapsed>
1

$$$$
CHEMBL4581_lig179
                    3D
 Schrodinger Suite 2021-1.
 27 28  0  0  1  0            999 V2000
   17.6166   12.8500  113.2150 C   0  0  0  0  0  0
   17.1182   12.3635  112.0082 C   0  0  0  0  0  0
   17.5893   12.8869  110.8074 C   0  0  0  0  0  0
   18.5604   13.8923  110.8156 C   0  0  0  0  0  0
   19.0619   14.3641  112.0307 C   0  0  0  0  0  0
   18.6003   13.8339  113.2296 C   0  0  0  0  0  0
   19.0892   14.4426  109.5526 C   0  0  0  0  0  0
   20.1548   13.8069  108.9166 C   0  0  0  0  0  0
   20.7165   14.3616  107.7717 C   0  0  0  0  0  0
   20.2159   15.5600  107.2518 C   0  0  0  0  0  0
   19.1177   16.1726  107.8641 C   0  0  0  0  0  0
   18.5633   15.6195  109.0156 C   0  0  0  0  0  0
   20.8815   16.2096  106.0410 C   0  0  0  0  0  0
   21.7154   17.1619  106.4471 F   0  0  0  0  0  0
   19.9786   16.7599  105.2262 F   0  0  0  0  0  0
   21.5991   15.3198  105.3577 F   0  0  0  0  0  0
   17.1178   12.3621  114.4176 N   0  0  0  0  0  0
   16.3617   11.5923  111.9945 H   0  0  0  0  0  0
   17.2084   12.5036  109.8711 H   0  0  0  0  0  0
   19.8211   15.1333  112.0447 H   0  0  0  0  0  0
   19.0082   14.1950  114.1589 H   0  0  0  0  0  0
   20.5597   12.8918  109.3231 H   0  0  0  0  0  0
   21.5565   13.8652  107.3070 H   0  0  0  0  0  0
   18.7242   17.1018  107.4774 H   0  0  0  0  0  0
   17.7391   16.1191  109.5042 H   0  0  0  0  0  0
   17.7101   12.4403  115.2348 H   0  0  0  0  0  0
   16.4596   11.5977  114.3673 H   0  0  0  0  0  0
  1  6  1  0  0  0
  1  2  2  0  0  0
  1 17  1  0  0  0
  2  3  1  0  0  0
  2 18  1  0  0  0
  3  4  2  0  0  0
  3 19  1  0  0  0
  4  5  1  0  0  0
  4  7  1  0  0  0
  5  6  2  0  0  0
  5 20  1  0  0  0
  6 21  1  0  0  0
  7 12  1  0  0  0
  7  8  2  0  0  0
  8  9  1  0  0  0
  8 22  1  0  0  0
  9 10  2  0  0  0
  9 23  1  0  0  0
 10 11  1  0  0  0
 10 13  1  0  0  0
 11 12  2  0  0  0
 11 24  1  0  0  0
 12 25  1  0  0  0
 13 14  1  0  0  0
 13 15  1  0  0  0
 13 16  1  0  0  0
 17 26  1  0  0  0
 17 27  1  0  0  0
M  END
> <s_m_entry_id>
229

> <s_m_entry_name>
dock_pv.228

> <s_m_Source_Path>
/home/csk/Desktop/cluster/DUD-E-result/kif11

> <s_m_Source_File>
dock_pv.maegz

> <i_m_Source_File_Index>
228

> <chembl_id>
CHEMBL242142

> <chembl_pref_name>
None

> <i_lp_mmshare_version>
53161

> <i_f3d_flags>
0

> <r_lp_tautomer_probability>
1

> <s_lp_Force_Field>
OPLS_2005

> <r_lp_Energy>
14.418435

> <b_lp_Chiralities_Consistent>
1

> <s_lp_Variant>
CHEMBL4581_lig179-1

> <s_i_glide_gridfile>
glide-grid_3cjo

> <i_i_glide_lignum>
275

> <i_i_glide_rotatable_bonds>
2

> <r_i_docking_score>
-7.91502406082906

> <r_i_glide_ligand_efficiency>
-0.465589650637003

> <r_i_glide_ligand_efficiency_sa>
-1.19716209635332

> <r_i_glide_ligand_efficiency_ln>
-2.06485351855046

> <r_i_glide_gscore>
-7.91502406082906

> <r_i_glide_lipo>
-3.54005416619071

> <r_i_glide_hbond>
-0.163252031615327

> <r_i_glide_metal>
0

> <r_i_glide_rewards>
-2.91478476405956

> <r_i_glide_evdw>
-29.3304119110107

> <r_i_glide_ecoul>
-0.91119658946991

> <r_i_glide_erotb>
0.306266985007564

> <r_i_glide_esite>
0

> <r_i_glide_emodel>
-42.2925541000878

> <r_i_glide_energy>
-30.2416085004807

> <r_i_glide_einternal>
3.69119477272034

> <i_i_glide_confnum>
2

> <i_i_glide_posenum>
222

> <r_i_glide_eff_state_penalty>
0

> <s_user_duplicate_titles>
CHEMBL4581_lig179

> <s_m_subgroup_title>
dock_pv

> <s_m_subgroupid>
dock_pv

> <b_m_subgroup_collapsed>
1

$$$$
CHEMBL4581_lig592
                    3D
 Schrodinger Suite 2021-1.
 48 50  0  0  1  0            999 V2000
   18.0233   16.1042  109.0081 C   0  0  0  0  0  0
   18.7087   14.8288  108.4055 C   0  0  2  0  0  0
   19.8266   15.2140  107.3775 C   0  0  0  0  0  0
   20.8991   14.3491  107.0875 C   0  0  0  0  0  0
   21.8819   14.6847  106.1583 C   0  0  0  0  0  0
   21.8197   15.9067  105.5024 C   0  0  0  0  0  0
   20.7701   16.7790  105.7597 C   0  0  0  0  0  0
   19.7905   16.4335  106.6881 C   0  0  0  0  0  0
   17.5178   13.8186  107.4062 S   0  0  0  0  0  0
   15.9840   13.5915  108.3773 C   0  0  0  0  0  0
   14.6582   13.9525  107.6835 C   0  0  0  0  0  0
   19.3472   13.9073  109.5258 C   0  0  0  0  0  0
   18.6467   13.6379  110.8655 C   0  0  0  0  0  0
   17.6574   12.6585  110.9724 C   0  0  0  0  0  0
   17.1182   12.3276  112.2115 C   0  0  0  0  0  0
   17.5912   12.9533  113.3609 C   0  0  0  0  0  0
   18.5959   13.9109  113.2723 C   0  0  0  0  0  0
   19.1180   14.2531  112.0314 C   0  0  0  0  0  0
   14.4643   13.1595  106.4828 N   0  0  0  0  0  0
   18.5663   16.7495  110.1293 C   0  0  0  0  0  0
   17.8854   17.7815  110.7714 C   0  0  0  0  0  0
   16.1566   17.6700  109.0972 C   0  0  0  0  0  0
   16.8450   16.6424  108.4604 C   0  0  0  0  0  0
   16.6558   18.2041  110.2778 C   0  0  0  0  0  0
   15.9181   19.1342  110.9583 O   0  0  0  0  0  0
   20.9951   13.3899  107.5682 H   0  0  0  0  0  0
   22.6868   13.9956  105.9480 H   0  0  0  0  0  0
   22.5797   16.1718  104.7822 H   0  0  0  0  0  0
   20.7181   17.7301  105.2517 H   0  0  0  0  0  0
   19.0117   17.1501  106.8813 H   0  0  0  0  0  0
   15.9268   12.5393  108.6463 H   0  0  0  0  0  0
   16.0567   14.1434  109.3131 H   0  0  0  0  0  0
   13.8272   13.7665  108.3653 H   0  0  0  0  0  0
   14.6188   15.0099  107.4242 H   0  0  0  0  0  0
   19.5646   12.9218  109.1106 H   0  0  0  0  0  0
   20.3263   14.3094  109.7737 H   0  0  0  0  0  0
   17.3545   12.0944  110.1067 H   0  0  0  0  0  0
   16.3589   11.5625  112.2860 H   0  0  0  0  0  0
   17.1911   12.6807  114.3272 H   0  0  0  0  0  0
   18.9995   14.3679  114.1589 H   0  0  0  0  0  0
   19.9297   14.9620  111.9969 H   0  0  0  0  0  0
   14.6590   12.1831  106.6808 H   0  0  0  0  0  0
   13.5058   13.2103  106.1687 H   0  0  0  0  0  0
   19.5167   16.4388  110.5284 H   0  0  0  0  0  0
   18.3025   18.2286  111.6633 H   0  0  0  0  0  0
   15.2229   18.0309  108.6917 H   0  0  0  0  0  0
   16.4285   16.2520  107.5460 H   0  0  0  0  0  0
   16.2681   19.3268  111.8333 H   0  0  0  0  0  0
  1 20  2  0  0  0
  1  2  1  0  0  0
  1 23  1  0  0  0
  2  9  1  0  0  0
  2  3  1  0  0  0
  2 12  1  0  0  0
  3  4  2  0  0  0
  3  8  1  0  0  0
  4  5  1  0  0  0
  4 26  1  0  0  0
  5  6  2  0  0  0
  5 27  1  0  0  0
  6  7  1  0  0  0
  6 28  1  0  0  0
  7  8  2  0  0  0
  7 29  1  0  0  0
  8 30  1  0  0  0
  9 10  1  0  0  0
 10 11  1  0  0  0
 10 31  1  0  0  0
 10 32  1  0  0  0
 11 19  1  0  0  0
 11 33  1  0  0  0
 11 34  1  0  0  0
 12 13  1  0  0  0
 12 35  1  0  0  0
 12 36  1  0  0  0
 13 14  2  0  0  0
 13 18  1  0  0  0
 14 15  1  0  0  0
 14 37  1  0  0  0
 15 16  2  0  0  0
 15 38  1  0  0  0
 16 17  1  0  0  0
 16 39  1  0  0  0
 17 18  2  0  0  0
 17 40  1  0  0  0
 18 41  1  0  0  0
 19 42  1  0  0  0
 19 43  1  0  0  0
 20 21  1  0  0  0
 20 44  1  0  0  0
 21 24  2  0  0  0
 21 45  1  0  0  0
 22 24  1  0  0  0
 22 23  2  0  0  0
 22 46  1  0  0  0
 23 47  1  0  0  0
 24 25  1  0  0  0
 25 48  1  0  0  0
M  END
> <s_m_entry_id>
230

> <s_m_entry_name>
dock_pv.229

> <s_m_Source_Path>
/home/csk/Desktop/cluster/DUD-E-result/kif11

> <s_m_Source_File>
dock_pv.maegz

> <i_m_Source_File_Index>
229

> <chembl_id>
CHEMBL2043410

> <chembl_pref_name>
None

> <i_lp_mmshare_version>
53161

> <i_f3d_flags>
0

> <r_lp_tautomer_probability>
0.999999999997365

> <s_lp_Force_Field>
OPLS_2005

> <r_lp_Energy>
25.98471

> <b_lp_Chiralities_Consistent>
1

> <s_lp_Variant>
CHEMBL4581_lig592-2

> <s_i_glide_gridfile>
glide-grid_3cjo

> <i_i_glide_lignum>
909

> <i_i_glide_rotatable_bonds>
8

> <r_i_docking_score>
-7.91454469941513

> <r_i_glide_ligand_efficiency>
-0.316581787976605

> <r_i_glide_ligand_efficiency_sa>
-0.925690762645511

> <r_i_glide_ligand_efficiency_ln>
-1.8759842735268

> <r_i_glide_gscore>
-7.91454469941513

> <r_i_glide_lipo>
-4.98596868638728

> <r_i_glide_hbond>
-0.333552549839742

> <r_i_glide_metal>
0

> <r_i_glide_rewards>
-1.08124136070869

> <r_i_glide_evdw>
-40.712085723877

> <r_i_glide_ecoul>
-2.75955390930176

> <r_i_glide_erotb>
0.935755270109689

> <r_i_glide_esite>
0

> <r_i_glide_emodel>
-58.6383106939

> <r_i_glide_energy>
-43.4716396331787

> <r_i_glide_einternal>
7.8846230506897

> <i_i_glide_confnum>
124

> <i_i_glide_posenum>
395

> <r_i_glide_eff_state_penalty>
0

> <s_user_duplicate_titles>
CHEMBL4581_lig592

> <s_m_subgroup_title>
dock_pv

> <s_m_subgroupid>
dock_pv

> <b_m_subgroup_collapsed>
1

$$$$
CHEMBL4581_lig817
                    3D
 Schrodinger Suite 2021-1.
 44 46  0  0  1  0            999 V2000
   15.5589   13.6108  105.8585 C   0  0  0  0  0  0
   16.3177   12.4778  105.3589 N   0  0  0  0  0  0
   16.3664   14.3874  106.9081 C   0  0  0  0  0  0
   16.6972   13.4938  108.4659 S   0  0  0  0  0  0
   17.8465   14.5428  109.4860 C   0  0  0  0  0  0
   17.2273   15.9480  109.7437 C   0  0  0  0  0  0
   18.0504   13.9310  110.9116 C   0  0  0  0  0  0
   19.1663   14.5472  108.6542 C   0  0  0  0  0  0
   18.0474   17.0791  109.8792 C   0  0  0  0  0  0
   17.5165   18.3283  110.1835 C   0  0  0  0  0  0
   16.1429   18.4811  110.3440 C   0  0  0  0  0  0
   15.3038   17.3781  110.2102 C   0  0  0  0  0  0
   15.8424   16.1217  109.9197 C   0  0  0  0  0  0
   19.3608   15.4663  107.6069 C   0  0  0  0  0  0
   20.4509   15.3625  106.7494 C   0  0  0  0  0  0
   21.3926   14.3620  106.9590 C   0  0  0  0  0  0
   21.2833   13.5164  108.0574 C   0  0  0  0  0  0
   20.1702   13.5938  108.8913 C   0  0  0  0  0  0
   17.3345   12.8148  111.3850 C   0  0  0  0  0  0
   17.5023   12.3622  112.6909 C   0  0  0  0  0  0
   18.3870   13.0089  113.5448 C   0  0  0  0  0  0
   19.1181   14.1011  113.0952 C   0  0  0  0  0  0
   18.9587   14.5493  111.7878 C   0  0  0  0  0  0
   13.6029   17.5635  110.4221 Cl  0  0  0  0  0  0
   14.6141   13.2614  106.2773 H   0  0  0  0  0  0
   15.3163   14.2626  105.0180 H   0  0  0  0  0  0
   17.2440   12.7603  105.0314 H   0  0  0  0  0  0
   16.4662   11.8214  106.1182 H   0  0  0  0  0  0
   15.8352   15.3071  107.1562 H   0  0  0  0  0  0
   17.2936   14.6887  106.4331 H   0  0  0  0  0  0
   19.1178   16.9944  109.7857 H   0  0  0  0  0  0
   18.1841   19.1624  110.3123 H   0  0  0  0  0  0
   15.7330   19.4520  110.5852 H   0  0  0  0  0  0
   15.1717   15.2786  109.8522 H   0  0  0  0  0  0
   18.6255   16.2307  107.4010 H   0  0  0  0  0  0
   20.5567   16.0455  105.9201 H   0  0  0  0  0  0
   22.2342   14.2687  106.2885 H   0  0  0  0  0  0
   22.0352   12.7626  108.2255 H   0  0  0  0  0  0
   20.0722   12.8698  109.6873 H   0  0  0  0  0  0
   16.6197   12.2868  110.7746 H   0  0  0  0  0  0
   16.9206   11.5262  113.0458 H   0  0  0  0  0  0
   18.5075   12.6597  114.5613 H   0  0  0  0  0  0
   19.8119   14.5981  113.7570 H   0  0  0  0  0  0
   19.5383   15.4003  111.4617 H   0  0  0  0  0  0
  1  2  1  0  0  0
  1  3  1  0  0  0
  1 25  1  0  0  0
  1 26  1  0  0  0
  2 27  1  0  0  0
  2 28  1  0  0  0
  3  4  1  0  0  0
  3 29  1  0  0  0
  3 30  1  0  0  0
  4  5  1  0  0  0
  5  7  1  0  0  0
  5  8  1  0  0  0
  5  6  1  0  0  0
  6 13  1  0  0  0
  6  9  2  0  0  0
  7 19  2  0  0  0
  7 23  1  0  0  0
  8 14  2  0  0  0
  8 18  1  0  0  0
  9 10  1  0  0  0
  9 31  1  0  0  0
 10 11  2  0  0  0
 10 32  1  0  0  0
 11 12  1  0  0  0
 11 33  1  0  0  0
 12 13  2  0  0  0
 12 24  1  0  0  0
 13 34  1  0  0  0
 14 15  1  0  0  0
 14 35  1  0  0  0
 15 16  2  0  0  0
 15 36  1  0  0  0
 16 17  1  0  0  0
 16 37  1  0  0  0
 17 18  2  0  0  0
 17 38  1  0  0  0
 18 39  1  0  0  0
 19 20  1  0  0  0
 19 40  1  0  0  0
 20 21  2  0  0  0
 20 41  1  0  0  0
 21 22  1  0  0  0
 21 42  1  0  0  0
 22 23  2  0  0  0
 22 43  1  0  0  0
 23 44  1  0  0  0
M  END
> <s_m_entry_id>
231

> <s_m_entry_name>
dock_pv.230

> <s_m_Source_Path>
/home/csk/Desktop/cluster/DUD-E-result/kif11

> <s_m_Source_File>
dock_pv.maegz

> <i_m_Source_File_Index>
230

> <chembl_id>
CHEMBL2022979

> <chembl_pref_name>
None

> <i_lp_mmshare_version>
53161

> <i_f3d_flags>
0

> <r_lp_tautomer_probability>
1

> <s_lp_Force_Field>
OPLS_2005

> <r_lp_Energy>
23.961444

> <b_lp_Chiralities_Consistent>
1

> <s_lp_Variant>
CHEMBL4581_lig817-1

> <s_i_glide_gridfile>
glide-grid_3cjo

> <i_i_glide_lignum>
1204

> <i_i_glide_rotatable_bonds>
6

> <r_i_docking_score>
-7.91144991106042

> <r_i_glide_ligand_efficiency>
-0.329643746294184

> <r_i_glide_ligand_efficiency_sa>
-0.950857101887332

> <r_i_glide_ligand_efficiency_ln>
-1.89357299649765

> <r_i_glide_gscore>
-7.91144991106042

> <r_i_glide_lipo>
-4.66887632991706

> <r_i_glide_hbond>
-0.342849887076156

> <r_i_glide_metal>
0

> <r_i_glide_rewards>
-1.11274234848485

> <r_i_glide_evdw>
-40.7443733215332

> <r_i_glide_ecoul>
-3.41550660133362

> <r_i_glide_erotb>
0.762563310694337

> <r_i_glide_esite>
0

> <r_i_glide_emodel>
-65.2153018060636

> <r_i_glide_energy>
-44.1598799228668

> <r_i_glide_einternal>
1.72386658191681

> <i_i_glide_confnum>
29

> <i_i_glide_posenum>
1

> <r_i_glide_eff_state_penalty>
0

> <s_user_duplicate_titles>
CHEMBL4581_lig817

> <s_m_subgroup_title>
dock_pv

> <s_m_subgroupid>
dock_pv

> <b_m_subgroup_collapsed>
1

$$$$
CHEMBL4581_lig605
                    3D
 Schrodinger Suite 2021-1.
 50 52  0  0  1  0            999 V2000
   18.4339   15.1099  107.7985 C   0  0  0  0  0  0
   17.0549   14.9941  108.5144 C   0  0  1  0  0  0
   16.7384   16.2331  109.4038 C   0  0  0  0  0  0
   17.6804   17.2548  109.6260 C   0  0  0  0  0  0
   17.3620   18.3622  110.3995 C   0  0  0  0  0  0
   16.0918   18.4754  110.9510 C   0  0  0  0  0  0
   15.1469   17.4736  110.7644 C   0  0  0  0  0  0
   15.4733   16.3570  110.0019 C   0  0  0  0  0  0
   15.7104   14.9423  107.2351 S   0  0  0  0  0  0
   16.3260   14.0699  105.7447 C   0  0  0  0  0  0
   16.6112   15.0025  104.5199 C   0  0  2  0  0  0
   16.9021   13.6664  109.3492 C   0  0  0  0  0  0
   17.5589   13.5326  110.7376 C   0  0  0  0  0  0
   18.5485   14.4028  111.2176 C   0  0  0  0  0  0
   19.0418   14.2684  112.5132 C   0  0  0  0  0  0
   18.5579   13.2531  113.3344 C   0  0  0  0  0  0
   17.6008   12.3615  112.8598 C   0  0  0  0  0  0
   17.1180   12.4923  111.5613 C   0  0  0  0  0  0
   16.0365   16.3625  104.6002 N   0  0  0  0  0  0
   16.1226   14.3984  103.1815 C   0  0  0  0  0  0
   17.1180   13.7092  102.5589 O   0  0  0  0  0  0
   14.9890   14.5692  102.7315 O   0  0  0  0  0  0
   19.5022   14.2455  108.0648 C   0  0  0  0  0  0
   20.8907   15.3620  106.4273 C   0  0  0  0  0  0
   19.8521   16.2487  106.1625 C   0  0  0  0  0  0
   18.6386   16.1052  106.8340 C   0  0  0  0  0  0
   20.7047   14.3544  107.3697 C   0  0  0  0  0  0
   21.9180   13.1620  107.6295 Cl  0  0  0  0  0  0
   18.6771   17.2136  109.2144 H   0  0  0  0  0  0
   18.0959   19.1389  110.5611 H   0  0  0  0  0  0
   15.8439   19.3448  111.5425 H   0  0  0  0  0  0
   14.1648   17.5658  111.2049 H   0  0  0  0  0  0
   14.7248   15.5928  109.8545 H   0  0  0  0  0  0
   17.2154   13.4904  105.9941 H   0  0  0  0  0  0
   15.5631   13.3272  105.5046 H   0  0  0  0  0  0
   17.6937   15.1175  104.4514 H   0  0  0  0  0  0
   15.8370   13.5096  109.5306 H   0  0  0  0  0  0
   17.1970   12.8074  108.7434 H   0  0  0  0  0  0
   18.9448   15.1945  110.6045 H   0  0  0  0  0  0
   19.7959   14.9501  112.8787 H   0  0  0  0  0  0
   18.9342   13.1488  114.3422 H   0  0  0  0  0  0
   17.2275   11.5711  113.4936 H   0  0  0  0  0  0
   16.3670   11.7994  111.2080 H   0  0  0  0  0  0
   15.2702   16.4336  103.9416 H   0  0  0  0  0  0
   15.6089   16.4724  105.5113 H   0  0  0  0  0  0
   17.8708   13.5619  103.1615 H   0  0  0  0  0  0
   19.4093   13.4387  108.7749 H   0  0  0  0  0  0
   21.8232   15.4388  105.8875 H   0  0  0  0  0  0
   19.9750   17.0304  105.4271 H   0  0  0  0  0  0
   17.8209   16.7618  106.5975 H   0  0  0  0  0  0
  1 23  2  0  0  0
  1  2  1  0  0  0
  1 26  1  0  0  0
  2  9  1  0  0  0
  2  3  1  0  0  0
  2 12  1  0  0  0
  3  4  2  0  0  0
  3  8  1  0  0  0
  4  5  1  0  0  0
  4 29  1  0  0  0
  5  6  2  0  0  0
  5 30  1  0  0  0
  6  7  1  0  0  0
  6 31  1  0  0  0
  7  8  2  0  0  0
  7 32  1  0  0  0
  8 33  1  0  0  0
  9 10  1  0  0  0
 10 11  1  0  0  0
 10 34  1  0  0  0
 10 35  1  0  0  0
 11 19  1  0  0  0
 11 20  1  0  0  0
 11 36  1  0  0  0
 12 13  1  0  0  0
 12 37  1  0  0  0
 12 38  1  0  0  0
 13 14  2  0  0  0
 13 18  1  0  0  0
 14 15  1  0  0  0
 14 39  1  0  0  0
 15 16  2  0  0  0
 15 40  1  0  0  0
 16 17  1  0  0  0
 16 41  1  0  0  0
 17 18  2  0  0  0
 17 42  1  0  0  0
 18 43  1  0  0  0
 19 44  1  0  0  0
 19 45  1  0  0  0
 20 21  1  0  0  0
 20 22  2  0  0  0
 21 46  1  0  0  0
 23 27  1  0  0  0
 23 47  1  0  0  0
 24 27  2  0  0  0
 24 25  1  0  0  0
 24 48  1  0  0  0
 25 26  2  0  0  0
 25 49  1  0  0  0
 26 50  1  0  0  0
 27 28  1  0  0  0
M  END
> <s_m_entry_id>
232

> <s_m_entry_name>
dock_pv.231

> <s_m_Source_Path>
/home/csk/Desktop/cluster/DUD-E-result/kif11

> <s_m_Source_File>
dock_pv.maegz

> <i_m_Source_File_Index>
231

> <chembl_id>
CHEMBL2043397

> <chembl_pref_name>
None

> <i_lp_mmshare_version>
53161

> <i_f3d_flags>
0

> <r_lp_tautomer_probability>
1

> <s_lp_Force_Field>
OPLS_2005

> <r_lp_Energy>
19.155107

> <b_lp_Chiralities_Consistent>
1

> <s_lp_Variant>
CHEMBL4581_lig605-1

> <s_i_glide_gridfile>
glide-grid_3cjo

> <i_i_glide_lignum>
934

> <i_i_glide_rotatable_bonds>
9

> <r_i_docking_score>
-7.88949086848938

> <r_i_glide_ligand_efficiency>
-0.281767531017478

> <r_i_glide_ligand_efficiency_sa>
-0.855612176369949

> <r_i_glide_ligand_efficiency_ln>
-1.82112613796488

> <r_i_glide_gscore>
-7.88949086848938

> <r_i_glide_lipo>
-4.65971368640375

> <r_i_glide_hbond>
0

> <r_i_glide_metal>
0

> <r_i_glide_rewards>
-0.657185131202438

> <r_i_glide_evdw>
-41.0075378417969

> <r_i_glide_ecoul>
-9.52407360076904

> <r_i_glide_erotb>
0.929380525067386

> <r_i_glide_esite>
-0.0229846437453825

> <r_i_glide_emodel>
-63.9762949447674

> <r_i_glide_energy>
-50.5316114425659

> <r_i_glide_einternal>
20.3098564147949

> <i_i_glide_confnum>
156

> <i_i_glide_posenum>
315

> <r_i_glide_eff_state_penalty>
0

> <s_user_duplicate_titles>
CHEMBL4581_lig605

> <s_m_subgroup_title>
dock_pv

> <s_m_subgroupid>
dock_pv

> <b_m_subgroup_collapsed>
1

$$$$
CHEMBL4581_lig819
                    3D
 Schrodinger Suite 2021-1.
 47 49  0  0  1  0            999 V2000
   15.9412   13.0358  106.0015 C   0  0  0  0  0  0
   16.3168   13.3698  104.6411 N   0  0  0  0  0  0
   16.7989   13.8635  106.9625 C   0  0  0  0  0  0
   16.5767   13.4880  108.7300 S   0  0  0  0  0  0
   17.7629   14.5605  109.6978 C   0  0  0  0  0  0
   17.1517   15.9774  109.9468 C   0  0  0  0  0  0
   18.0094   13.9496  111.1185 C   0  0  0  0  0  0
   19.0549   14.5974  108.8280 C   0  0  0  0  0  0
   17.9908   17.0883  110.1482 C   0  0  0  0  0  0
   17.4738   18.3554  110.3978 C   0  0  0  0  0  0
   16.0980   18.5490  110.4403 C   0  0  0  0  0  0
   15.2365   17.4698  110.2380 C   0  0  0  0  0  0
   15.7635   16.1963  110.0017 C   0  0  0  0  0  0
   19.2025   15.5534  107.8037 C   0  0  0  0  0  0
   20.2427   15.4657  106.8870 C   0  0  0  0  0  0
   21.1726   14.4439  107.0070 C   0  0  0  0  0  0
   21.1181   13.5620  108.0826 C   0  0  0  0  0  0
   20.0543   13.6235  108.9785 C   0  0  0  0  0  0
   17.3192   12.8209  111.6076 C   0  0  0  0  0  0
   17.5175   12.3656  112.9081 C   0  0  0  0  0  0
   18.4114   13.0193  113.7453 C   0  0  0  0  0  0
   19.1235   14.1170  113.2807 C   0  0  0  0  0  0
   18.9342   14.5676  111.9773 C   0  0  0  0  0  0
   13.7353   17.6808  110.2913 C   0  0  0  0  0  0
   16.1160   11.9702  106.1589 H   0  0  0  0  0  0
   14.8792   13.2271  106.1608 H   0  0  0  0  0  0
   17.3126   13.1620  104.5109 H   0  0  0  0  0  0
   15.8272   12.7614  104.0029 H   0  0  0  0  0  0
   16.6216   14.9293  106.8064 H   0  0  0  0  0  0
   17.8380   13.6545  106.7086 H   0  0  0  0  0  0
   19.0639   16.9803  110.1257 H   0  0  0  0  0  0
   18.1529   19.1752  110.5600 H   0  0  0  0  0  0
   15.7045   19.5355  110.6362 H   0  0  0  0  0  0
   15.0756   15.3760  109.8702 H   0  0  0  0  0  0
   18.4595   16.3227  107.6515 H   0  0  0  0  0  0
   20.3078   16.1704  106.0713 H   0  0  0  0  0  0
   21.9708   14.3569  106.2820 H   0  0  0  0  0  0
   21.8661   12.7895  108.1782 H   0  0  0  0  0  0
   19.9797   12.8697  109.7473 H   0  0  0  0  0  0
   16.5952   12.2819  111.0163 H   0  0  0  0  0  0
   16.9544   11.5210  113.2713 H   0  0  0  0  0  0
   18.5573   12.6695  114.7571 H   0  0  0  0  0  0
   19.8310   14.6160  113.9258 H   0  0  0  0  0  0
   19.5090   15.4176  111.6449 H   0  0  0  0  0  0
   13.4758   18.4224  111.0498 H   0  0  0  0  0  0
   13.3644   18.0297  109.3260 H   0  0  0  0  0  0
   13.2109   16.7621  110.5578 H   0  0  0  0  0  0
  1  2  1  0  0  0
  1  3  1  0  0  0
  1 25  1  0  0  0
  1 26  1  0  0  0
  2 27  1  0  0  0
  2 28  1  0  0  0
  3  4  1  0  0  0
  3 29  1  0  0  0
  3 30  1  0  0  0
  4  5  1  0  0  0
  5  7  1  0  0  0
  5  8  1  0  0  0
  5  6  1  0  0  0
  6 13  1  0  0  0
  6  9  2  0  0  0
  7 19  2  0  0  0
  7 23  1  0  0  0
  8 14  2  0  0  0
  8 18  1  0  0  0
  9 10  1  0  0  0
  9 31  1  0  0  0
 10 11  2  0  0  0
 10 32  1  0  0  0
 11 12  1  0  0  0
 11 33  1  0  0  0
 12 13  2  0  0  0
 12 24  1  0  0  0
 13 34  1  0  0  0
 14 15  1  0  0  0
 14 35  1  0  0  0
 15 16  2  0  0  0
 15 36  1  0  0  0
 16 17  1  0  0  0
 16 37  1  0  0  0
 17 18  2  0  0  0
 17 38  1  0  0  0
 18 39  1  0  0  0
 19 20  1  0  0  0
 19 40  1  0  0  0
 20 21  2  0  0  0
 20 41  1  0  0  0
 21 22  1  0  0  0
 21 42  1  0  0  0
 22 23  2  0  0  0
 22 43  1  0  0  0
 23 44  1  0  0  0
 24 45  1  0  0  0
 24 46  1  0  0  0
 24 47  1  0  0  0
M  END
> <s_m_entry_id>
233

> <s_m_entry_name>
dock_pv.232

> <s_m_Source_Path>
/home/csk/Desktop/cluster/DUD-E-result/kif11

> <s_m_Source_File>
dock_pv.maegz

> <i_m_Source_File_Index>
232

> <chembl_id>
CHEMBL2022981

> <chembl_pref_name>
None

> <i_lp_mmshare_version>
53161

> <i_f3d_flags>
0

> <r_lp_tautomer_probability>
1

> <s_lp_Force_Field>
OPLS_2005

> <r_lp_Energy>
25.095163

> <b_lp_Chiralities_Consistent>
1

> <s_lp_Variant>
CHEMBL4581_lig819-1

> <s_i_glide_gridfile>
glide-grid_3cjo

> <i_i_glide_lignum>
1206

> <i_i_glide_rotatable_bonds>
6

> <r_i_docking_score>
-7.88827418365999

> <r_i_glide_ligand_efficiency>
-0.328678090985833

> <r_i_glide_ligand_efficiency_sa>
-0.948071669983213

> <r_i_glide_ligand_efficiency_ln>
-1.88802598146589

> <r_i_glide_gscore>
-7.88827418365999

> <r_i_glide_lipo>
-4.76609520392601

> <r_i_glide_hbond>
-0.16

> <r_i_glide_metal>
0

> <r_i_glide_rewards>
-1.25195721212121

> <r_i_glide_evdw>
-40.3701324462891

> <r_i_glide_ecoul>
-3.5938937664032

> <r_i_glide_erotb>
0.847368919662158

> <r_i_glide_esite>
0

> <r_i_glide_emodel>
-63.6544687727859

> <r_i_glide_energy>
-43.9640262126923

> <r_i_glide_einternal>
3.80974149703979

> <i_i_glide_confnum>
141

> <i_i_glide_posenum>
126

> <r_i_glide_eff_state_penalty>
0

> <s_user_duplicate_titles>
CHEMBL4581_lig819

> <s_m_subgroup_title>
dock_pv

> <s_m_subgroupid>
dock_pv

> <b_m_subgroup_collapsed>
1

$$$$
CHEMBL4581_lig74
                    3D
 Schrodinger Suite 2021-1.
 47 50  0  0  1  0            999 V2000
   21.5180   13.4649  107.8249 C   0  0  0  0  0  0
   20.3903   13.4946  108.6479 C   0  0  0  0  0  0
   19.3090   14.3545  108.3926 C   0  0  0  0  0  0
   19.4030   15.2490  107.3027 C   0  0  0  0  0  0
   18.2699   16.2091  106.9767 C   0  0  0  0  0  0
   16.9977   15.7341  107.5444 N   0  0  0  0  0  0
   17.0650   15.4843  108.9917 C   0  0  0  0  0  0
   17.9981   14.2644  109.2023 C   0  0  2  0  0  0
   18.1785   13.9891  110.6979 C   0  0  0  0  0  0
   17.3834   13.0300  111.3398 C   0  0  0  0  0  0
   17.5284   12.7991  112.7085 C   0  0  0  0  0  0
   18.4852   13.4989  113.4378 C   0  0  0  0  0  0
   19.2784   14.4563  112.8095 C   0  0  0  0  0  0
   19.1180   14.7083  111.4475 C   0  0  0  0  0  0
   15.8017   15.8932  106.9123 C   0  0  0  0  0  0
   14.7770   16.1685  107.5438 O   0  0  0  0  0  0
   15.7700   15.7386  105.5595 N   0  0  0  0  0  0
   16.5801   14.7633  104.8187 C   0  0  0  0  0  0
   14.7374   16.3754  104.7395 C   0  0  0  0  0  0
   16.7180   11.9102  113.3568 O   0  0  0  0  0  0
   20.5718   15.2460  106.5398 C   0  0  0  0  0  0
   21.6039   14.3620  106.7685 C   0  0  0  0  0  0
   22.6644   14.5953  105.7406 C   0  0  0  0  0  0
   22.1719   15.8917  105.0852 C   0  0  0  0  0  0
   20.8103   16.0813  105.4764 O   0  0  0  0  0  0
   22.3138   12.7631  108.0251 H   0  0  0  0  0  0
   20.3234   12.7855  109.4604 H   0  0  0  0  0  0
   18.2245   16.3801  105.9015 H   0  0  0  0  0  0
   18.5175   17.1622  107.4371 H   0  0  0  0  0  0
   16.0831   15.2911  109.4279 H   0  0  0  0  0  0
   17.4674   16.3675  109.4905 H   0  0  0  0  0  0
   17.4874   13.3878  108.7964 H   0  0  0  0  0  0
   16.6432   12.4770  110.7794 H   0  0  0  0  0  0
   18.6022   13.3031  114.4940 H   0  0  0  0  0  0
   20.0166   15.0037  113.3767 H   0  0  0  0  0  0
   19.7315   15.4604  110.9719 H   0  0  0  0  0  0
   17.2918   14.2282  105.4491 H   0  0  0  0  0  0
   15.9371   14.0135  104.3565 H   0  0  0  0  0  0
   17.1414   15.2583  104.0263 H   0  0  0  0  0  0
   14.1777   17.1348  105.2882 H   0  0  0  0  0  0
   15.1889   16.8623  103.8746 H   0  0  0  0  0  0
   14.0277   15.6304  104.3782 H   0  0  0  0  0  0
   16.0492   11.4977  112.7980 H   0  0  0  0  0  0
   23.6622   14.7324  106.1590 H   0  0  0  0  0  0
   22.7176   13.7896  105.0078 H   0  0  0  0  0  0
   22.3180   15.9224  104.0060 H   0  0  0  0  0  0
   22.7399   16.7267  105.5000 H   0  0  0  0  0  0
  1  2  1  0  0  0
  1 22  2  0  0  0
  1 26  1  0  0  0
  2  3  2  0  0  0
  2 27  1  0  0  0
  3  4  1  0  0  0
  3  8  1  0  0  0
  4  5  1  0  0  0
  4 21  2  0  0  0
  5  6  1  0  0  0
  5 28  1  0  0  0
  5 29  1  0  0  0
  6 15  1  0  0  0
  6  7  1  0  0  0
  7  8  1  0  0  0
  7 30  1  0  0  0
  7 31  1  0  0  0
  8  9  1  0  0  0
  8 32  1  0  0  0
  9 14  1  0  0  0
  9 10  2  0  0  0
 10 11  1  0  0  0
 10 33  1  0  0  0
 11 12  2  0  0  0
 11 20  1  0  0  0
 12 13  1  0  0  0
 12 34  1  0  0  0
 13 14  2  0  0  0
 13 35  1  0  0  0
 14 36  1  0  0  0
 15 16  2  0  0  0
 15 17  1  0  0  0
 17 18  1  0  0  0
 17 19  1  0  0  0
 18 37  1  0  0  0
 18 38  1  0  0  0
 18 39  1  0  0  0
 19 40  1  0  0  0
 19 41  1  0  0  0
 19 42  1  0  0  0
 20 43  1  0  0  0
 21 22  1  0  0  0
 21 25  1  0  0  0
 22 23  1  0  0  0
 23 24  1  0  0  0
 23 44  1  0  0  0
 23 45  1  0  0  0
 24 25  1  0  0  0
 24 46  1  0  0  0
 24 47  1  0  0  0
M  END
> <s_m_entry_id>
234

> <s_m_entry_name>
dock_pv.233

> <s_m_Source_Path>
/home/csk/Desktop/cluster/DUD-E-result/kif11

> <s_m_Source_File>
dock_pv.maegz

> <i_m_Source_File_Index>
233

> <chembl_id>
CHEMBL381794

> <chembl_pref_name>
None

> <i_lp_mmshare_version>
53161

> <i_f3d_flags>
0

> <r_lp_tautomer_probability>
0.999999999997365

> <s_lp_Force_Field>
OPLS_2005

> <r_lp_Energy>
59.097121

> <b_lp_Chiralities_Consistent>
1

> <s_lp_Variant>
CHEMBL4581_lig74-1

> <s_i_glide_gridfile>
glide-grid_3cjo

> <i_i_glide_lignum>
113

> <i_i_glide_rotatable_bonds>
4

> <r_i_docking_score>
-7.8820611872006

> <r_i_glide_ligand_efficiency>
-0.315282447488024

> <r_i_glide_ligand_efficiency_sa>
-0.921891468012997

> <r_i_glide_ligand_efficiency_ln>
-1.86828470767964

> <r_i_glide_gscore>
-7.8820611872006

> <r_i_glide_lipo>
-4.35060410036734

> <r_i_glide_hbond>
-0.32

> <r_i_glide_metal>
0

> <r_i_glide_rewards>
-1.32593071730054

> <r_i_glide_evdw>
-35.4664268493652

> <r_i_glide_ecoul>
-2.94996237754822

> <r_i_glide_erotb>
0.330289329567785

> <r_i_glide_esite>
0

> <r_i_glide_emodel>
-54.822969241482

> <r_i_glide_energy>
-38.4163892269135

> <r_i_glide_einternal>
1.00696575641632

> <i_i_glide_confnum>
10

> <i_i_glide_posenum>
113

> <r_i_glide_eff_state_penalty>
0

> <s_user_duplicate_titles>
CHEMBL4581_lig74,344795

> <s_m_subgroup_title>
dock_pv

> <s_m_subgroupid>
dock_pv

> <b_m_subgroup_collapsed>
1

$$$$
CHEMBL4581_lig327
                    3D
 Schrodinger Suite 2021-1.
 42 45  0  0  1  0            999 V2000
   21.5173   15.2523  106.1798 C   0  0  0  0  0  0
   21.9161   14.0106  106.6823 C   0  0  0  0  0  0
   21.3071   13.5011  107.8136 C   0  0  0  0  0  0
   20.4304   15.9175  106.7636 C   0  0  0  0  0  0
   19.7768   15.3892  107.8822 C   0  0  0  0  0  0
   20.2498   14.1758  108.4123 C   0  0  0  0  0  0
   19.6470   13.5626  109.5177 N   0  0  0  0  0  0
   18.3736   14.0538  110.0352 C   0  0  2  0  0  0
   18.5653   16.0862  108.4883 C   0  0  2  0  0  0
   18.3152   15.6103  109.9445 C   0  0  1  0  0  0
   16.9860   16.2232  110.4528 C   0  0  0  0  0  0
   15.8331   15.9779  109.4638 C   0  0  0  0  0  0
   16.2343   16.4095  108.0407 C   0  0  0  0  0  0
   17.4470   15.7644  107.6585 O   0  0  0  0  0  0
   18.1579   13.5076  111.4407 C   0  0  0  0  0  0
   18.9613   13.9627  112.4909 C   0  0  0  0  0  0
   18.8211   13.4179  113.7589 C   0  0  0  0  0  0
   17.8634   12.4375  113.9850 C   0  0  0  0  0  0
   17.0714   11.9653  112.9437 C   0  0  0  0  0  0
   17.2126   12.5033  111.6676 C   0  0  0  0  0  0
   22.2751   15.8295  105.0272 C   0  0  0  0  0  0
   21.9343   17.0967  104.6609 O   0  0  0  0  0  0
   23.1181   15.1620  104.4455 O   0  0  0  0  0  0
   19.1211   16.0318  110.5477 H   0  0  0  0  0  0
   18.7320   17.1657  108.4836 H   0  0  0  0  0  0
   22.7260   13.4500  106.2349 H   0  0  0  0  0  0
   21.6426   12.5483  108.1904 H   0  0  0  0  0  0
   20.0860   16.8623  106.3646 H   0  0  0  0  0  0
   19.8139   12.5845  109.7070 H   0  0  0  0  0  0
   17.5892   13.6341  109.4021 H   0  0  0  0  0  0
   17.1163   17.2979  110.5915 H   0  0  0  0  0  0
   16.7235   15.8294  111.4344 H   0  0  0  0  0  0
   14.9409   16.5176  109.7828 H   0  0  0  0  0  0
   15.5664   14.9202  109.4606 H   0  0  0  0  0  0
   16.3470   17.4936  107.9767 H   0  0  0  0  0  0
   15.4537   16.1359  107.3309 H   0  0  0  0  0  0
   19.7202   14.7117  112.3190 H   0  0  0  0  0  0
   19.4698   13.7384  114.5590 H   0  0  0  0  0  0
   17.7515   12.0223  114.9756 H   0  0  0  0  0  0
   16.3356   11.1943  113.1283 H   0  0  0  0  0  0
   16.6001   12.1275  110.8598 H   0  0  0  0  0  0
   22.4490   17.3443  103.8909 H   0  0  0  0  0  0
  1  2  2  0  0  0
  1 21  1  0  0  0
  1  4  1  0  0  0
  2  3  1  0  0  0
  2 26  1  0  0  0
  3  6  2  0  0  0
  3 27  1  0  0  0
  4  5  2  0  0  0
  4 28  1  0  0  0
  5  9  1  0  0  0
  5  6  1  0  0  0
  6  7  1  0  0  0
  7  8  1  0  0  0
  7 29  1  0  0  0
  8 10  1  0  0  0
  8 15  1  0  0  0
  8 30  1  0  0  0
  9 14  1  0  0  0
  9 10  1  0  0  0
  9 25  1  0  0  0
 10 11  1  0  0  0
 10 24  1  0  0  0
 11 12  1  0  0  0
 11 31  1  0  0  0
 11 32  1  0  0  0
 12 13  1  0  0  0
 12 33  1  0  0  0
 12 34  1  0  0  0
 13 14  1  0  0  0
 13 35  1  0  0  0
 13 36  1  0  0  0
 15 16  2  0  0  0
 15 20  1  0  0  0
 16 17  1  0  0  0
 16 37  1  0  0  0
 17 18  2  0  0  0
 17 38  1  0  0  0
 18 19  1  0  0  0
 18 39  1  0  0  0
 19 20  2  0  0  0
 19 40  1  0  0  0
 20 41  1  0  0  0
 21 22  1  0  0  0
 21 23  2  0  0  0
 22 42  1  0  0  0
M  END
> <s_m_entry_id>
235

> <s_m_entry_name>
dock_pv.234

> <s_m_Source_Path>
/home/csk/Desktop/cluster/DUD-E-result/kif11

> <s_m_Source_File>
dock_pv.maegz

> <i_m_Source_File_Index>
234

> <chembl_id>
CHEMBL1083830

> <chembl_pref_name>
None

> <i_lp_mmshare_version>
53161

> <i_f3d_flags>
0

> <r_lp_tautomer_probability>
1

> <s_lp_Force_Field>
OPLS_2005

> <r_lp_Energy>
27.51692

> <b_lp_Chiralities_Consistent>
1

> <s_lp_Variant>
CHEMBL4581_lig327-1

> <s_i_glide_gridfile>
glide-grid_3cjo

> <i_i_glide_lignum>
480

> <i_i_glide_rotatable_bonds>
3

> <r_i_docking_score>
-7.8747466131857

> <r_i_glide_ligand_efficiency>
-0.342380287529813

> <r_i_glide_ligand_efficiency_sa>
-0.973683993240461

> <r_i_glide_ligand_efficiency_ln>
-1.9041851353228

> <r_i_glide_gscore>
-7.8747466131857

> <r_i_glide_lipo>
-4.37482457961009

> <r_i_glide_hbond>
-0.00688118829513239

> <r_i_glide_metal>
0

> <r_i_glide_rewards>
-1.84149125757576

> <r_i_glide_evdw>
-35.7027931213379

> <r_i_glide_ecoul>
-1.68891167640686

> <r_i_glide_erotb>
0.386926819823198

> <r_i_glide_esite>
0

> <r_i_glide_emodel>
-52.236184721698

> <r_i_glide_energy>
-37.3917047977448

> <r_i_glide_einternal>
0.790757834911346

> <i_i_glide_confnum>
4

> <i_i_glide_posenum>
213

> <r_i_glide_eff_state_penalty>
0

> <s_user_duplicate_titles>
CHEMBL4581_lig327

> <s_m_subgroup_title>
dock_pv

> <s_m_subgroupid>
dock_pv

> <b_m_subgroup_collapsed>
1

$$$$
CHEMBL4581_lig302
                    3D
 Schrodinger Suite 2021-1.
 47 50  0  0  1  0            999 V2000
   19.7218   13.9623  108.2402 N   0  0  0  0  0  0
   18.8075   15.9904  107.9506 C   0  0  0  0  0  0
   18.6898   14.7828  108.6170 C   0  0  0  0  0  0
   17.5438   14.4016  109.5629 C   0  0  2  0  0  0
   16.5371   15.5003  109.5109 N   0  0  0  0  0  0
   17.1061   16.8675  109.5504 C   0  0  0  0  0  0
   17.8124   17.1163  108.1887 C   0  0  0  0  0  0
   20.5062   14.5839  107.2894 C   0  0  0  0  0  0
   19.9438   15.8796  107.0839 C   0  0  0  0  0  0
   20.5529   16.7370  106.1590 C   0  0  0  0  0  0
   21.6935   16.3140  105.4905 C   0  0  0  0  0  0
   22.2251   15.0450  105.7037 C   0  0  0  0  0  0
   21.6353   14.1406  106.5884 C   0  0  0  0  0  0
   17.9684   14.0226  110.9855 C   0  0  0  0  0  0
   19.0413   14.6636  111.6228 C   0  0  0  0  0  0
   19.3626   14.3615  112.9467 C   0  0  0  0  0  0
   18.6090   13.4201  113.6503 C   0  0  0  0  0  0
   17.5188   12.8076  113.0380 C   0  0  0  0  0  0
   17.2136   13.0907  111.7077 C   0  0  0  0  0  0
   15.2361   15.3494  109.1289 C   0  0  0  0  0  0
   14.4766   16.3119  108.9921 O   0  0  0  0  0  0
   14.6099   13.9576  108.9370 C   0  0  0  0  0  0
   14.4749   13.5733  107.4489 C   0  0  0  0  0  0
   15.7517   13.1620  106.8961 N   0  0  0  0  0  0
   16.7204   11.9620  113.7559 O   0  0  0  0  0  0
   22.2825   17.1621  104.5991 O   0  0  0  0  0  0
   19.8218   13.0269  108.6058 H   0  0  0  0  0  0
   17.1132   13.4947  109.1444 H   0  0  0  0  0  0
   17.8226   16.9162  110.3710 H   0  0  0  0  0  0
   16.3713   17.6246  109.8307 H   0  0  0  0  0  0
   17.0789   17.1621  107.3826 H   0  0  0  0  0  0
   18.3184   18.0806  108.2058 H   0  0  0  0  0  0
   20.1509   17.7209  105.9754 H   0  0  0  0  0  0
   23.1047   14.7357  105.1584 H   0  0  0  0  0  0
   22.0502   13.1538  106.7323 H   0  0  0  0  0  0
   19.6229   15.4083  111.0982 H   0  0  0  0  0  0
   20.1973   14.8512  113.4256 H   0  0  0  0  0  0
   18.8608   13.1784  114.6733 H   0  0  0  0  0  0
   16.3651   12.5990  111.2573 H   0  0  0  0  0  0
   13.6065   13.9994  109.3591 H   0  0  0  0  0  0
   15.1134   13.1823  109.5082 H   0  0  0  0  0  0
   14.0823   14.4114  106.8689 H   0  0  0  0  0  0
   13.7643   12.7525  107.3330 H   0  0  0  0  0  0
   15.9180   12.1973  107.1784 H   0  0  0  0  0  0
   15.7061   13.1370  105.8874 H   0  0  0  0  0  0
   17.0030   11.8768  114.6692 H   0  0  0  0  0  0
   22.9711   16.7358  104.0852 H   0  0  0  0  0  0
  1  8  1  0  0  0
  1  3  1  0  0  0
  1 27  1  0  0  0
  2  7  1  0  0  0
  2  9  1  0  0  0
  2  3  2  0  0  0
  3  4  1  0  0  0
  4  5  1  0  0  0
  4 14  1  0  0  0
  4 28  1  0  0  0
  5  6  1  0  0  0
  5 20  1  0  0  0
  6  7  1  0  0  0
  6 29  1  0  0  0
  6 30  1  0  0  0
  7 31  1  0  0  0
  7 32  1  0  0  0
  8 13  1  0  0  0
  8  9  2  0  0  0
  9 10  1  0  0  0
 10 11  2  0  0  0
 10 33  1  0  0  0
 11 12  1  0  0  0
 11 26  1  0  0  0
 12 13  2  0  0  0
 12 34  1  0  0  0
 13 35  1  0  0  0
 14 15  2  0  0  0
 14 19  1  0  0  0
 15 16  1  0  0  0
 15 36  1  0  0  0
 16 17  2  0  0  0
 16 37  1  0  0  0
 17 18  1  0  0  0
 17 38  1  0  0  0
 18 19  2  0  0  0
 18 25  1  0  0  0
 19 39  1  0  0  0
 20 21  2  0  0  0
 20 22  1  0  0  0
 22 23  1  0  0  0
 22 40  1  0  0  0
 22 41  1  0  0  0
 23 24  1  0  0  0
 23 42  1  0  0  0
 23 43  1  0  0  0
 24 44  1  0  0  0
 24 45  1  0  0  0
 25 46  1  0  0  0
 26 47  1  0  0  0
M  END
> <s_m_entry_id>
236

> <s_m_entry_name>
dock_pv.235

> <s_m_Source_Path>
/home/csk/Desktop/cluster/DUD-E-result/kif11

> <s_m_Source_File>
dock_pv.maegz

> <i_m_Source_File_Index>
235

> <chembl_id>
CHEMBL604670

> <chembl_pref_name>
None

> <i_lp_mmshare_version>
53161

> <i_f3d_flags>
0

> <r_lp_tautomer_probability>
0.999999999997365

> <s_lp_Force_Field>
OPLS_2005

> <r_lp_Energy>
20.93924

> <b_lp_Chiralities_Consistent>
1

> <s_lp_Variant>
CHEMBL4581_lig302-1

> <s_i_glide_gridfile>
glide-grid_3cjo

> <i_i_glide_lignum>
442

> <i_i_glide_rotatable_bonds>
6

> <r_i_docking_score>
-7.86771887543292

> <r_i_glide_ligand_efficiency>
-0.302604572132035

> <r_i_glide_ligand_efficiency_sa>
-0.896464854249659

> <r_i_glide_ligand_efficiency_ln>
-1.84770796180413

> <r_i_glide_gscore>
-7.86771887543292

> <r_i_glide_lipo>
-4.28538825261929

> <r_i_glide_hbond>
-0.32

> <r_i_glide_metal>
0

> <r_i_glide_rewards>
-1.2334092687086

> <r_i_glide_evdw>
-40.0199928283691

> <r_i_glide_ecoul>
-3.27526545524597

> <r_i_glide_erotb>
0.463368105600331

> <r_i_glide_esite>
0

> <r_i_glide_emodel>
-58.4379634585333

> <r_i_glide_energy>
-43.2952582836151

> <r_i_glide_einternal>
6.932297706604

> <i_i_glide_confnum>
10

> <i_i_glide_posenum>
140

> <r_i_glide_eff_state_penalty>
0

> <s_user_duplicate_titles>
CHEMBL4581_lig302

> <s_m_subgroup_title>
dock_pv

> <s_m_subgroupid>
dock_pv

> <b_m_subgroup_collapsed>
1

$$$$
CHEMBL4581_lig887
                    3D
 Schrodinger Suite 2021-1.
 45 47  0  0  1  0            999 V2000
   18.0190   14.4761  109.2317 C   0  0  2  0  0  0
   17.2226   15.8116  109.3369 C   0  0  0  0  0  0
   18.2321   14.0560  110.7175 C   0  0  0  0  0  0
   15.8165   15.8331  109.3290 C   0  0  0  0  0  0
   15.1126   17.0252  109.4979 C   0  0  0  0  0  0
   15.8013   18.2238  109.6769 C   0  0  0  0  0  0
   17.1939   18.2297  109.6909 C   0  0  0  0  0  0
   17.8955   17.0353  109.5218 C   0  0  0  0  0  0
   19.2532   14.6587  111.4712 C   0  0  0  0  0  0
   19.4256   14.3626  112.8229 C   0  0  0  0  0  0
   18.5863   13.4402  113.4446 C   0  0  0  0  0  0
   17.5679   12.8297  112.7225 C   0  0  0  0  0  0
   17.3948   13.1299  111.3713 C   0  0  0  0  0  0
   19.3396   14.5607  108.4073 C   0  0  0  0  0  0
   20.3706   13.6310  108.6223 C   0  0  0  0  0  0
   21.4565   13.5615  107.7523 C   0  0  0  0  0  0
   21.5189   14.4200  106.6579 C   0  0  0  0  0  0
   20.5582   15.4072  106.4805 C   0  0  0  0  0  0
   19.4809   15.4822  107.3555 C   0  0  0  0  0  0
   17.0680   13.1646  108.3143 S   0  0  0  0  0  0
   16.8570   13.7905  106.6104 C   0  0  0  0  0  0
   16.0088   12.9325  105.6572 C   0  0  0  0  0  0
   14.6572   12.7628  106.1585 N   0  0  0  0  0  0
   16.7207   11.9605  113.3548 O   0  0  0  0  0  0
   13.3863   17.0095  109.5048 Cl  0  0  0  0  0  0
   15.2458   14.9221  109.2140 H   0  0  0  0  0  0
   15.2556   19.1462  109.8096 H   0  0  0  0  0  0
   17.7264   19.1572  109.8506 H   0  0  0  0  0  0
   18.9763   17.0654  109.5590 H   0  0  0  0  0  0
   19.9176   15.3806  111.0138 H   0  0  0  0  0  0
   20.2164   14.8390  113.3832 H   0  0  0  0  0  0
   18.7174   13.2026  114.4906 H   0  0  0  0  0  0
   16.5746   12.6578  110.8528 H   0  0  0  0  0  0
   20.2938   12.9015  109.4161 H   0  0  0  0  0  0
   22.2216   12.8129  107.8983 H   0  0  0  0  0  0
   22.3405   14.3439  105.9619 H   0  0  0  0  0  0
   20.6306   16.0906  105.6476 H   0  0  0  0  0  0
   18.7114   16.2103  107.1474 H   0  0  0  0  0  0
   16.4613   14.8044  106.6502 H   0  0  0  0  0  0
   17.8451   13.8568  106.1587 H   0  0  0  0  0  0
   15.9690   13.4020  104.6744 H   0  0  0  0  0  0
   16.4689   11.9522  105.5230 H   0  0  0  0  0  0
   14.1026   12.2618  105.4803 H   0  0  0  0  0  0
   14.7270   12.1431  106.9597 H   0  0  0  0  0  0
   16.0503   11.5613  112.7871 H   0  0  0  0  0  0
  1  2  1  0  0  0
  1  3  1  0  0  0
  1 14  1  0  0  0
  1 20  1  0  0  0
  2  4  2  0  0  0
  2  8  1  0  0  0
  3  9  2  0  0  0
  3 13  1  0  0  0
  4  5  1  0  0  0
  4 26  1  0  0  0
  5  6  2  0  0  0
  5 25  1  0  0  0
  6  7  1  0  0  0
  6 27  1  0  0  0
  7  8  2  0  0  0
  7 28  1  0  0  0
  8 29  1  0  0  0
  9 10  1  0  0  0
  9 30  1  0  0  0
 10 11  2  0  0  0
 10 31  1  0  0  0
 11 12  1  0  0  0
 11 32  1  0  0  0
 12 13  2  0  0  0
 12 24  1  0  0  0
 13 33  1  0  0  0
 14 15  2  0  0  0
 14 19  1  0  0  0
 15 16  1  0  0  0
 15 34  1  0  0  0
 16 17  2  0  0  0
 16 35  1  0  0  0
 17 18  1  0  0  0
 17 36  1  0  0  0
 18 19  2  0  0  0
 18 37  1  0  0  0
 19 38  1  0  0  0
 20 21  1  0  0  0
 21 22  1  0  0  0
 21 39  1  0  0  0
 21 40  1  0  0  0
 22 23  1  0  0  0
 22 41  1  0  0  0
 22 42  1  0  0  0
 23 43  1  0  0  0
 23 44  1  0  0  0
 24 45  1  0  0  0
M  END
> <s_m_entry_id>
237

> <s_m_entry_name>
dock_pv.236

> <s_m_Source_Path>
/home/csk/Desktop/cluster/DUD-E-result/kif11

> <s_m_Source_File>
dock_pv.maegz

> <i_m_Source_File_Index>
236

> <chembl_id>
CHEMBL2325420

> <chembl_pref_name>
None

> <i_lp_mmshare_version>
53161

> <i_f3d_flags>
0

> <r_lp_tautomer_probability>
0.999999999997365

> <s_lp_Force_Field>
OPLS_2005

> <r_lp_Energy>
22.33237

> <b_lp_Chiralities_Consistent>
1

> <s_lp_Variant>
CHEMBL4581_lig887-1

> <s_i_glide_gridfile>
glide-grid_3cjo

> <i_i_glide_lignum>
1279

> <i_i_glide_rotatable_bonds>
7

> <r_i_docking_score>
-7.86738831505826

> <r_i_glide_ligand_efficiency>
-0.31469553260233

> <r_i_glide_ligand_efficiency_sa>
-0.920175318478249

> <r_i_glide_ligand_efficiency_ln>
-1.86480679727141

> <r_i_glide_gscore>
-7.86738831505826

> <r_i_glide_lipo>
-4.40469015137397

> <r_i_glide_hbond>
-0.569552863466011

> <r_i_glide_metal>
0

> <r_i_glide_rewards>
-0.953084905669732

> <r_i_glide_evdw>
-40.7442855834961

> <r_i_glide_ecoul>
-4.05057382583618

> <r_i_glide_erotb>
0.704739958501683

> <r_i_glide_esite>
0

> <r_i_glide_emodel>
-62.7320345838032

> <r_i_glide_energy>
-44.7948594093323

> <r_i_glide_einternal>
4.69666051864624

> <i_i_glide_confnum>
41

> <i_i_glide_posenum>
53

> <r_i_glide_eff_state_penalty>
0

> <s_user_duplicate_titles>
CHEMBL4581_lig887

> <s_m_subgroup_title>
dock_pv

> <s_m_subgroupid>
dock_pv

> <b_m_subgroup_collapsed>
1

$$$$
CHEMBL4581_lig324
                    3D
 Schrodinger Suite 2021-1.
 40 43  0  0  1  0            999 V2000
   21.0412   15.9242  106.0055 C   0  0  0  0  0  0
   21.6085   14.6876  106.3135 C   0  0  0  0  0  0
   21.1184   13.9622  107.4060 C   0  0  0  0  0  0
   19.9489   16.3773  106.7271 C   0  0  0  0  0  0
   19.4483   15.6820  107.8190 C   0  0  0  0  0  0
   20.0641   14.4693  108.1794 C   0  0  0  0  0  0
   19.6165   13.7402  109.2987 N   0  0  0  0  0  0
   18.3597   14.1092  109.9629 C   0  0  2  0  0  0
   18.2497   16.2357  108.5684 C   0  0  2  0  0  0
   18.1782   15.6567  109.9945 C   0  0  1  0  0  0
   16.8620   16.1442  110.6532 C   0  0  0  0  0  0
   15.6366   15.8679  109.7614 C   0  0  0  0  0  0
   15.8731   16.4014  108.3364 C   0  0  0  0  0  0
   17.0900   15.8742  107.8144 O   0  0  0  0  0  0
   18.2282   13.4878  111.3494 C   0  0  0  0  0  0
   19.0360   13.9346  112.4034 C   0  0  0  0  0  0
   18.8831   13.3903  113.6744 C   0  0  0  0  0  0
   17.9251   12.4060  113.8921 C   0  0  0  0  0  0
   17.1179   11.9620  112.8505 C   0  0  0  0  0  0
   17.2683   12.4985  111.5765 C   0  0  0  0  0  0
   21.5455   16.8055  104.9708 C   0  0  0  0  0  0
   21.9181   17.5336  104.1581 N   0  0  0  0  0  0
   18.3316   17.3251  108.6240 H   0  0  0  0  0  0
   19.0058   16.0996  110.5541 H   0  0  0  0  0  0
   22.4385   14.2981  105.7423 H   0  0  0  0  0  0
   21.5848   13.0216  107.6641 H   0  0  0  0  0  0
   19.5170   17.3335  106.4776 H   0  0  0  0  0  0
   19.8744   12.7713  109.4156 H   0  0  0  0  0  0
   17.5606   13.6815  109.3533 H   0  0  0  0  0  0
   16.9295   17.2169  110.8418 H   0  0  0  0  0  0
   16.7187   15.6817  111.6289 H   0  0  0  0  0  0
   14.7447   16.3259  110.1935 H   0  0  0  0  0  0
   15.4408   14.7945  109.7189 H   0  0  0  0  0  0
   15.9003   17.4919  108.3253 H   0  0  0  0  0  0
   15.0539   16.1032  107.6818 H   0  0  0  0  0  0
   19.7845   14.6947  112.2351 H   0  0  0  0  0  0
   19.5165   13.7155  114.4853 H   0  0  0  0  0  0
   17.8147   11.9652  114.8731 H   0  0  0  0  0  0
   16.3641   11.2080  113.0326 H   0  0  0  0  0  0
   16.6374   12.1462  110.7740 H   0  0  0  0  0  0
  1  2  2  0  0  0
  1 21  1  0  0  0
  1  4  1  0  0  0
  2  3  1  0  0  0
  2 25  1  0  0  0
  3  6  2  0  0  0
  3 26  1  0  0  0
  4  5  2  0  0  0
  4 27  1  0  0  0
  5  9  1  0  0  0
  5  6  1  0  0  0
  6  7  1  0  0  0
  7  8  1  0  0  0
  7 28  1  0  0  0
  8 10  1  0  0  0
  8 15  1  0  0  0
  8 29  1  0  0  0
  9 14  1  0  0  0
  9 10  1  0  0  0
  9 23  1  0  0  0
 10 11  1  0  0  0
 10 24  1  0  0  0
 11 12  1  0  0  0
 11 30  1  0  0  0
 11 31  1  0  0  0
 12 13  1  0  0  0
 12 32  1  0  0  0
 12 33  1  0  0  0
 13 14  1  0  0  0
 13 34  1  0  0  0
 13 35  1  0  0  0
 15 16  2  0  0  0
 15 20  1  0  0  0
 16 17  1  0  0  0
 16 36  1  0  0  0
 17 18  2  0  0  0
 17 37  1  0  0  0
 18 19  1  0  0  0
 18 38  1  0  0  0
 19 20  2  0  0  0
 19 39  1  0  0  0
 20 40  1  0  0  0
 21 22  3  0  0  0
M  END
> <s_m_entry_id>
238

> <s_m_entry_name>
dock_pv.237

> <s_m_Source_Path>
/home/csk/Desktop/cluster/DUD-E-result/kif11

> <s_m_Source_File>
dock_pv.maegz

> <i_m_Source_File_Index>
237

> <chembl_id>
CHEMBL1083520

> <chembl_pref_name>
None

> <i_lp_mmshare_version>
53161

> <i_f3d_flags>
0

> <r_lp_tautomer_probability>
1

> <s_lp_Force_Field>
OPLS_2005

> <r_lp_Energy>
25.299118

> <b_lp_Chiralities_Consistent>
1

> <s_lp_Variant>
CHEMBL4581_lig324-1

> <s_i_glide_gridfile>
glide-grid_3cjo

> <i_i_glide_lignum>
477

> <i_i_glide_rotatable_bonds>
1

> <r_i_docking_score>
-7.86723877753246

> <r_i_glide_ligand_efficiency>
-0.357601762615112

> <r_i_glide_ligand_efficiency_sa>
-1.00201420252681

> <r_i_glide_ligand_efficiency_ln>
-1.92304012173579

> <r_i_glide_gscore>
-7.86723877753246

> <r_i_glide_lipo>
-4.29683554554752

> <r_i_glide_hbond>
0

> <r_i_glide_metal>
0

> <r_i_glide_rewards>
-1.96376706988655

> <r_i_glide_evdw>
-34.2172546386719

> <r_i_glide_ecoul>
-0.746193706989288

> <r_i_glide_erotb>
0.216155625883603

> <r_i_glide_esite>
0

> <r_i_glide_emodel>
-49.7521714256366

> <r_i_glide_energy>
-34.9634483456612

> <r_i_glide_einternal>
0.729356586933136

> <i_i_glide_confnum>
2

> <i_i_glide_posenum>
372

> <r_i_glide_eff_state_penalty>
0

> <s_user_duplicate_titles>
CHEMBL4581_lig324

> <s_m_subgroup_title>
dock_pv

> <s_m_subgroupid>
dock_pv

> <b_m_subgroup_collapsed>
1

$$$$
CHEMBL4581_lig702
                    3D
 Schrodinger Suite 2021-1.
 63 66  0  0  1  0            999 V2000
   18.7155   17.3016  110.8426 C   0  0  0  0  0  0
   19.3820   15.9620  111.1389 C   0  0  0  0  0  0
   17.5031   15.0875  108.9486 C   0  0  0  0  0  0
   17.3283   17.3873  110.2190 C   0  0  0  0  0  0
   16.8561   16.5045  109.2102 C   0  0  0  0  0  0
   15.7785   16.9939  108.4378 C   0  0  0  0  0  0
   15.0757   18.1513  108.7508 C   0  0  0  0  0  0
   15.4550   18.9013  109.8490 C   0  0  0  0  0  0
   16.5842   18.5249  110.5587 C   0  0  0  0  0  0
   17.6685   14.2814  110.3065 C   0  0  0  0  0  0
   18.4984   14.7613  111.3538 C   0  0  0  0  0  0
   18.5841   14.0925  112.5827 C   0  0  0  0  0  0
   17.9178   12.8962  112.7948 C   0  0  0  0  0  0
   17.1818   12.3482  111.7588 C   0  0  0  0  0  0
   17.0798   13.0186  110.5449 C   0  0  0  0  0  0
   18.8248   15.2010  108.1394 C   0  0  0  0  0  0
   19.1074   16.3199  107.3455 C   0  0  0  0  0  0
   20.2564   16.3757  106.5592 C   0  0  0  0  0  0
   21.1987   15.3420  106.5777 C   0  0  0  0  0  0
   20.9241   14.2346  107.3985 C   0  0  0  0  0  0
   19.7609   14.1635  108.1592 C   0  0  0  0  0  0
   16.4467   14.1034  107.7601 S   0  0  0  0  0  0
   14.7511   14.0016  108.4804 C   0  0  0  0  0  0
   13.6122   13.8106  107.4424 C   0  0  1  0  0  0
   13.2892   15.1323  106.7026 C   0  0  0  0  0  0
   13.9180   12.7489  106.4547 N   0  0  0  0  0  0
   13.8458   15.1859  105.4589 O   0  0  0  0  0  0
   12.6365   16.0284  107.2325 O   0  0  0  0  0  0
   22.5429   15.5031  105.8017 C   0  0  0  0  0  0
   22.3180   15.3548  104.3307 C   0  0  0  0  0  0
   23.6092   14.4453  106.1498 C   0  0  0  0  0  0
   23.1315   16.9155  105.9582 C   0  0  0  0  0  0
   18.7177   17.8864  111.7591 H   0  0  0  0  0  0
   19.3678   17.8802  110.1890 H   0  0  0  0  0  0
   20.0335   16.1039  112.0026 H   0  0  0  0  0  0
   20.0687   15.6729  110.3542 H   0  0  0  0  0  0
   15.4437   16.4752  107.5586 H   0  0  0  0  0  0
   14.2345   18.4555  108.1448 H   0  0  0  0  0  0
   14.9146   19.7981  110.1156 H   0  0  0  0  0  0
   16.9192   19.1620  111.3629 H   0  0  0  0  0  0
   19.2059   14.4843  113.3746 H   0  0  0  0  0  0
   18.0040   12.3791  113.7398 H   0  0  0  0  0  0
   16.6959   11.3932  111.8853 H   0  0  0  0  0  0
   16.5513   12.4792  109.7810 H   0  0  0  0  0  0
   18.4357   17.1620  107.3374 H   0  0  0  0  0  0
   20.4270   17.2621  105.9669 H   0  0  0  0  0  0
   21.5928   13.3975  107.4928 H   0  0  0  0  0  0
   19.5843   13.2807  108.7568 H   0  0  0  0  0  0
   14.7177   13.1620  109.1627 H   0  0  0  0  0  0
   14.5455   14.8554  109.1239 H   0  0  0  0  0  0
   12.7166   13.5370  108.0026 H   0  0  0  0  0  0
   13.1052   12.1843  106.2436 H   0  0  0  0  0  0
   14.6273   12.1117  106.8109 H   0  0  0  0  0  0
   14.2498   14.3190  105.3277 H   0  0  0  0  0  0
   23.2344   15.4021  103.7590 H   0  0  0  0  0  0
   21.6767   16.1656  103.9856 H   0  0  0  0  0  0
   21.9180   14.3646  104.1590 H   0  0  0  0  0  0
   24.2225   14.7620  106.9835 H   0  0  0  0  0  0
   23.1963   13.4512  106.2947 H   0  0  0  0  0  0
   24.3180   14.2966  105.3417 H   0  0  0  0  0  0
   22.9459   17.2307  106.9590 H   0  0  0  0  0  0
   24.2015   16.9676  105.7590 H   0  0  0  0  0  0
   22.6480   17.6551  105.3211 H   0  0  0  0  0  0
  1  4  1  0  0  0
  1  2  1  0  0  0
  1 33  1  0  0  0
  1 34  1  0  0  0
  2 11  1  0  0  0
  2 35  1  0  0  0
  2 36  1  0  0  0
  3 10  1  0  0  0
  3  5  1  0  0  0
  3 16  1  0  0  0
  3 22  1  0  0  0
  4  5  2  0  0  0
  4  9  1  0  0  0
  5  6  1  0  0  0
  6  7  2  0  0  0
  6 37  1  0  0  0
  7  8  1  0  0  0
  7 38  1  0  0  0
  8  9  2  0  0  0
  8 39  1  0  0  0
  9 40  1  0  0  0
 10 11  2  0  0  0
 10 15  1  0  0  0
 11 12  1  0  0  0
 12 13  2  0  0  0
 12 41  1  0  0  0
 13 14  1  0  0  0
 13 42  1  0  0  0
 14 15  2  0  0  0
 14 43  1  0  0  0
 15 44  1  0  0  0
 16 17  2  0  0  0
 16 21  1  0  0  0
 17 18  1  0  0  0
 17 45  1  0  0  0
 18 19  2  0  0  0
 18 46  1  0  0  0
 19 20  1  0  0  0
 19 29  1  0  0  0
 20 21  2  0  0  0
 20 47  1  0  0  0
 21 48  1  0  0  0
 22 23  1  0  0  0
 23 24  1  0  0  0
 23 49  1  0  0  0
 23 50  1  0  0  0
 24 25  1  0  0  0
 24 26  1  0  0  0
 24 51  1  0  0  0
 25 27  1  0  0  0
 25 28  2  0  0  0
 26 52  1  0  0  0
 26 53  1  0  0  0
 27 54  1  0  0  0
 29 30  1  0  0  0
 29 31  1  0  0  0
 29 32  1  0  0  0
 30 55  1  0  0  0
 30 56  1  0  0  0
 30 57  1  0  0  0
 31 58  1  0  0  0
 31 59  1  0  0  0
 31 60  1  0  0  0
 32 61  1  0  0  0
 32 62  1  0  0  0
 32 63  1  0  0  0
M  END
> <s_m_entry_id>
239

> <s_m_entry_name>
dock_pv.238

> <s_m_Source_Path>
/home/csk/Desktop/cluster/DUD-E-result/kif11

> <s_m_Source_File>
dock_pv.maegz

> <i_m_Source_File_Index>
238

> <chembl_id>
CHEMBL3633530

> <chembl_pref_name>
None

> <i_lp_mmshare_version>
53161

> <i_f3d_flags>
0

> <r_lp_tautomer_probability>
1

> <s_lp_Force_Field>
OPLS_2005

> <r_lp_Energy>
45.285843

> <b_lp_Chiralities_Consistent>
1

> <s_lp_Variant>
CHEMBL4581_lig702-1

> <s_i_glide_gridfile>
glide-grid_3cjo

> <i_i_glide_lignum>
1045

> <i_i_glide_rotatable_bonds>
7

> <r_i_docking_score>
-7.86647697294976

> <r_i_glide_ligand_efficiency>
-0.24582740540468

> <r_i_glide_ligand_efficiency_sa>
-0.780453362982389

> <r_i_glide_ligand_efficiency_ln>
-1.76151862630703

> <r_i_glide_gscore>
-7.86647697294976

> <r_i_glide_lipo>
-5.57288299947203

> <r_i_glide_hbond>
-0.288851138277305

> <r_i_glide_metal>
0

> <r_i_glide_rewards>
-0.533826122539489

> <r_i_glide_evdw>
-33.7903060913086

> <r_i_glide_ecoul>
-1.90155816078186

> <r_i_glide_erotb>
0.503832316021777

> <r_i_glide_esite>
0

> <r_i_glide_emodel>
-47.1610278504187

> <r_i_glide_energy>
-35.6918642520905

> <r_i_glide_einternal>
12.5996408462524

> <i_i_glide_confnum>
226

> <i_i_glide_posenum>
11

> <r_i_glide_eff_state_penalty>
0

> <s_user_duplicate_titles>
CHEMBL4581_lig702

> <s_m_subgroup_title>
dock_pv

> <s_m_subgroupid>
dock_pv

> <b_m_subgroup_collapsed>
1

$$$$
CHEMBL4581_lig453
                    3D
 Schrodinger Suite 2021-1.
 56 58  0  0  1  0            999 V2000
   17.0625   14.9877  109.5357 C   0  0  0  0  0  0
   15.6605   13.9622  108.8544 S   0  0  0  0  0  0
   16.5075   16.4349  109.7756 C   0  0  0  0  0  0
   18.2596   14.8917  108.5379 C   0  0  0  0  0  0
   17.4896   14.3750  110.9195 C   0  0  0  0  0  0
   18.2531   15.5831  107.3183 C   0  0  0  0  0  0
   19.3491   15.5671  106.4703 C   0  0  0  0  0  0
   20.4895   14.8492  106.8174 C   0  0  0  0  0  0
   20.5099   14.1312  108.0161 C   0  0  0  0  0  0
   19.4047   14.1373  108.8493 C   0  0  0  0  0  0
   15.4486   16.5653  110.6747 C   0  0  0  0  0  0
   14.8431   17.7862  110.9473 C   0  0  0  0  0  0
   15.3019   18.9251  110.3017 C   0  0  0  0  0  0
   16.3779   18.8443  109.4254 C   0  0  0  0  0  0
   17.0042   17.6189  109.1944 C   0  0  0  0  0  0
   18.3325   15.1212  111.7585 C   0  0  0  0  0  0
   18.7967   14.5901  112.9595 C   0  0  0  0  0  0
   18.3996   13.3196  113.3602 C   0  0  0  0  0  0
   17.5623   12.5608  112.5540 C   0  0  0  0  0  0
   17.1228   13.0775  111.3401 C   0  0  0  0  0  0
   15.1178   14.5650  107.2247 C   0  0  0  0  0  0
   15.5915   13.5951  106.1013 C   0  0  1  0  0  0
   14.4041   12.8807  105.4091 C   0  0  0  0  0  0
   14.3177   11.5625  105.7550 O   0  0  0  0  0  0
   13.6311   13.4559  104.6424 O   0  0  0  0  0  0
   16.3662   14.2873  105.0547 N   0  0  0  0  0  0
   21.6601   14.8324  105.8399 C   0  0  0  0  0  0
   22.7205   13.7745  106.1477 C   0  0  0  0  0  0
   22.2855   16.2266  105.6326 C   0  0  0  0  0  0
   17.4113   16.1821  107.0193 H   0  0  0  0  0  0
   19.3131   16.1207  105.5439 H   0  0  0  0  0  0
   21.3604   13.5418  108.3184 H   0  0  0  0  0  0
   19.4791   13.5458  109.7485 H   0  0  0  0  0  0
   15.1175   15.6765  111.1715 H   0  0  0  0  0  0
   14.0234   17.8498  111.6472 H   0  0  0  0  0  0
   14.8330   19.8798  110.4915 H   0  0  0  0  0  0
   16.7182   19.7427  108.9371 H   0  0  0  0  0  0
   17.8764   17.6408  108.5648 H   0  0  0  0  0  0
   18.6565   16.1093  111.4626 H   0  0  0  0  0  0
   19.4639   15.1605  113.5858 H   0  0  0  0  0  0
   18.7512   12.9158  114.2995 H   0  0  0  0  0  0
   17.2618   11.5692  112.8609 H   0  0  0  0  0  0
   16.5075   12.4246  110.7410 H   0  0  0  0  0  0
   14.0292   14.6297  107.2706 H   0  0  0  0  0  0
   15.4295   15.5943  107.0686 H   0  0  0  0  0  0
   16.2407   12.8361  106.5420 H   0  0  0  0  0  0
   14.9455   11.2561  106.4290 H   0  0  0  0  0  0
   17.0111   14.9378  105.4756 H   0  0  0  0  0  0
   16.9536   13.6239  104.5577 H   0  0  0  0  0  0
   21.2216   14.5189  104.9051 H   0  0  0  0  0  0
   22.3098   12.7642  106.1365 H   0  0  0  0  0  0
   23.1196   13.9615  107.1362 H   0  0  0  0  0  0
   23.5335   13.8078  105.4243 H   0  0  0  0  0  0
   21.5635   16.9406  105.2349 H   0  0  0  0  0  0
   22.6785   16.6382  106.5596 H   0  0  0  0  0  0
   23.1156   16.1825  104.9287 H   0  0  0  0  0  0
  1  4  1  0  0  0
  1  5  1  0  0  0
  1  3  1  0  0  0
  1  2  1  0  0  0
  2 21  1  0  0  0
  3 15  1  0  0  0
  3 11  2  0  0  0
  4 10  1  0  0  0
  4  6  2  0  0  0
  5 16  2  0  0  0
  5 20  1  0  0  0
  6  7  1  0  0  0
  6 30  1  0  0  0
  7  8  2  0  0  0
  7 31  1  0  0  0
  8  9  1  0  0  0
  8 27  1  0  0  0
  9 10  2  0  0  0
  9 32  1  0  0  0
 10 33  1  0  0  0
 11 12  1  0  0  0
 11 34  1  0  0  0
 12 13  2  0  0  0
 12 35  1  0  0  0
 13 14  1  0  0  0
 13 36  1  0  0  0
 14 15  2  0  0  0
 14 37  1  0  0  0
 15 38  1  0  0  0
 16 17  1  0  0  0
 16 39  1  0  0  0
 17 18  2  0  0  0
 17 40  1  0  0  0
 18 19  1  0  0  0
 18 41  1  0  0  0
 19 20  2  0  0  0
 19 42  1  0  0  0
 20 43  1  0  0  0
 21 22  1  0  0  0
 21 44  1  0  0  0
 21 45  1  0  0  0
 22 23  1  0  0  0
 22 26  1  0  0  0
 22 46  1  0  0  0
 23 24  1  0  0  0
 23 25  2  0  0  0
 24 47  1  0  0  0
 26 48  1  0  0  0
 26 49  1  0  0  0
 27 28  1  0  0  0
 27 29  1  0  0  0
 27 50  1  0  0  0
 28 51  1  0  0  0
 28 52  1  0  0  0
 28 53  1  0  0  0
 29 54  1  0  0  0
 29 55  1  0  0  0
 29 56  1  0  0  0
M  END
> <s_m_entry_id>
240

> <s_m_entry_name>
dock_pv.239

> <s_m_Source_Path>
/home/csk/Desktop/cluster/DUD-E-result/kif11

> <s_m_Source_File>
dock_pv.maegz

> <i_m_Source_File_Index>
239

> <chembl_id>
CHEMBL1688923

> <chembl_pref_name>
None

> <i_lp_mmshare_version>
53161

> <i_f3d_flags>
0

> <r_lp_tautomer_probability>
1

> <s_lp_Force_Field>
OPLS_2005

> <r_lp_Energy>
21.9442

> <b_lp_Chiralities_Consistent>
1

> <s_lp_Variant>
CHEMBL4581_lig453-1

> <s_i_glide_gridfile>
glide-grid_3cjo

> <i_i_glide_lignum>
676

> <i_i_glide_rotatable_bonds>
9

> <r_i_docking_score>
-7.86197789171328

> <r_i_glide_ligand_efficiency>
-0.271102685921148

> <r_i_glide_ligand_efficiency_sa>
-0.832913342509279

> <r_i_glide_ligand_efficiency_ln>
-1.80019357464448

> <r_i_glide_gscore>
-7.86197789171328

> <r_i_glide_lipo>
-4.56689746907086

> <r_i_glide_hbond>
-0.0672264561662326

> <r_i_glide_metal>
0

> <r_i_glide_rewards>
-0.690512811443099

> <r_i_glide_evdw>
-40.9876708984375

> <r_i_glide_ecoul>
-8.810378074646

> <r_i_glide_erotb>
0.836467517661182

> <r_i_glide_esite>
-0.00286841657549568

> <r_i_glide_emodel>
-69.0291348514867

> <r_i_glide_energy>
-49.7980489730835

> <r_i_glide_einternal>
8.55751132965088

> <i_i_glide_confnum>
132

> <i_i_glide_posenum>
40

> <r_i_glide_eff_state_penalty>
0

> <s_user_duplicate_titles>
CHEMBL4581_lig453

> <s_m_subgroup_title>
dock_pv

> <s_m_subgroupid>
dock_pv

> <b_m_subgroup_collapsed>
1

$$$$
CHEMBL4581_lig218
                    3D
 Schrodinger Suite 2021-1.
 59 63  0  0  1  0            999 V2000
   14.7474   14.8013  105.7392 N   0  0  1  0  0  0
   14.8439   14.9107  104.2737 C   0  0  0  0  0  0
   15.3183   13.5109  103.8411 C   0  0  1  0  0  0
   15.1777   13.4099  105.9851 C   0  0  2  0  0  0
   16.2564   13.1367  104.9668 C   0  0  0  0  0  0
   14.2611   12.5695  104.0549 O   0  0  0  0  0  0
   14.0724   12.4587  105.4738 C   0  0  0  0  0  0
   22.3468   15.3960  105.3598 C   0  0  0  0  0  0
   21.5267   16.5206  105.3062 C   0  0  0  0  0  0
   20.3818   16.5866  106.0959 C   0  0  0  0  0  0
   20.0528   15.5531  106.9815 C   0  0  0  0  0  0
   20.9542   14.4739  107.0996 C   0  0  0  0  0  0
   22.0564   14.3661  106.2497 C   0  0  0  0  0  0
   21.8230   17.5312  104.4605 F   0  0  0  0  0  0
   20.8331   13.5612  108.0905 F   0  0  0  0  0  0
   18.8772   15.6526  107.7486 N   0  0  0  0  0  0
   18.7179   16.7526  108.6133 N   0  0  0  0  0  0
   17.7983   16.5137  109.4602 C   0  0  0  0  0  0
   17.1674   15.1149  109.3534 C   0  0  1  0  0  0
   18.0646   14.5569  108.2419 C   0  0  0  0  0  0
   17.3695   17.5029  110.4501 C   0  0  0  0  0  0
   16.2498   17.4916  110.9601 O   0  0  0  0  0  0
   18.3917   18.5243  110.9428 C   0  0  0  0  0  0
   17.3577   14.1922  110.5934 C   0  0  0  0  0  0
   15.6372   15.1467  108.9708 C   0  0  0  0  0  0
   15.1312   16.1228  107.8740 C   0  0  0  0  0  0
   15.5299   15.8591  106.4017 C   0  0  0  0  0  0
   18.0506   14.5709  111.7603 C   0  0  0  0  0  0
   18.2483   13.6620  112.7952 C   0  0  0  0  0  0
   17.7745   12.3610  112.6703 C   0  0  0  0  0  0
   17.1166   11.9622  111.5079 C   0  0  0  0  0  0
   16.9038   12.8710  110.4889 C   0  0  0  0  0  0
   13.8663   15.1026  103.8310 H   0  0  0  0  0  0
   15.5676   15.6545  103.9369 H   0  0  0  0  0  0
   15.7456   13.4637  102.8392 H   0  0  0  0  0  0
   15.4730   13.1719  107.0020 H   0  0  0  0  0  0
   16.5986   12.1016  104.9460 H   0  0  0  0  0  0
   17.1178   13.7992  105.0531 H   0  0  0  0  0  0
   14.2715   11.4380  105.8014 H   0  0  0  0  0  0
   13.0847   12.7944  105.7975 H   0  0  0  0  0  0
   23.2182   15.3356  104.7265 H   0  0  0  0  0  0
   19.7449   17.4550  106.0220 H   0  0  0  0  0  0
   22.7185   13.5158  106.3320 H   0  0  0  0  0  0
   17.5546   14.0122  107.4479 H   0  0  0  0  0  0
   18.7352   13.8303  108.6979 H   0  0  0  0  0  0
   19.2655   18.0335  111.3653 H   0  0  0  0  0  0
   18.7151   19.1587  110.1213 H   0  0  0  0  0  0
   17.9518   19.1566  111.7133 H   0  0  0  0  0  0
   15.2675   14.1533  108.7439 H   0  0  0  0  0  0
   15.0893   15.3988  109.8771 H   0  0  0  0  0  0
   14.0412   16.1193  107.9220 H   0  0  0  0  0  0
   15.4259   17.1379  108.1351 H   0  0  0  0  0  0
   15.4001   16.7991  105.8627 H   0  0  0  0  0  0
   16.5900   15.6290  106.3197 H   0  0  0  0  0  0
   18.4700   15.5562  111.8834 H   0  0  0  0  0  0
   18.7817   13.9594  113.6862 H   0  0  0  0  0  0
   17.9299   11.6519  113.4676 H   0  0  0  0  0  0
   16.7202   10.9684  111.3628 H   0  0  0  0  0  0
   16.4124   12.5167  109.5938 H   0  0  0  0  0  0
  1  2  1  0  0  0
  1  4  1  0  0  0
  1 27  1  0  0  0
  2  3  1  0  0  0
  2 33  1  0  0  0
  2 34  1  0  0  0
  3  5  1  0  0  0
  3  6  1  0  0  0
  3 35  1  0  0  0
  4  7  1  0  0  0
  4  5  1  0  0  0
  4 36  1  0  0  0
  5 37  1  0  0  0
  5 38  1  0  0  0
  6  7  1  0  0  0
  7 39  1  0  0  0
  7 40  1  0  0  0
  8  9  2  0  0  0
  8 13  1  0  0  0
  8 41  1  0  0  0
  9 10  1  0  0  0
  9 14  1  0  0  0
 10 11  2  0  0  0
 10 42  1  0  0  0
 11 16  1  0  0  0
 11 12  1  0  0  0
 12 13  2  0  0  0
 12 15  1  0  0  0
 13 43  1  0  0  0
 16 17  1  0  0  0
 16 20  1  0  0  0
 17 18  2  0  0  0
 18 19  1  0  0  0
 18 21  1  0  0  0
 19 20  1  0  0  0
 19 24  1  0  0  0
 19 25  1  0  0  0
 20 44  1  0  0  0
 20 45  1  0  0  0
 21 22  2  0  0  0
 21 23  1  0  0  0
 23 46  1  0  0  0
 23 47  1  0  0  0
 23 48  1  0  0  0
 24 28  2  0  0  0
 24 32  1  0  0  0
 25 26  1  0  0  0
 25 49  1  0  0  0
 25 50  1  0  0  0
 26 27  1  0  0  0
 26 51  1  0  0  0
 26 52  1  0  0  0
 27 53  1  0  0  0
 27 54  1  0  0  0
 28 29  1  0  0  0
 28 55  1  0  0  0
 29 30  2  0  0  0
 29 56  1  0  0  0
 30 31  1  0  0  0
 30 57  1  0  0  0
 31 32  2  0  0  0
 31 58  1  0  0  0
 32 59  1  0  0  0
M  END
> <s_m_entry_id>
241

> <s_m_entry_name>
dock_pv.240

> <s_m_Source_Path>
/home/csk/Desktop/cluster/DUD-E-result/kif11

> <s_m_Source_File>
dock_pv.maegz

> <i_m_Source_File_Index>
240

> <chembl_id>
CHEMBL246603

> <chembl_pref_name>
None

> <i_lp_mmshare_version>
53161

> <i_f3d_flags>
0

> <r_lp_tautomer_probability>
1

> <s_lp_Force_Field>
OPLS_2005

> <r_lp_Energy>
97.975442

> <b_lp_Chiralities_Consistent>
1

> <s_lp_Variant>
CHEMBL4581_lig218-1

> <s_i_glide_gridfile>
glide-grid_3cjo

> <i_i_glide_lignum>
328

> <i_i_glide_rotatable_bonds>
7

> <r_i_docking_score>
-7.85280535029083

> <r_i_glide_ligand_efficiency>
-0.245400167196589

> <r_i_glide_ligand_efficiency_sa>
-0.779096966222025

> <r_i_glide_ligand_efficiency_ln>
-1.75845717731934

> <r_i_glide_gscore>
-7.85280535029083

> <r_i_glide_lipo>
-3.92165822082666

> <r_i_glide_hbond>
0

> <r_i_glide_metal>
0

> <r_i_glide_rewards>
-2.02651339964121

> <r_i_glide_evdw>
-45.3363838195801

> <r_i_glide_ecoul>
-1.0297132730484

> <r_i_glide_erotb>
0.516642452113294

> <r_i_glide_esite>
0

> <r_i_glide_emodel>
-64.8423636497847

> <r_i_glide_energy>
-46.3660970926285

> <r_i_glide_einternal>
8.65113735198975

> <i_i_glide_confnum>
2

> <i_i_glide_posenum>
289

> <r_i_glide_eff_state_penalty>
0

> <s_user_duplicate_titles>
CHEMBL4581_lig218

> <s_m_subgroup_title>
dock_pv

> <s_m_subgroupid>
dock_pv

> <b_m_subgroup_collapsed>
1

$$$$
CHEMBL4581_lig402
                    3D
 Schrodinger Suite 2021-1.
 46 49  0  0  1  0            999 V2000
   21.5476   16.0734  105.8884 C   0  0  0  0  0  0
   22.0874   14.8138  106.1387 C   0  0  0  0  0  0
   21.4848   13.9238  107.0268 C   0  0  0  0  0  0
   20.3860   16.4993  106.5086 C   0  0  0  0  0  0
   19.7628   15.6573  107.4273 C   0  0  0  0  0  0
   20.3161   14.3622  107.6647 C   0  0  0  0  0  0
   19.4709   13.7370  108.5593 N   0  0  0  0  0  0
   18.6262   15.8027  108.2778 C   0  0  0  0  0  0
   18.4224   14.5672  108.8602 C   0  0  0  0  0  0
   17.2021   14.1731  109.6842 C   0  0  2  0  0  0
   16.2703   15.3425  109.6795 N   0  0  0  0  0  0
   16.9060   16.6704  109.8550 C   0  0  0  0  0  0
   17.6990   16.9782  108.5571 C   0  0  0  0  0  0
   17.5829   13.6517  111.0634 C   0  0  0  0  0  0
   16.9388   12.5326  111.5971 C   0  0  0  0  0  0
   17.2394   12.0982  112.8884 C   0  0  0  0  0  0
   18.2262   12.7457  113.6314 C   0  0  0  0  0  0
   18.9050   13.8269  113.0773 C   0  0  0  0  0  0
   18.5743   14.2925  111.8120 C   0  0  0  0  0  0
   19.9196   14.4248  113.7589 O   0  0  0  0  0  0
   22.3174   17.1618  104.8172 Cl  0  0  0  0  0  0
   14.9737   15.3077  109.2588 C   0  0  0  0  0  0
   14.2631   16.3204  109.2126 O   0  0  0  0  0  0
   14.3486   13.9623  108.7872 C   0  0  2  0  0  0
   14.7302   13.6429  107.3287 C   0  0  0  0  0  0
   12.8804   14.0059  108.9580 N   0  0  0  0  0  0
   22.9909   14.5170  105.6257 H   0  0  0  0  0  0
   21.9011   12.9418  107.1989 H   0  0  0  0  0  0
   19.9868   17.4820  106.3063 H   0  0  0  0  0  0
   19.5302   12.7931  108.9158 H   0  0  0  0  0  0
   16.7541   13.3222  109.1762 H   0  0  0  0  0  0
   17.5748   16.6234  110.7141 H   0  0  0  0  0  0
   16.1993   17.4488  110.1495 H   0  0  0  0  0  0
   18.2689   17.8986  108.6918 H   0  0  0  0  0  0
   17.0201   17.1623  107.7235 H   0  0  0  0  0  0
   16.1787   12.0143  111.0299 H   0  0  0  0  0  0
   16.7053   11.2595  113.3114 H   0  0  0  0  0  0
   18.4774   12.3969  114.6233 H   0  0  0  0  0  0
   19.1004   15.1422  111.4032 H   0  0  0  0  0  0
   20.3446   15.1265  113.2609 H   0  0  0  0  0  0
   14.7154   13.1677  109.4373 H   0  0  0  0  0  0
   15.8092   13.5830  107.1849 H   0  0  0  0  0  0
   14.3172   12.6823  107.0175 H   0  0  0  0  0  0
   14.3546   14.4025  106.6410 H   0  0  0  0  0  0
   12.6304   14.9627  109.1829 H   0  0  0  0  0  0
   12.4223   13.8131  108.0782 H   0  0  0  0  0  0
  1  2  2  0  0  0
  1  4  1  0  0  0
  1 21  1  0  0  0
  2  3  1  0  0  0
  2 27  1  0  0  0
  3  6  2  0  0  0
  3 28  1  0  0  0
  4  5  2  0  0  0
  4 29  1  0  0  0
  5  8  1  0  0  0
  5  6  1  0  0  0
  6  7  1  0  0  0
  7  9  1  0  0  0
  7 30  1  0  0  0
  8  9  2  0  0  0
  8 13  1  0  0  0
  9 10  1  0  0  0
 10 11  1  0  0  0
 10 14  1  0  0  0
 10 31  1  0  0  0
 11 12  1  0  0  0
 11 22  1  0  0  0
 12 13  1  0  0  0
 12 32  1  0  0  0
 12 33  1  0  0  0
 13 34  1  0  0  0
 13 35  1  0  0  0
 14 15  2  0  0  0
 14 19  1  0  0  0
 15 16  1  0  0  0
 15 36  1  0  0  0
 16 17  2  0  0  0
 16 37  1  0  0  0
 17 18  1  0  0  0
 17 38  1  0  0  0
 18 19  2  0  0  0
 18 20  1  0  0  0
 19 39  1  0  0  0
 20 40  1  0  0  0
 22 23  2  0  0  0
 22 24  1  0  0  0
 24 25  1  0  0  0
 24 26  1  0  0  0
 24 41  1  0  0  0
 25 42  1  0  0  0
 25 43  1  0  0  0
 25 44  1  0  0  0
 26 45  1  0  0  0
 26 46  1  0  0  0
M  END
> <s_m_entry_id>
242

> <s_m_entry_name>
dock_pv.241

> <s_m_Source_Path>
/home/csk/Desktop/cluster/DUD-E-result/kif11

> <s_m_Source_File>
dock_pv.maegz

> <i_m_Source_File_Index>
241

> <chembl_id>
CHEMBL1163525

> <chembl_pref_name>
None

> <i_lp_mmshare_version>
53161

> <i_f3d_flags>
0

> <r_lp_tautomer_probability>
0.999999999997365

> <s_lp_Force_Field>
OPLS_2005

> <r_lp_Energy>
25.246426

> <b_lp_Chiralities_Consistent>
1

> <s_lp_Variant>
CHEMBL4581_lig402-1

> <s_i_glide_gridfile>
glide-grid_3cjo

> <i_i_glide_lignum>
580

> <i_i_glide_rotatable_bonds>
4

> <r_i_docking_score>
-7.84474984712825

> <r_i_glide_ligand_efficiency>
-0.301721147966471

> <r_i_glide_ligand_efficiency_sa>
-0.893847713635283

> <r_i_glide_ligand_efficiency_ln>
-1.84231376087431

> <r_i_glide_gscore>
-7.84474984712825

> <r_i_glide_lipo>
-4.58316520038464

> <r_i_glide_hbond>
0

> <r_i_glide_metal>
0

> <r_i_glide_rewards>
-1.10165480243977

> <r_i_glide_evdw>
-38.6831474304199

> <r_i_glide_ecoul>
-3.38503670692444

> <r_i_glide_erotb>
0.281983033255813

> <r_i_glide_esite>
0

> <r_i_glide_emodel>
-59.7449517559122

> <r_i_glide_energy>
-42.0681841373444

> <r_i_glide_einternal>
5.09737634658813

> <i_i_glide_confnum>
3

> <i_i_glide_posenum>
110

> <r_i_glide_eff_state_penalty>
0

> <s_user_duplicate_titles>
CHEMBL4581_lig402,644787

> <s_m_subgroup_title>
dock_pv

> <s_m_subgroupid>
dock_pv

> <b_m_subgroup_collapsed>
1

$$$$
CHEMBL4581_lig590
                    3D
 Schrodinger Suite 2021-1.
 50 52  0  0  1  0            999 V2000
   15.8217   14.5288  103.9190 C   0  0  0  0  0  0
   16.7348   15.4748  104.7379 C   0  0  2  0  0  0
   16.2019   15.6877  106.1790 C   0  0  0  0  0  0
   14.7668   14.9044  103.4071 O   0  0  0  0  0  0
   16.3180   13.2602  103.8463 O   0  0  0  0  0  0
   16.4280   14.1922  107.2045 S   0  0  0  0  0  0
   17.5443   14.5989  108.6276 C   0  0  1  0  0  0
   17.2184   13.4039  109.6021 C   0  0  0  0  0  0
   17.7153   13.3849  111.0533 C   0  0  0  0  0  0
   18.6902   14.2558  111.5568 C   0  0  0  0  0  0
   19.0760   14.1767  112.8937 C   0  0  0  0  0  0
   18.4878   13.2289  113.7288 C   0  0  0  0  0  0
   17.5180   12.3620  113.2371 C   0  0  0  0  0  0
   17.1469   12.4286  111.8997 C   0  0  0  0  0  0
   19.0084   14.5721  108.0846 C   0  0  0  0  0  0
   19.3860   15.4406  107.0458 C   0  0  0  0  0  0
   20.6211   15.3295  106.4211 C   0  0  0  0  0  0
   21.5180   14.3620  106.8502 C   0  0  0  0  0  0
   21.2167   13.5620  107.9476 C   0  0  0  0  0  0
   19.9696   13.6617  108.5590 C   0  0  0  0  0  0
   23.0384   14.1976  106.0502 Cl  0  0  0  0  0  0
   17.1207   15.9443  109.2832 C   0  0  0  0  0  0
   15.7846   16.1526  109.6664 C   0  0  0  0  0  0
   15.3899   17.3336  110.2962 C   0  0  0  0  0  0
   16.3263   18.3299  110.5589 C   0  0  0  0  0  0
   17.6542   18.1486  110.1837 C   0  0  0  0  0  0
   18.0454   16.9713  109.5479 C   0  0  0  0  0  0
   13.7432   17.5620  110.7563 Cl  0  0  0  0  0  0
   16.8468   16.7444  103.9921 N   0  0  0  0  0  0
   17.7268   15.0237  104.7940 H   0  0  0  0  0  0
   15.1352   15.9180  106.1617 H   0  0  0  0  0  0
   16.6615   16.5509  106.6566 H   0  0  0  0  0  0
   17.2341   13.1620  104.1590 H   0  0  0  0  0  0
   16.1327   13.3227  109.6916 H   0  0  0  0  0  0
   17.5181   12.4594  109.1423 H   0  0  0  0  0  0
   19.1642   14.9894  110.9256 H   0  0  0  0  0  0
   19.8320   14.8443  113.2798 H   0  0  0  0  0  0
   18.7844   13.1620  114.7657 H   0  0  0  0  0  0
   17.0503   11.6356  113.8839 H   0  0  0  0  0  0
   16.3970   11.7450  111.5266 H   0  0  0  0  0  0
   18.7204   16.2032  106.6852 H   0  0  0  0  0  0
   20.8738   15.9821  105.5983 H   0  0  0  0  0  0
   21.9326   12.8313  108.2926 H   0  0  0  0  0  0
   19.7558   12.9729  109.3612 H   0  0  0  0  0  0
   15.0424   15.3910  109.4785 H   0  0  0  0  0  0
   16.0248   19.2395  111.0583 H   0  0  0  0  0  0
   18.3832   18.9181  110.3935 H   0  0  0  0  0  0
   19.0879   16.8678  109.2894 H   0  0  0  0  0  0
   16.3182   16.6708  103.1311 H   0  0  0  0  0  0
   16.4038   17.4908  104.5098 H   0  0  0  0  0  0
  1  2  1  0  0  0
  1  4  2  0  0  0
  1  5  1  0  0  0
  2  3  1  0  0  0
  2 29  1  0  0  0
  2 30  1  0  0  0
  3  6  1  0  0  0
  3 31  1  0  0  0
  3 32  1  0  0  0
  5 33  1  0  0  0
  6  7  1  0  0  0
  7  8  1  0  0  0
  7 15  1  0  0  0
  7 22  1  0  0  0
  8  9  1  0  0  0
  8 34  1  0  0  0
  8 35  1  0  0  0
  9 10  1  0  0  0
  9 14  2  0  0  0
 10 11  2  0  0  0
 10 36  1  0  0  0
 11 12  1  0  0  0
 11 37  1  0  0  0
 12 13  2  0  0  0
 12 38  1  0  0  0
 13 14  1  0  0  0
 13 39  1  0  0  0
 14 40  1  0  0  0
 15 16  1  0  0  0
 15 20  2  0  0  0
 16 17  2  0  0  0
 16 41  1  0  0  0
 17 18  1  0  0  0
 17 42  1  0  0  0
 18 19  2  0  0  0
 18 21  1  0  0  0
 19 20  1  0  0  0
 19 43  1  0  0  0
 20 44  1  0  0  0
 22 23  1  0  0  0
 22 27  2  0  0  0
 23 24  2  0  0  0
 23 45  1  0  0  0
 24 25  1  0  0  0
 24 28  1  0  0  0
 25 26  2  0  0  0
 25 46  1  0  0  0
 26 27  1  0  0  0
 26 47  1  0  0  0
 27 48  1  0  0  0
 29 49  1  0  0  0
 29 50  1  0  0  0
M  END
> <s_m_entry_id>
243

> <s_m_entry_name>
dock_pv.242

> <s_m_Source_Path>
/home/csk/Desktop/cluster/DUD-E-result/kif11

> <s_m_Source_File>
dock_pv.maegz

> <i_m_Source_File_Index>
242

> <chembl_id>
CHEMBL2043412

> <chembl_pref_name>
None

> <i_lp_mmshare_version>
53161

> <i_f3d_flags>
0

> <r_lp_tautomer_probability>
1

> <s_lp_Force_Field>
OPLS_2005

> <r_lp_Energy>
21.45645

> <b_lp_Chiralities_Consistent>
1

> <s_lp_Variant>
CHEMBL4581_lig590-2

> <s_i_glide_gridfile>
glide-grid_3cjo

> <i_i_glide_lignum>
905

> <i_i_glide_rotatable_bonds>
9

> <r_i_docking_score>
-7.84312581618815

> <r_i_glide_ligand_efficiency>
-0.270452614351315

> <r_i_glide_ligand_efficiency_sa>
-0.830916116689625

> <r_i_glide_ligand_efficiency_ln>
-1.79587692739661

> <r_i_glide_gscore>
-7.84312581618815

> <r_i_glide_lipo>
-5.04554941087149

> <r_i_glide_hbond>
0

> <r_i_glide_metal>
0

> <r_i_glide_rewards>
-0.465524499999999

> <r_i_glide_evdw>
-43.7850074768066

> <r_i_glide_ecoul>
-6.20412445068359

> <r_i_glide_erotb>
0.803598896412173

> <r_i_glide_esite>
-0.0157817602859584

> <r_i_glide_emodel>
-67.3456356193787

> <r_i_glide_energy>
-49.9891319274902

> <r_i_glide_einternal>
12.9326248168945

> <i_i_glide_confnum>
163

> <i_i_glide_posenum>
95

> <r_i_glide_eff_state_penalty>
0

> <s_user_duplicate_titles>
CHEMBL4581_lig590

> <s_m_subgroup_title>
dock_pv

> <s_m_subgroupid>
dock_pv

> <b_m_subgroup_collapsed>
1

$$$$
CHEMBL4581_lig772
                    3D
 Schrodinger Suite 2021-1.
 47 50  0  0  1  0            999 V2000
   16.9584   15.9169  108.4720 C   0  0  1  0  0  0
   16.8334   17.4045  108.9339 C   0  0  0  0  0  0
   15.6132   17.6577  109.8337 C   0  0  0  0  0  0
   14.4186   17.3078  109.1367 O   0  0  0  0  0  0
   17.8499   15.9620  106.9091 S   0  0  0  0  0  0
   19.3016   15.3358  107.7309 C   0  0  0  0  0  0
   19.1426   14.9413  108.9264 N   0  0  0  0  0  0
   17.8694   15.1369  109.3540 N   0  0  0  0  0  0
   20.5475   15.2862  106.9635 C   0  0  0  0  0  0
   20.8842   16.3691  106.1424 C   0  0  0  0  0  0
   22.0185   16.3208  105.3418 C   0  0  0  0  0  0
   22.8195   15.1805  105.3328 C   0  0  0  0  0  0
   22.5043   14.1040  106.1581 C   0  0  0  0  0  0
   21.3907   14.1639  106.9904 C   0  0  0  0  0  0
   17.4777   14.6338  110.5623 C   0  0  0  0  0  0
   16.3179   14.7269  110.9589 O   0  0  0  0  0  0
   18.5092   13.9316  111.4868 C   0  0  0  0  0  0
   21.1956   13.1620  107.8772 F   0  0  0  0  0  0
   22.3179   17.3749  104.5563 F   0  0  0  0  0  0
   15.5562   15.3233  108.2183 C   0  0  0  0  0  0
   14.3964   16.0428  108.5812 C   0  0  0  0  0  0
   13.1218   15.5311  108.3355 C   0  0  0  0  0  0
   12.9748   14.2897  107.7221 C   0  0  0  0  0  0
   14.1041   13.5610  107.3594 C   0  0  0  0  0  0
   15.3770   14.0639  107.6242 C   0  0  0  0  0  0
   17.9308   13.3228  112.7950 C   0  0  0  0  0  0
   17.0453   12.0861  112.5554 C   0  0  0  0  0  0
   16.3180   11.7015  113.7571 N   0  0  0  0  0  0
   16.7112   18.0652  108.0736 H   0  0  0  0  0  0
   17.7472   17.7416  109.4273 H   0  0  0  0  0  0
   15.5594   18.7130  110.1037 H   0  0  0  0  0  0
   15.6882   17.1017  110.7673 H   0  0  0  0  0  0
   20.2728   17.2608  106.1129 H   0  0  0  0  0  0
   23.6813   15.1291  104.6863 H   0  0  0  0  0  0
   23.1180   13.2184  106.1622 H   0  0  0  0  0  0
   19.0377   13.1601  110.9263 H   0  0  0  0  0  0
   19.2485   14.6854  111.7594 H   0  0  0  0  0  0
   12.2489   16.1053  108.6092 H   0  0  0  0  0  0
   11.9887   13.8944  107.5253 H   0  0  0  0  0  0
   13.9970   12.5929  106.8904 H   0  0  0  0  0  0
   16.2389   13.4731  107.3459 H   0  0  0  0  0  0
   18.7531   13.0375  113.4533 H   0  0  0  0  0  0
   17.3769   14.0910  113.3375 H   0  0  0  0  0  0
   16.3182   12.2789  111.7663 H   0  0  0  0  0  0
   17.6689   11.2627  112.2094 H   0  0  0  0  0  0
   15.8536   12.5086  114.1464 H   0  0  0  0  0  0
   15.5774   11.0641  113.4747 H   0  0  0  0  0  0
  1  2  1  0  0  0
  1 20  1  0  0  0
  1  8  1  0  0  0
  1  5  1  0  0  0
  2  3  1  0  0  0
  2 29  1  0  0  0
  2 30  1  0  0  0
  3  4  1  0  0  0
  3 31  1  0  0  0
  3 32  1  0  0  0
  4 21  1  0  0  0
  5  6  1  0  0  0
  6  7  2  0  0  0
  6  9  1  0  0  0
  7  8  1  0  0  0
  8 15  1  0  0  0
  9 10  2  0  0  0
  9 14  1  0  0  0
 10 11  1  0  0  0
 10 33  1  0  0  0
 11 12  2  0  0  0
 11 19  1  0  0  0
 12 13  1  0  0  0
 12 34  1  0  0  0
 13 14  2  0  0  0
 13 35  1  0  0  0
 14 18  1  0  0  0
 15 16  2  0  0  0
 15 17  1  0  0  0
 17 26  1  0  0  0
 17 36  1  0  0  0
 17 37  1  0  0  0
 20 21  2  0  0  0
 20 25  1  0  0  0
 21 22  1  0  0  0
 22 23  2  0  0  0
 22 38  1  0  0  0
 23 24  1  0  0  0
 23 39  1  0  0  0
 24 25  2  0  0  0
 24 40  1  0  0  0
 25 41  1  0  0  0
 26 27  1  0  0  0
 26 42  1  0  0  0
 26 43  1  0  0  0
 27 28  1  0  0  0
 27 44  1  0  0  0
 27 45  1  0  0  0
 28 46  1  0  0  0
 28 47  1  0  0  0
M  END
> <s_m_entry_id>
244

> <s_m_entry_name>
dock_pv.243

> <s_m_Source_Path>
/home/csk/Desktop/cluster/DUD-E-result/kif11

> <s_m_Source_File>
dock_pv.maegz

> <i_m_Source_File_Index>
243

> <chembl_id>
CHEMBL3402350

> <chembl_pref_name>
None

> <i_lp_mmshare_version>
53161

> <i_f3d_flags>
0

> <r_lp_tautomer_probability>
1

> <s_lp_Force_Field>
OPLS_2005

> <r_lp_Energy>
23.747852

> <b_lp_Chiralities_Consistent>
1

> <s_lp_Variant>
CHEMBL4581_lig772-2

> <s_i_glide_gridfile>
glide-grid_3cjo

> <i_i_glide_lignum>
1150

> <i_i_glide_rotatable_bonds>
5

> <r_i_docking_score>
-7.84269522605996

> <r_i_glide_ligand_efficiency>
-0.28009625807357

> <r_i_glide_ligand_efficiency_sa>
-0.850537207385121

> <r_i_glide_ligand_efficiency_ln>
-1.8103243297124

> <r_i_glide_gscore>
-7.84269522605996

> <r_i_glide_lipo>
-3.39347594668156

> <r_i_glide_hbond>
-0.274066988023917

> <r_i_glide_metal>
0

> <r_i_glide_rewards>
-2.21161265803842

> <r_i_glide_evdw>
-33.9003257751465

> <r_i_glide_ecoul>
-5.00674343109131

> <r_i_glide_erotb>
0.482488170104962

> <r_i_glide_esite>
0

> <r_i_glide_emodel>
-54.9045168438843

> <r_i_glide_energy>
-38.9070692062378

> <r_i_glide_einternal>
1.81613349914551

> <i_i_glide_confnum>
47

> <i_i_glide_posenum>
242

> <r_i_glide_eff_state_penalty>
0

> <s_user_duplicate_titles>
CHEMBL4581_lig772

> <s_m_subgroup_title>
dock_pv

> <s_m_subgroupid>
dock_pv

> <b_m_subgroup_collapsed>
1

$$$$
CHEMBL4581_lig455
                    3D
 Schrodinger Suite 2021-1.
 53 55  0  0  1  0            999 V2000
   17.6308   14.8985  109.2050 C   0  0  0  0  0  0
   16.6732   13.5305  108.3865 S   0  0  0  0  0  0
   16.6633   16.1322  109.2822 C   0  0  0  0  0  0
   18.9048   15.1374  108.3357 C   0  0  0  0  0  0
   18.0659   14.4429  110.6413 C   0  0  0  0  0  0
   19.8640   14.1186  108.2367 C   0  0  0  0  0  0
   20.9419   14.2261  107.3613 C   0  0  0  0  0  0
   21.0917   15.3607  106.5595 C   0  0  0  0  0  0
   20.1742   16.3979  106.6917 C   0  0  0  0  0  0
   19.1151   16.3100  107.5932 C   0  0  0  0  0  0
   16.3613   16.7704  110.5014 C   0  0  0  0  0  0
   15.4949   17.8571  110.5536 C   0  0  0  0  0  0
   14.8952   18.3184  109.3863 C   0  0  0  0  0  0
   15.1628   17.7038  108.1690 C   0  0  0  0  0  0
   16.0359   16.6200  108.1222 C   0  0  0  0  0  0
   19.1132   15.1214  111.2855 C   0  0  0  0  0  0
   19.5171   14.7618  112.5658 C   0  0  0  0  0  0
   18.8935   13.7064  113.2224 C   0  0  0  0  0  0
   17.8720   13.0033  112.5986 C   0  0  0  0  0  0
   17.4564   13.3708  111.3245 C   0  0  0  0  0  0
   16.9253   13.6463  106.5766 C   0  0  0  0  0  0
   15.5832   13.6945  105.8116 C   0  0  1  0  0  0
   15.6429   14.6187  104.5756 C   0  0  0  0  0  0
   16.7179   14.3613  103.7722 O   0  0  0  0  0  0
   14.7985   15.4885  104.3737 O   0  0  0  0  0  0
   15.1491   12.3599  105.3594 N   0  0  0  0  0  0
   22.2299   15.5255  105.5529 C   0  0  0  0  0  0
   23.2509   14.3820  105.4787 C   0  0  0  0  0  0
   19.7470   13.2073  108.8070 H   0  0  0  0  0  0
   21.6389   13.4031  107.3064 H   0  0  0  0  0  0
   20.2875   17.2979  106.1051 H   0  0  0  0  0  0
   18.4596   17.1611  107.6738 H   0  0  0  0  0  0
   16.7974   16.4472  111.4312 H   0  0  0  0  0  0
   15.2903   18.3414  111.4977 H   0  0  0  0  0  0
   14.2203   19.1611  109.4278 H   0  0  0  0  0  0
   14.7001   18.0658  107.2627 H   0  0  0  0  0  0
   16.2315   16.1728  107.1606 H   0  0  0  0  0  0
   19.6056   15.9531  110.8021 H   0  0  0  0  0  0
   20.3214   15.2960  113.0467 H   0  0  0  0  0  0
   19.2135   13.4240  114.2135 H   0  0  0  0  0  0
   17.3923   12.1824  113.1090 H   0  0  0  0  0  0
   16.6422   12.8082  110.8935 H   0  0  0  0  0  0
   17.5341   14.5141  106.3381 H   0  0  0  0  0  0
   17.5186   12.7837  106.2671 H   0  0  0  0  0  0
   14.8335   14.1197  106.4821 H   0  0  0  0  0  0
   17.2958   13.6667  104.1193 H   0  0  0  0  0  0
   15.3041   11.6750  106.0961 H   0  0  0  0  0  0
   14.1598   12.3401  105.1505 H   0  0  0  0  0  0
   21.7880   15.6552  104.5675 H   0  0  0  0  0  0
   22.7544   16.4573  105.7723 H   0  0  0  0  0  0
   23.9166   14.5163  104.6249 H   0  0  0  0  0  0
   23.8611   14.3626  106.3779 H   0  0  0  0  0  0
   22.7662   13.4110  105.3585 H   0  0  0  0  0  0
  1  4  1  0  0  0
  1  5  1  0  0  0
  1  3  1  0  0  0
  1  2  1  0  0  0
  2 21  1  0  0  0
  3 15  1  0  0  0
  3 11  2  0  0  0
  4 10  1  0  0  0
  4  6  2  0  0  0
  5 16  2  0  0  0
  5 20  1  0  0  0
  6  7  1  0  0  0
  6 29  1  0  0  0
  7  8  2  0  0  0
  7 30  1  0  0  0
  8  9  1  0  0  0
  8 27  1  0  0  0
  9 10  2  0  0  0
  9 31  1  0  0  0
 10 32  1  0  0  0
 11 12  1  0  0  0
 11 33  1  0  0  0
 12 13  2  0  0  0
 12 34  1  0  0  0
 13 14  1  0  0  0
 13 35  1  0  0  0
 14 15  2  0  0  0
 14 36  1  0  0  0
 15 37  1  0  0  0
 16 17  1  0  0  0
 16 38  1  0  0  0
 17 18  2  0  0  0
 17 39  1  0  0  0
 18 19  1  0  0  0
 18 40  1  0  0  0
 19 20  2  0  0  0
 19 41  1  0  0  0
 20 42  1  0  0  0
 21 22  1  0  0  0
 21 43  1  0  0  0
 21 44  1  0  0  0
 22 23  1  0  0  0
 22 26  1  0  0  0
 22 45  1  0  0  0
 23 24  1  0  0  0
 23 25  2  0  0  0
 24 46  1  0  0  0
 26 47  1  0  0  0
 26 48  1  0  0  0
 27 28  1  0  0  0
 27 49  1  0  0  0
 27 50  1  0  0  0
 28 51  1  0  0  0
 28 52  1  0  0  0
 28 53  1  0  0  0
M  END
> <s_m_entry_id>
245

> <s_m_entry_name>
dock_pv.244

> <s_m_Source_Path>
/home/csk/Desktop/cluster/DUD-E-result/kif11

> <s_m_Source_File>
dock_pv.maegz

> <i_m_Source_File_Index>
244

> <chembl_id>
CHEMBL1688921

> <chembl_pref_name>
None

> <i_lp_mmshare_version>
53161

> <i_f3d_flags>
0

> <r_lp_tautomer_probability>
1

> <s_lp_Force_Field>
OPLS_2005

> <r_lp_Energy>
20.637413

> <b_lp_Chiralities_Consistent>
1

> <s_lp_Variant>
CHEMBL4581_lig455-1

> <s_i_glide_gridfile>
glide-grid_3cjo

> <i_i_glide_lignum>
678

> <i_i_glide_rotatable_bonds>
9

> <r_i_docking_score>
-7.84118523113826

> <r_i_glide_ligand_efficiency>
-0.280042329683509

> <r_i_glide_ligand_efficiency_sa>
-0.850373449030773

> <r_i_glide_ligand_efficiency_ln>
-1.80997577854909

> <r_i_glide_gscore>
-7.84118523113826

> <r_i_glide_lipo>
-4.4625600726945

> <r_i_glide_hbond>
-0.304107793734132

> <r_i_glide_metal>
0

> <r_i_glide_rewards>
-0.808587428407992

> <r_i_glide_evdw>
-41.979621887207

> <r_i_glide_ecoul>
-6.99357509613037

> <r_i_glide_erotb>
0.891159471452689

> <r_i_glide_esite>
-0.00907204897441527

> <r_i_glide_emodel>
-68.7182758599361

> <r_i_glide_energy>
-48.9731969833374

> <r_i_glide_einternal>
10.1075487136841

> <i_i_glide_confnum>
32

> <i_i_glide_posenum>
249

> <r_i_glide_eff_state_penalty>
0

> <s_user_duplicate_titles>
CHEMBL4581_lig455

> <s_m_subgroup_title>
dock_pv

> <s_m_subgroupid>
dock_pv

> <b_m_subgroup_collapsed>
1

$$$$
CHEMBL4581_lig481
                    3D
 Schrodinger Suite 2021-1.
 48 50  0  0  1  0            999 V2000
   17.9173   16.8878  109.5856 S   0  0  0  0  0  0
   16.7049   17.2751  110.8821 C   0  0  0  0  0  0
   15.4358   17.9491  110.3414 C   0  0  0  0  0  0
   17.9879   15.0362  109.3708 C   0  0  0  0  0  0
   19.2705   14.7700  108.5168 C   0  0  0  0  0  0
   18.1150   14.3562  110.7748 C   0  0  0  0  0  0
   20.2003   13.7754  108.8586 C   0  0  0  0  0  0
   21.3070   13.5365  108.0534 C   0  0  0  0  0  0
   21.5180   14.2676  106.8883 C   0  0  0  0  0  0
   20.6178   15.2817  106.5497 C   0  0  0  0  0  0
   19.5135   15.5284  107.3562 C   0  0  0  0  0  0
   18.9822   14.8913  111.7444 C   0  0  0  0  0  0
   19.1042   14.3043  113.0001 C   0  0  0  0  0  0
   18.3638   13.1671  113.3059 C   0  0  0  0  0  0
   17.5179   12.6023  112.3577 C   0  0  0  0  0  0
   17.3986   13.1903  111.1008 C   0  0  0  0  0  0
   16.7011   14.5748  108.5979 C   0  0  0  0  0  0
   15.4304   14.7424  109.1719 C   0  0  0  0  0  0
   14.2716   14.3605  108.5052 C   0  0  0  0  0  0
   14.3626   13.7741  107.2486 C   0  0  0  0  0  0
   15.6052   13.5625  106.6639 C   0  0  0  0  0  0
   16.7607   13.9552  107.3328 C   0  0  0  0  0  0
   22.6474   13.9457  106.1613 O   0  0  0  0  0  0
   23.0233   14.7569  105.0558 C   0  0  0  0  0  0
   14.4044   17.9619  111.3590 N   0  0  0  0  0  0
   16.4669   16.3762  111.4467 H   0  0  0  0  0  0
   17.1895   17.9468  111.5914 H   0  0  0  0  0  0
   15.6587   18.9684  110.0246 H   0  0  0  0  0  0
   15.0529   17.4253  109.4648 H   0  0  0  0  0  0
   20.0697   13.1557  109.7331 H   0  0  0  0  0  0
   22.0080   12.7620  108.3213 H   0  0  0  0  0  0
   20.7540   15.8798  105.6619 H   0  0  0  0  0  0
   18.8239   16.3025  107.0530 H   0  0  0  0  0  0
   19.5717   15.7691  111.5238 H   0  0  0  0  0  0
   19.7722   14.7279  113.7350 H   0  0  0  0  0  0
   18.4551   12.7138  114.2827 H   0  0  0  0  0  0
   16.9516   11.7118  112.5909 H   0  0  0  0  0  0
   16.7483   12.7114  110.3828 H   0  0  0  0  0  0
   15.3176   15.1590  110.1572 H   0  0  0  0  0  0
   13.3065   14.5086  108.9644 H   0  0  0  0  0  0
   13.4657   13.4664  106.7318 H   0  0  0  0  0  0
   15.6758   13.0833  105.6987 H   0  0  0  0  0  0
   17.6961   13.7453  106.8390 H   0  0  0  0  0  0
   23.9180   14.3403  104.5972 H   0  0  0  0  0  0
   22.2602   14.7763  104.2819 H   0  0  0  0  0  0
   23.2466   15.7786  105.3669 H   0  0  0  0  0  0
   14.7760   18.3766  112.2089 H   0  0  0  0  0  0
   13.6404   18.5563  111.0634 H   0  0  0  0  0  0
  1  2  1  0  0  0
  1  4  1  0  0  0
  2  3  1  0  0  0
  2 26  1  0  0  0
  2 27  1  0  0  0
  3 25  1  0  0  0
  3 28  1  0  0  0
  3 29  1  0  0  0
  4 17  1  0  0  0
  4  5  1  0  0  0
  4  6  1  0  0  0
  5  7  2  0  0  0
  5 11  1  0  0  0
  6 16  1  0  0  0
  6 12  2  0  0  0
  7  8  1  0  0  0
  7 30  1  0  0  0
  8  9  2  0  0  0
  8 31  1  0  0  0
  9 10  1  0  0  0
  9 23  1  0  0  0
 10 11  2  0  0  0
 10 32  1  0  0  0
 11 33  1  0  0  0
 12 13  1  0  0  0
 12 34  1  0  0  0
 13 14  2  0  0  0
 13 35  1  0  0  0
 14 15  1  0  0  0
 14 36  1  0  0  0
 15 16  2  0  0  0
 15 37  1  0  0  0
 16 38  1  0  0  0
 17 18  2  0  0  0
 17 22  1  0  0  0
 18 19  1  0  0  0
 18 39  1  0  0  0
 19 20  2  0  0  0
 19 40  1  0  0  0
 20 21  1  0  0  0
 20 41  1  0  0  0
 21 22  2  0  0  0
 21 42  1  0  0  0
 22 43  1  0  0  0
 23 24  1  0  0  0
 24 44  1  0  0  0
 24 45  1  0  0  0
 24 46  1  0  0  0
 25 47  1  0  0  0
 25 48  1  0  0  0
M  END
> <s_m_entry_id>
246

> <s_m_entry_name>
dock_pv.245

> <s_m_Source_Path>
/home/csk/Desktop/cluster/DUD-E-result/kif11

> <s_m_Source_File>
dock_pv.maegz

> <i_m_Source_File_Index>
245

> <chembl_id>
CHEMBL1818529

> <chembl_pref_name>
None

> <i_lp_mmshare_version>
53161

> <i_f3d_flags>
0

> <r_lp_tautomer_probability>
1

> <s_lp_Force_Field>
OPLS_2005

> <r_lp_Energy>
28.386721

> <b_lp_Chiralities_Consistent>
1

> <s_lp_Variant>
CHEMBL4581_lig481-1

> <s_i_glide_gridfile>
glide-grid_3cjo

> <i_i_glide_lignum>
704

> <i_i_glide_rotatable_bonds>
7

> <r_i_docking_score>
-7.84083501308747

> <r_i_glide_ligand_efficiency>
-0.313633400523499

> <r_i_glide_ligand_efficiency_sa>
-0.917069625442753

> <r_i_glide_ligand_efficiency_ln>
-1.85851286896609

> <r_i_glide_gscore>
-7.84083501308747

> <r_i_glide_lipo>
-4.64390514553791

> <r_i_glide_hbond>
-0.32

> <r_i_glide_metal>
0

> <r_i_glide_rewards>
-1.14233581500476

> <r_i_glide_evdw>
-43.0607681274414

> <r_i_glide_ecoul>
-2.40901136398315

> <r_i_glide_erotb>
0.779796058424741

> <r_i_glide_esite>
0

> <r_i_glide_emodel>
-62.4854558842779

> <r_i_glide_energy>
-45.4697794914246

> <r_i_glide_einternal>
6.12213659286499

> <i_i_glide_confnum>
68

> <i_i_glide_posenum>
269

> <r_i_glide_eff_state_penalty>
0

> <s_user_duplicate_titles>
CHEMBL4581_lig481

> <s_m_subgroup_title>
dock_pv

> <s_m_subgroupid>
dock_pv

> <b_m_subgroup_collapsed>
1

$$$$
CHEMBL4581_lig893
                    3D
 Schrodinger Suite 2021-1.
 53 55  0  0  1  0            999 V2000
   18.1527   15.6364  108.4302 C   0  0  2  0  0  0
   19.5149   15.3881  107.6917 C   0  0  0  0  0  0
   17.9896   14.6685  109.6522 C   0  0  0  0  0  0
   20.2967   14.2426  107.9278 C   0  0  0  0  0  0
   21.4205   13.9620  107.1525 C   0  0  0  0  0  0
   21.8160   14.8537  106.1573 C   0  0  0  0  0  0
   21.0817   16.0150  105.9312 C   0  0  0  0  0  0
   19.9412   16.2728  106.6848 C   0  0  0  0  0  0
   17.0167   13.6532  109.6907 C   0  0  0  0  0  0
   16.8715   12.8427  110.8114 C   0  0  0  0  0  0
   17.6580   13.0447  111.9401 C   0  0  0  0  0  0
   18.6451   14.0374  111.9144 C   0  0  0  0  0  0
   18.8147   14.8260  110.7796 C   0  0  0  0  0  0
   17.0542   15.4143  107.3336 C   0  0  0  0  0  0
   16.0625   16.3635  107.0368 C   0  0  0  0  0  0
   15.1196   16.1327  106.0380 C   0  0  0  0  0  0
   15.1586   14.9496  105.3085 C   0  0  0  0  0  0
   16.1397   13.9994  105.5658 C   0  0  0  0  0  0
   17.0800   14.2355  106.5632 C   0  0  0  0  0  0
   18.1760   17.1285  108.9865 C   0  0  0  0  0  0
   17.0839   17.7596  109.9203 C   0  0  0  0  0  0
   15.9756   16.8262  110.4781 C   0  0  0  0  0  0
   14.9661   17.5621  111.2317 N   0  0  0  0  0  0
   23.0418   14.5558  105.3178 C   0  0  0  0  0  0
   17.3912   12.2402  113.0284 O   0  0  0  0  0  0
   17.8696   12.6382  114.3078 C   0  0  0  0  0  0
   17.7113   18.3157  110.9591 F   0  0  0  0  0  0
   16.5169   18.7785  109.2669 F   0  0  0  0  0  0
   20.0127   13.5116  108.6694 H   0  0  0  0  0  0
   21.9827   13.0564  107.3293 H   0  0  0  0  0  0
   21.3774   16.7087  105.1574 H   0  0  0  0  0  0
   19.3776   17.1601  106.4459 H   0  0  0  0  0  0
   16.3422   13.4724  108.8698 H   0  0  0  0  0  0
   16.1173   12.0700  110.8184 H   0  0  0  0  0  0
   19.2892   14.2084  112.7628 H   0  0  0  0  0  0
   19.5911   15.5762  110.7936 H   0  0  0  0  0  0
   15.9975   17.3012  107.5572 H   0  0  0  0  0  0
   14.3628   16.8742  105.8280 H   0  0  0  0  0  0
   14.4272   14.7700  104.5338 H   0  0  0  0  0  0
   16.1819   13.0844  104.9923 H   0  0  0  0  0  0
   17.8369   13.4842  106.7367 H   0  0  0  0  0  0
   19.1183   17.2646  109.5058 H   0  0  0  0  0  0
   18.2873   17.8214  108.1590 H   0  0  0  0  0  0
   15.4754   16.2909  109.6721 H   0  0  0  0  0  0
   16.4057   16.0814  111.1449 H   0  0  0  0  0  0
   14.2671   16.9494  111.6219 H   0  0  0  0  0  0
   15.3900   18.0703  112.0026 H   0  0  0  0  0  0
   23.1121   13.4900  105.0998 H   0  0  0  0  0  0
   23.0077   15.0720  104.3575 H   0  0  0  0  0  0
   23.9358   14.8586  105.8585 H   0  0  0  0  0  0
   17.4761   11.9624  115.0664 H   0  0  0  0  0  0
   18.9584   12.6042  114.3679 H   0  0  0  0  0  0
   17.5180   13.6401  114.5578 H   0  0  0  0  0  0
  1  2  1  0  0  0
  1  3  1  0  0  0
  1 14  1  0  0  0
  1 20  1  0  0  0
  2  4  2  0  0  0
  2  8  1  0  0  0
  3  9  2  0  0  0
  3 13  1  0  0  0
  4  5  1  0  0  0
  4 29  1  0  0  0
  5  6  2  0  0  0
  5 30  1  0  0  0
  6  7  1  0  0  0
  6 24  1  0  0  0
  7  8  2  0  0  0
  7 31  1  0  0  0
  8 32  1  0  0  0
  9 10  1  0  0  0
  9 33  1  0  0  0
 10 11  2  0  0  0
 10 34  1  0  0  0
 11 12  1  0  0  0
 11 25  1  0  0  0
 12 13  2  0  0  0
 12 35  1  0  0  0
 13 36  1  0  0  0
 14 15  2  0  0  0
 14 19  1  0  0  0
 15 16  1  0  0  0
 15 37  1  0  0  0
 16 17  2  0  0  0
 16 38  1  0  0  0
 17 18  1  0  0  0
 17 39  1  0  0  0
 18 19  2  0  0  0
 18 40  1  0  0  0
 19 41  1  0  0  0
 20 21  1  0  0  0
 20 42  1  0  0  0
 20 43  1  0  0  0
 21 22  1  0  0  0
 21 27  1  0  0  0
 21 28  1  0  0  0
 22 23  1  0  0  0
 22 44  1  0  0  0
 22 45  1  0  0  0
 23 46  1  0  0  0
 23 47  1  0  0  0
 24 48  1  0  0  0
 24 49  1  0  0  0
 24 50  1  0  0  0
 25 26  1  0  0  0
 26 51  1  0  0  0
 26 52  1  0  0  0
 26 53  1  0  0  0
M  END
> <s_m_entry_id>
247

> <s_m_entry_name>
dock_pv.246

> <s_m_Source_Path>
/home/csk/Desktop/cluster/DUD-E-result/kif11

> <s_m_Source_File>
dock_pv.maegz

> <i_m_Source_File_Index>
246

> <chembl_id>
CHEMBL2325427

> <chembl_pref_name>
None

> <i_lp_mmshare_version>
53161

> <i_f3d_flags>
0

> <r_lp_tautomer_probability>
1

> <s_lp_Force_Field>
OPLS_2005

> <r_lp_Energy>
38.557045

> <b_lp_Chiralities_Consistent>
1

> <s_lp_Variant>
CHEMBL4581_lig893-1

> <s_i_glide_gridfile>
glide-grid_3cjo

> <i_i_glide_lignum>
1295

> <i_i_glide_rotatable_bonds>
7

> <r_i_docking_score>
-7.84080499460506

> <r_i_glide_ligand_efficiency>
-0.280028749807323

> <r_i_glide_ligand_efficiency_sa>
-0.850332212528554

> <r_i_glide_ligand_efficiency_ln>
-1.809888008793

> <r_i_glide_gscore>
-7.84080499460506

> <r_i_glide_lipo>
-4.50759896036879

> <r_i_glide_hbond>
-0.285886262397167

> <r_i_glide_metal>
0

> <r_i_glide_rewards>
-1.38390440937189

> <r_i_glide_evdw>
-42.4702415466309

> <r_i_glide_ecoul>
-1.37940335273743

> <r_i_glide_erotb>
0.667007217774942

> <r_i_glide_esite>
0

> <r_i_glide_emodel>
-61.4031554596542

> <r_i_glide_energy>
-43.8496448993683

> <r_i_glide_einternal>
4.59617567062378

> <i_i_glide_confnum>
59

> <i_i_glide_posenum>
332

> <r_i_glide_eff_state_penalty>
0

> <s_user_duplicate_titles>
CHEMBL4581_lig893

> <s_m_subgroup_title>
dock_pv

> <s_m_subgroupid>
dock_pv

> <b_m_subgroup_collapsed>
1

$$$$
CHEMBL4581_lig58
                    3D
 Schrodinger Suite 2021-1.
 47 49  0  0  1  0            999 V2000
   21.9180   16.3565  105.1382 C   0  0  0  0  0  0
   22.2477   15.2528  105.9165 C   0  0  0  0  0  0
   21.2755   14.6376  106.7060 C   0  0  0  0  0  0
   19.9470   15.0859  106.7024 C   0  0  0  0  0  0
   19.6046   16.0825  105.7734 C   0  0  0  0  0  0
   20.5898   16.7620  105.0568 C   0  0  0  0  0  0
   18.9419   14.5301  107.6501 C   0  0  0  0  0  0
   17.5263   15.0446  107.7804 C   0  0  0  0  0  0
   16.8690   14.1554  108.7278 N   0  0  0  0  0  0
   17.8843   13.2885  109.3393 C   0  0  1  0  0  0
   19.1507   13.5620  108.5590 C   0  0  0  0  0  0
   18.0613   13.4420  110.8516 C   0  0  0  0  0  0
   18.9899   14.3412  111.3973 C   0  0  0  0  0  0
   19.2072   14.3808  112.7731 C   0  0  0  0  0  0
   18.4782   13.5438  113.6136 C   0  0  0  0  0  0
   17.5180   12.6900  113.0859 C   0  0  0  0  0  0
   17.3389   12.6077  111.7099 C   0  0  0  0  0  0
   15.5334   13.9265  108.8758 C   0  0  0  0  0  0
   15.1180   13.5620  109.9748 O   0  0  0  0  0  0
   18.3118   16.3620  105.5062 F   0  0  0  0  0  0
   23.5180   14.7968  105.9359 F   0  0  0  0  0  0
   16.7180   11.9620  113.9195 O   0  0  0  0  0  0
   14.6536   14.0989  107.8402 N   0  0  0  0  0  0
   13.2326   14.3482  108.1261 C   0  0  0  0  0  0
   14.9106   14.0644  106.3846 C   0  0  0  0  0  0
   15.7904   12.9132  105.8477 C   0  0  0  0  0  0
   16.3180   13.2992  104.5971 O   0  0  0  0  0  0
   22.6787   16.8543  104.5567 H   0  0  0  0  0  0
   21.5863   13.8256  107.3447 H   0  0  0  0  0  0
   20.3140   17.5620  104.3863 H   0  0  0  0  0  0
   17.0428   15.0603  106.8169 H   0  0  0  0  0  0
   17.5094   16.0698  108.1520 H   0  0  0  0  0  0
   17.5796   12.2561  109.1609 H   0  0  0  0  0  0
   20.0570   13.0036  108.7378 H   0  0  0  0  0  0
   19.5620   14.9973  110.7578 H   0  0  0  0  0  0
   19.9432   15.0558  113.1843 H   0  0  0  0  0  0
   18.6500   13.5614  114.6735 H   0  0  0  0  0  0
   16.6095   11.9147  111.3146 H   0  0  0  0  0  0
   16.9539   12.0689  114.8434 H   0  0  0  0  0  0
   13.0109   14.4426  109.1903 H   0  0  0  0  0  0
   12.9096   15.2730  107.6466 H   0  0  0  0  0  0
   12.6220   13.5340  107.7338 H   0  0  0  0  0  0
   15.2688   15.0403  106.0589 H   0  0  0  0  0  0
   13.9532   13.9686  105.8698 H   0  0  0  0  0  0
   15.2578   11.9621  105.8183 H   0  0  0  0  0  0
   16.6542   12.7389  106.4872 H   0  0  0  0  0  0
   17.2633   13.0678  104.5589 H   0  0  0  0  0  0
  1  6  1  0  0  0
  1  2  2  0  0  0
  1 28  1  0  0  0
  2 21  1  0  0  0
  2  3  1  0  0  0
  3  4  2  0  0  0
  3 29  1  0  0  0
  4  7  1  0  0  0
  4  5  1  0  0  0
  5 20  1  0  0  0
  5  6  2  0  0  0
  6 30  1  0  0  0
  7  8  1  0  0  0
  7 11  2  0  0  0
  8  9  1  0  0  0
  8 31  1  0  0  0
  8 32  1  0  0  0
  9 10  1  0  0  0
  9 18  1  0  0  0
 10 11  1  0  0  0
 10 12  1  0  0  0
 10 33  1  0  0  0
 11 34  1  0  0  0
 12 13  2  0  0  0
 12 17  1  0  0  0
 13 14  1  0  0  0
 13 35  1  0  0  0
 14 15  2  0  0  0
 14 36  1  0  0  0
 15 16  1  0  0  0
 15 37  1  0  0  0
 16 17  2  0  0  0
 16 22  1  0  0  0
 17 38  1  0  0  0
 18 19  2  0  0  0
 18 23  1  0  0  0
 22 39  1  0  0  0
 23 24  1  0  0  0
 23 25  1  0  0  0
 24 40  1  0  0  0
 24 41  1  0  0  0
 24 42  1  0  0  0
 25 26  1  0  0  0
 25 43  1  0  0  0
 25 44  1  0  0  0
 26 27  1  0  0  0
 26 45  1  0  0  0
 26 46  1  0  0  0
 27 47  1  0  0  0
M  END
> <s_m_entry_id>
248

> <s_m_entry_name>
dock_pv.247

> <s_m_Source_Path>
/home/csk/Desktop/cluster/DUD-E-result/kif11

> <s_m_Source_File>
dock_pv.maegz

> <i_m_Source_File_Index>
247

> <chembl_id>
CHEMBL206798

> <chembl_pref_name>
None

> <i_lp_mmshare_version>
53161

> <i_f3d_flags>
0

> <r_lp_tautomer_probability>
0.999999999997365

> <s_lp_Force_Field>
OPLS_2005

> <r_lp_Energy>
51.804895

> <b_lp_Chiralities_Consistent>
1

> <s_lp_Variant>
CHEMBL4581_lig58-1

> <s_i_glide_gridfile>
glide-grid_3cjo

> <i_i_glide_lignum>
88

> <i_i_glide_rotatable_bonds>
8

> <r_i_docking_score>
-7.83987959180268

> <r_i_glide_ligand_efficiency>
-0.290365910807507

> <r_i_glide_ligand_efficiency_sa>
-0.871097731465522

> <r_i_glide_ligand_efficiency_ln>
-1.82499471845512

> <r_i_glide_gscore>
-7.83987959180268

> <r_i_glide_lipo>
-4.069432956185

> <r_i_glide_hbond>
-0.16

> <r_i_glide_metal>
0

> <r_i_glide_rewards>
-1.68701839312508

> <r_i_glide_evdw>
-37.1611862182617

> <r_i_glide_ecoul>
-5.95382928848267

> <r_i_glide_erotb>
0.827705461692877

> <r_i_glide_esite>
0

> <r_i_glide_emodel>
-61.4621619450434

> <r_i_glide_energy>
-43.1150155067444

> <r_i_glide_einternal>
6.42474222183228

> <i_i_glide_confnum>
34

> <i_i_glide_posenum>
32

> <r_i_glide_eff_state_penalty>
0

> <s_user_duplicate_titles>
CHEMBL4581_lig58,344078

> <s_m_subgroup_title>
dock_pv

> <s_m_subgroupid>
dock_pv

> <b_m_subgroup_collapsed>
1

$$$$
CHEMBL4581_lig795
                    3D
 Schrodinger Suite 2021-1.
 57 59  0  0  1  0            999 V2000
   16.2630   13.8851  105.9633 C   0  0  2  0  0  0
   14.9710   13.5286  105.1766 C   0  0  0  0  0  0
   14.3999   14.3799  104.4903 O   0  0  0  0  0  0
   15.9075   14.5641  107.3176 C   0  0  0  0  0  0
   17.1180   14.7614  105.1331 N   0  0  0  0  0  0
   16.4639   13.5619  108.7403 S   0  0  0  0  0  0
   17.7229   14.5638  109.6743 C   0  0  0  0  0  0
   17.9990   13.9366  111.0811 C   0  0  0  0  0  0
   18.9266   14.5625  111.9321 C   0  0  0  0  0  0
   19.1254   14.1180  113.2356 C   0  0  0  0  0  0
   18.4160   13.0221  113.7093 C   0  0  0  0  0  0
   17.5175   12.3627  112.8791 C   0  0  0  0  0  0
   17.3148   12.8087  111.5768 C   0  0  0  0  0  0
   18.9836   14.5378  108.7526 C   0  0  0  0  0  0
   19.0974   15.4295  107.6705 C   0  0  0  0  0  0
   20.1563   15.3504  106.7711 C   0  0  0  0  0  0
   21.1441   14.3927  106.9610 C   0  0  0  0  0  0
   21.1115   13.5621  108.0810 C   0  0  0  0  0  0
   20.0272   13.6188  108.9580 C   0  0  0  0  0  0
   17.1784   15.9953  109.9641 C   0  0  0  0  0  0
   18.0549   17.0903  110.0425 C   0  0  0  0  0  0
   17.5874   18.3604  110.3464 C   0  0  0  0  0  0
   16.2292   18.5673  110.5593 C   0  0  0  0  0  0
   15.3374   17.5017  110.4853 C   0  0  0  0  0  0
   15.8122   16.2254  110.1951 C   0  0  0  0  0  0
   14.4955   12.2812  105.3735 N   0  0  0  0  0  0
   13.2095   11.7326  104.9129 C   0  0  2  0  0  0
   13.1055   11.5741  103.3795 C   0  0  0  0  0  0
   12.0376   12.5711  105.4666 C   0  0  0  0  0  0
   12.9844   12.4878  102.5938 O   0  0  0  0  0  0
   13.1176   10.2552  103.0380 O   0  0  0  0  0  0
   16.8241   12.9679  106.1498 H   0  0  0  0  0  0
   16.3006   15.5755  107.3842 H   0  0  0  0  0  0
   14.8305   14.6958  107.4430 H   0  0  0  0  0  0
   17.7586   15.2689  105.7253 H   0  0  0  0  0  0
   17.7070   14.1554  104.5605 H   0  0  0  0  0  0
   19.4881   15.4180  111.5891 H   0  0  0  0  0  0
   19.8342   14.6256  113.8754 H   0  0  0  0  0  0
   18.5674   12.6777  114.7238 H   0  0  0  0  0  0
   16.9553   11.5181  113.2532 H   0  0  0  0  0  0
   16.5912   12.2674  110.9888 H   0  0  0  0  0  0
   18.3516   16.1901  107.4992 H   0  0  0  0  0  0
   20.2071   16.0234  105.9267 H   0  0  0  0  0  0
   21.9585   14.3151  106.2560 H   0  0  0  0  0  0
   21.8942   12.8338  108.2312 H   0  0  0  0  0  0
   19.9912   12.9101  109.7707 H   0  0  0  0  0  0
   19.1167   16.9638  109.8951 H   0  0  0  0  0  0
   18.2964   19.1660  110.4293 H   0  0  0  0  0  0
   15.8667   19.5573  110.8001 H   0  0  0  0  0  0
   14.2840   17.6628  110.6609 H   0  0  0  0  0  0
   15.1054   15.4115  110.1672 H   0  0  0  0  0  0
   15.0231   11.6654  105.9820 H   0  0  0  0  0  0
   13.1350   10.7416  105.3613 H   0  0  0  0  0  0
   11.0889   12.0496  105.3281 H   0  0  0  0  0  0
   12.1524   12.7630  106.5344 H   0  0  0  0  0  0
   11.9520   13.5391  104.9701 H   0  0  0  0  0  0
   12.9811   10.1701  102.0920 H   0  0  0  0  0  0
  1  5  1  0  0  0
  1  2  1  0  0  0
  1  4  1  0  0  0
  1 32  1  0  0  0
  2  3  2  0  0  0
  2 26  1  0  0  0
  4  6  1  0  0  0
  4 33  1  0  0  0
  4 34  1  0  0  0
  5 35  1  0  0  0
  5 36  1  0  0  0
  6  7  1  0  0  0
  7 14  1  0  0  0
  7 20  1  0  0  0
  7  8  1  0  0  0
  8  9  2  0  0  0
  8 13  1  0  0  0
  9 10  1  0  0  0
  9 37  1  0  0  0
 10 11  2  0  0  0
 10 38  1  0  0  0
 11 12  1  0  0  0
 11 39  1  0  0  0
 12 13  2  0  0  0
 12 40  1  0  0  0
 13 41  1  0  0  0
 14 19  1  0  0  0
 14 15  2  0  0  0
 15 16  1  0  0  0
 15 42  1  0  0  0
 16 17  2  0  0  0
 16 43  1  0  0  0
 17 18  1  0  0  0
 17 44  1  0  0  0
 18 19  2  0  0  0
 18 45  1  0  0  0
 19 46  1  0  0  0
 20 21  2  0  0  0
 20 25  1  0  0  0
 21 22  1  0  0  0
 21 47  1  0  0  0
 22 23  2  0  0  0
 22 48  1  0  0  0
 23 24  1  0  0  0
 23 49  1  0  0  0
 24 25  2  0  0  0
 24 50  1  0  0  0
 25 51  1  0  0  0
 26 27  1  0  0  0
 26 52  1  0  0  0
 27 28  1  0  0  0
 27 29  1  0  0  0
 27 53  1  0  0  0
 28 30  2  0  0  0
 28 31  1  0  0  0
 29 54  1  0  0  0
 29 55  1  0  0  0
 29 56  1  0  0  0
 31 57  1  0  0  0
M  END
> <s_m_entry_id>
249

> <s_m_entry_name>
dock_pv.248

> <s_m_Source_Path>
/home/csk/Desktop/cluster/DUD-E-result/kif11

> <s_m_Source_File>
dock_pv.maegz

> <i_m_Source_File_Index>
248

> <chembl_id>
CHEMBL410315

> <chembl_pref_name>
None

> <i_lp_mmshare_version>
53161

> <i_f3d_flags>
0

> <r_lp_tautomer_probability>
1

> <s_lp_Force_Field>
OPLS_2005

> <r_lp_Energy>
18.990054

> <b_lp_Chiralities_Consistent>
1

> <s_lp_Variant>
CHEMBL4581_lig795-1

> <s_i_glide_gridfile>
glide-grid_3cjo

> <i_i_glide_lignum>
1178

> <i_i_glide_rotatable_bonds>
11

> <r_i_docking_score>
-7.83612619148031

> <r_i_glide_ligand_efficiency>
-0.2527782642413

> <r_i_glide_ligand_efficiency_sa>
-0.794072747723754

> <r_i_glide_ligand_efficiency_ln>
-1.76728660460584

> <r_i_glide_gscore>
-7.83612619148031

> <r_i_glide_lipo>
-4.70989032578097

> <r_i_glide_hbond>
-0.416779747170505

> <r_i_glide_metal>
0

> <r_i_glide_rewards>
-0.587250181691469

> <r_i_glide_evdw>
-48.1097679138184

> <r_i_glide_ecoul>
-5.01048421859741

> <r_i_glide_erotb>
1.05471520262921

> <r_i_glide_esite>
-0.019860110986041

> <r_i_glide_emodel>
-70.8171943182589

> <r_i_glide_energy>
-53.1202521324158

> <r_i_glide_einternal>
11.9831514358521

> <i_i_glide_confnum>
321

> <i_i_glide_posenum>
8

> <r_i_glide_eff_state_penalty>
0

> <s_user_duplicate_titles>
CHEMBL4581_lig795

> <s_m_subgroup_title>
dock_pv

> <s_m_subgroupid>
dock_pv

> <b_m_subgroup_collapsed>
1

$$$$
CHEMBL4581_lig464
                    3D
 Schrodinger Suite 2021-1.
 44 46  0  0  1  0            999 V2000
   17.3591   18.3062  110.4223 C   0  0  0  0  0  0
   17.9205   17.0613  110.1628 C   0  0  0  0  0  0
   17.1160   15.9235  109.9786 C   0  0  0  0  0  0
   15.7225   16.0791  110.0708 C   0  0  0  0  0  0
   15.1564   17.3252  110.3295 C   0  0  0  0  0  0
   15.9780   18.4346  110.5054 C   0  0  0  0  0  0
   17.7647   14.5259  109.7214 C   0  0  0  0  0  0
   19.0582   14.5822  108.8536 C   0  0  0  0  0  0
   18.0195   13.9220  111.1420 C   0  0  0  0  0  0
   20.0582   13.6088  108.9942 C   0  0  0  0  0  0
   21.1183   13.5515  108.0964 C   0  0  0  0  0  0
   21.1650   14.4357  107.0222 C   0  0  0  0  0  0
   20.2416   15.4665  106.9162 C   0  0  0  0  0  0
   19.2043   15.5496  107.8381 C   0  0  0  0  0  0
   18.9740   14.5264  111.9768 C   0  0  0  0  0  0
   19.1806   14.0778  113.2771 C   0  0  0  0  0  0
   18.4501   12.9978  113.7597 C   0  0  0  0  0  0
   17.5185   12.3622  112.9477 C   0  0  0  0  0  0
   17.3090   12.8153  111.6495 C   0  0  0  0  0  0
   16.6116   13.4255  108.7471 S   0  0  0  0  0  0
   16.8128   13.8386  106.9860 C   0  0  0  0  0  0
   15.9456   13.0330  106.0189 C   0  0  0  0  0  0
   16.3172   13.3815  104.6597 N   0  0  0  0  0  0
   18.0009   19.1613  110.5651 H   0  0  0  0  0  0
   18.9974   16.9909  110.1205 H   0  0  0  0  0  0
   15.0609   15.2348  109.9561 H   0  0  0  0  0  0
   14.0831   17.4326  110.3986 H   0  0  0  0  0  0
   15.5393   19.4005  110.7111 H   0  0  0  0  0  0
   19.9849   12.8477  109.7581 H   0  0  0  0  0  0
   21.8651   12.7779  108.1837 H   0  0  0  0  0  0
   21.9600   14.3526  106.2962 H   0  0  0  0  0  0
   20.3066   16.1774  106.1054 H   0  0  0  0  0  0
   18.4624   16.3193  107.6905 H   0  0  0  0  0  0
   19.5547   15.3669  111.6257 H   0  0  0  0  0  0
   19.9106   14.5635  113.9087 H   0  0  0  0  0  0
   18.6076   12.6499  114.7710 H   0  0  0  0  0  0
   16.9383   11.5351  113.3308 H   0  0  0  0  0  0
   16.5611   12.2952  111.0734 H   0  0  0  0  0  0
   16.6351   14.9067  106.8531 H   0  0  0  0  0  0
   17.8501   13.6355  106.7161 H   0  0  0  0  0  0
   16.1109   11.9651  106.1584 H   0  0  0  0  0  0
   14.8866   13.2309  106.1880 H   0  0  0  0  0  0
   17.3106   13.1623  104.5252 H   0  0  0  0  0  0
   15.8143   12.7882  104.0166 H   0  0  0  0  0  0
  1  6  1  0  0  0
  1  2  2  0  0  0
  1 24  1  0  0  0
  2  3  1  0  0  0
  2 25  1  0  0  0
  3  7  1  0  0  0
  3  4  2  0  0  0
  4  5  1  0  0  0
  4 26  1  0  0  0
  5  6  2  0  0  0
  5 27  1  0  0  0
  6 28  1  0  0  0
  7  8  1  0  0  0
  7  9  1  0  0  0
  7 20  1  0  0  0
  8 14  1  0  0  0
  8 10  2  0  0  0
  9 15  2  0  0  0
  9 19  1  0  0  0
 10 11  1  0  0  0
 10 29  1  0  0  0
 11 12  2  0  0  0
 11 30  1  0  0  0
 12 13  1  0  0  0
 12 31  1  0  0  0
 13 14  2  0  0  0
 13 32  1  0  0  0
 14 33  1  0  0  0
 15 16  1  0  0  0
 15 34  1  0  0  0
 16 17  2  0  0  0
 16 35  1  0  0  0
 17 18  1  0  0  0
 17 36  1  0  0  0
 18 19  2  0  0  0
 18 37  1  0  0  0
 19 38  1  0  0  0
 20 21  1  0  0  0
 21 22  1  0  0  0
 21 39  1  0  0  0
 21 40  1  0  0  0
 22 23  1  0  0  0
 22 41  1  0  0  0
 22 42  1  0  0  0
 23 43  1  0  0  0
 23 44  1  0  0  0
M  END
> <s_m_entry_id>
250

> <s_m_entry_name>
dock_pv.249

> <s_m_Source_Path>
/home/csk/Desktop/cluster/DUD-E-result/kif11

> <s_m_Source_File>
dock_pv.maegz

> <i_m_Source_File_Index>
249

> <chembl_id>
CHEMBL408072

> <chembl_pref_name>
None

> <i_lp_mmshare_version>
53161

> <i_f3d_flags>
0

> <r_lp_tautomer_probability>
1

> <s_lp_Force_Field>
OPLS_2005

> <r_lp_Energy>
24.276543

> <b_lp_Chiralities_Consistent>
1

> <s_lp_Variant>
CHEMBL4581_lig464-1

> <s_i_glide_gridfile>
glide-grid_3cjo

> <i_i_glide_lignum>
687

> <i_i_glide_rotatable_bonds>
6

> <r_i_docking_score>
-7.83536005875958

> <r_i_glide_ligand_efficiency>
-0.340667828641721

> <r_i_glide_ligand_efficiency_sa>
-0.968813987959352

> <r_i_glide_ligand_efficiency_ln>
-1.89466110932503

> <r_i_glide_gscore>
-7.83536005875958

> <r_i_glide_lipo>
-4.74559502626103

> <r_i_glide_hbond>
-0.16

> <r_i_glide_metal>
0

> <r_i_glide_rewards>
-1.34759298484848

> <r_i_glide_evdw>
-39.4632797241211

> <r_i_glide_ecoul>
-3.48774385452271

> <r_i_glide_erotb>
0.914153516734394

> <r_i_glide_esite>
0

> <r_i_glide_emodel>
-62.4755138585935

> <r_i_glide_energy>
-42.9510235786438

> <r_i_glide_einternal>
3.39764666557312

> <i_i_glide_confnum>
69

> <i_i_glide_posenum>
168

> <r_i_glide_eff_state_penalty>
0

> <s_user_duplicate_titles>
CHEMBL4581_lig464

> <s_m_subgroup_title>
dock_pv

> <s_m_subgroupid>
dock_pv

> <b_m_subgroup_collapsed>
1

$$$$
CHEMBL4581_lig316
                    3D
 Schrodinger Suite 2021-1.
 42 45  0  0  1  0            999 V2000
   21.2433   16.0029  105.7458 C   0  0  0  0  0  0
   21.7246   14.7620  106.1588 C   0  0  0  0  0  0
   21.1187   14.1000  107.2243 C   0  0  0  0  0  0
   20.1207   16.5444  106.3711 C   0  0  0  0  0  0
   19.5193   15.9162  107.4683 C   0  0  0  0  0  0
   20.0519   14.6876  107.9016 C   0  0  0  0  0  0
   19.5314   14.0040  109.0129 N   0  0  0  0  0  0
   18.2894   14.4409  109.6504 C   0  0  2  0  0  0
   18.3097   16.5284  108.1622 C   0  0  2  0  0  0
   18.1712   15.9961  109.6128 C   0  0  1  0  0  0
   16.8547   16.5457  110.2197 C   0  0  0  0  0  0
   15.6515   16.2753  109.2984 C   0  0  0  0  0  0
   15.9442   16.7531  107.8626 C   0  0  0  0  0  0
   17.1598   16.1752  107.3900 O   0  0  0  0  0  0
   18.1662   13.8563  111.0571 C   0  0  0  0  0  0
   17.2211   12.8606  111.3233 C   0  0  0  0  0  0
   17.1189   12.3261  112.6051 C   0  0  0  0  0  0
   17.9552   12.7840  113.6191 C   0  0  0  0  0  0
   18.8992   13.7733  113.3598 C   0  0  0  0  0  0
   19.0082   14.3073  112.0807 C   0  0  0  0  0  0
   21.9103   16.7426  104.5994 C   0  0  0  0  0  0
   18.4197   17.6146  108.1858 H   0  0  0  0  0  0
   18.9986   16.4261  110.1800 H   0  0  0  0  0  0
   22.5701   14.3088  105.6612 H   0  0  0  0  0  0
   21.5141   13.1466  107.5428 H   0  0  0  0  0  0
   19.7357   17.4927  106.0281 H   0  0  0  0  0  0
   19.7740   13.0391  109.1855 H   0  0  0  0  0  0
   17.4744   14.0182  109.0591 H   0  0  0  0  0  0
   16.9514   17.6220  110.3741 H   0  0  0  0  0  0
   16.6699   16.1223  111.2075 H   0  0  0  0  0  0
   14.7614   16.7730  109.6851 H   0  0  0  0  0  0
   15.4249   15.2084  109.2864 H   0  0  0  0  0  0
   16.0033   17.8422  107.8176 H   0  0  0  0  0  0
   15.1341   16.4585  107.1950 H   0  0  0  0  0  0
   16.5699   12.4956  110.5416 H   0  0  0  0  0  0
   16.3860   11.5614  112.8147 H   0  0  0  0  0  0
   17.8746   12.3667  114.6132 H   0  0  0  0  0  0
   19.5501   14.1191  114.1489 H   0  0  0  0  0  0
   19.7526   15.0651  111.8842 H   0  0  0  0  0  0
   21.1963   17.3696  104.0631 H   0  0  0  0  0  0
   22.7211   17.3704  104.9697 H   0  0  0  0  0  0
   22.3183   16.0411  103.8718 H   0  0  0  0  0  0
  1  2  2  0  0  0
  1 21  1  0  0  0
  1  4  1  0  0  0
  2  3  1  0  0  0
  2 24  1  0  0  0
  3  6  2  0  0  0
  3 25  1  0  0  0
  4  5  2  0  0  0
  4 26  1  0  0  0
  5  9  1  0  0  0
  5  6  1  0  0  0
  6  7  1  0  0  0
  7  8  1  0  0  0
  7 27  1  0  0  0
  8 10  1  0  0  0
  8 15  1  0  0  0
  8 28  1  0  0  0
  9 14  1  0  0  0
  9 10  1  0  0  0
  9 22  1  0  0  0
 10 11  1  0  0  0
 10 23  1  0  0  0
 11 12  1  0  0  0
 11 29  1  0  0  0
 11 30  1  0  0  0
 12 13  1  0  0  0
 12 31  1  0  0  0
 12 32  1  0  0  0
 13 14  1  0  0  0
 13 33  1  0  0  0
 13 34  1  0  0  0
 15 16  2  0  0  0
 15 20  1  0  0  0
 16 17  1  0  0  0
 16 35  1  0  0  0
 17 18  2  0  0  0
 17 36  1  0  0  0
 18 19  1  0  0  0
 18 37  1  0  0  0
 19 20  2  0  0  0
 19 38  1  0  0  0
 20 39  1  0  0  0
 21 40  1  0  0  0
 21 41  1  0  0  0
 21 42  1  0  0  0
M  END
> <s_m_entry_id>
251

> <s_m_entry_name>
dock_pv.250

> <s_m_Source_Path>
/home/csk/Desktop/cluster/DUD-E-result/kif11

> <s_m_Source_File>
dock_pv.maegz

> <i_m_Source_File_Index>
250

> <chembl_id>
CHEMBL1088740

> <chembl_pref_name>
None

> <i_lp_mmshare_version>
53161

> <i_f3d_flags>
0

> <r_lp_tautomer_probability>
1

> <s_lp_Force_Field>
OPLS_2005

> <r_lp_Energy>
25.193711

> <b_lp_Chiralities_Consistent>
1

> <s_lp_Variant>
CHEMBL4581_lig316-1

> <s_i_glide_gridfile>
glide-grid_3cjo

> <i_i_glide_lignum>
469

> <i_i_glide_rotatable_bonds>
1

> <r_i_docking_score>
-7.83348445836441

> <r_i_glide_ligand_efficiency>
-0.373023069445924

> <r_i_glide_ligand_efficiency_sa>
-1.02914236359784

> <r_i_glide_ligand_efficiency_ln>
-1.93681320328481

> <r_i_glide_gscore>
-7.83348445836441

> <r_i_glide_lipo>
-4.57682621851742

> <r_i_glide_hbond>
0

> <r_i_glide_metal>
0

> <r_i_glide_rewards>
-1.58758692424242

> <r_i_glide_evdw>
-34.5078392028809

> <r_i_glide_ecoul>
-1.16557466983795

> <r_i_glide_erotb>
0.23115684501517

> <r_i_glide_esite>
0

> <r_i_glide_emodel>
-49.3131950765057

> <r_i_glide_energy>
-35.6734138727188

> <r_i_glide_einternal>
0.662233173847198

> <i_i_glide_confnum>
1

> <i_i_glide_posenum>
385

> <r_i_glide_eff_state_penalty>
0

> <s_user_duplicate_titles>
CHEMBL4581_lig316,616147

> <s_m_subgroup_title>
dock_pv

> <s_m_subgroupid>
dock_pv

> <b_m_subgroup_collapsed>
1

$$$$
CHEMBL4581_lig865
                    3D
 Schrodinger Suite 2021-1.
 51 53  0  0  1  0            999 V2000
   17.7461   14.6828  109.2158 C   0  0  0  0  0  0
   18.0491   14.1734  110.6617 C   0  0  0  0  0  0
   16.8457   15.9498  109.4058 C   0  0  0  0  0  0
   19.1181   14.7197  111.3920 C   0  0  0  0  0  0
   19.3539   14.3506  112.7131 C   0  0  0  0  0  0
   18.5548   13.3795  113.3089 C   0  0  0  0  0  0
   17.5182   12.7872  112.5947 C   0  0  0  0  0  0
   17.2599   13.1902  111.2864 C   0  0  0  0  0  0
   15.4519   15.9080  109.2126 C   0  0  0  0  0  0
   14.6487   17.0168  109.4735 C   0  0  0  0  0  0
   15.1983   18.2049  109.9464 C   0  0  0  0  0  0
   16.5834   18.2679  110.1363 C   0  0  0  0  0  0
   17.3913   17.1652  109.8698 C   0  0  0  0  0  0
   19.0327   14.9114  108.3648 C   0  0  0  0  0  0
   19.1423   15.9773  107.4558 C   0  0  0  0  0  0
   20.2047   16.0436  106.5590 C   0  0  0  0  0  0
   21.1713   15.0436  106.5590 C   0  0  0  0  0  0
   21.1180   14.0101  107.4920 C   0  0  0  0  0  0
   20.0666   13.9620  108.4046 C   0  0  0  0  0  0
   16.8669   13.3634  108.2303 S   0  0  0  0  0  0
   16.8236   14.0158  106.5207 C   0  0  0  0  0  0
   15.7067   13.4203  105.6337 C   0  0  2  0  0  0
   15.8549   11.9776  105.3590 N   0  0  0  0  0  0
   18.7180   17.3033  110.0800 F   0  0  0  0  0  0
   14.3213   19.2399  110.2028 O   0  0  0  0  0  0
   14.8242   20.4637  110.7308 C   0  0  0  0  0  0
   15.6227   14.1595  104.2780 C   0  0  0  0  0  0
   16.7180   13.9620  103.4805 O   0  0  0  0  0  0
   14.6559   14.8599  103.9864 O   0  0  0  0  0  0
   19.7674   15.4572  110.9474 H   0  0  0  0  0  0
   20.1678   14.7984  113.2643 H   0  0  0  0  0  0
   18.7449   13.0768  114.3291 H   0  0  0  0  0  0
   16.9008   12.0306  113.0583 H   0  0  0  0  0  0
   16.4234   12.7335  110.7794 H   0  0  0  0  0  0
   14.9501   15.0113  108.8851 H   0  0  0  0  0  0
   13.5808   16.9495  109.3239 H   0  0  0  0  0  0
   17.0583   19.1620  110.5052 H   0  0  0  0  0  0
   18.3761   16.7341  107.3887 H   0  0  0  0  0  0
   20.2626   16.8560  105.8492 H   0  0  0  0  0  0
   21.9818   15.0801  105.8457 H   0  0  0  0  0  0
   21.8789   13.2434  107.4976 H   0  0  0  0  0  0
   20.0091   13.1248  109.0860 H   0  0  0  0  0  0
   16.6932   15.0967  106.5809 H   0  0  0  0  0  0
   17.8026   13.8386  106.0740 H   0  0  0  0  0  0
   14.7606   13.5903  106.1510 H   0  0  0  0  0  0
   15.9180   11.4623  106.2412 H   0  0  0  0  0  0
   15.0278   11.6165  104.9054 H   0  0  0  0  0  0
   13.9964   21.1533  110.8946 H   0  0  0  0  0  0
   15.3205   20.3147  111.6914 H   0  0  0  0  0  0
   15.5177   20.9435  110.0389 H   0  0  0  0  0  0
   17.3787   13.3692  103.8774 H   0  0  0  0  0  0
  1  2  1  0  0  0
  1  3  1  0  0  0
  1 14  1  0  0  0
  1 20  1  0  0  0
  2  4  2  0  0  0
  2  8  1  0  0  0
  3  9  2  0  0  0
  3 13  1  0  0  0
  4  5  1  0  0  0
  4 30  1  0  0  0
  5  6  2  0  0  0
  5 31  1  0  0  0
  6  7  1  0  0  0
  6 32  1  0  0  0
  7  8  2  0  0  0
  7 33  1  0  0  0
  8 34  1  0  0  0
  9 10  1  0  0  0
  9 35  1  0  0  0
 10 11  2  0  0  0
 10 36  1  0  0  0
 11 12  1  0  0  0
 11 25  1  0  0  0
 12 13  2  0  0  0
 12 37  1  0  0  0
 13 24  1  0  0  0
 14 15  2  0  0  0
 14 19  1  0  0  0
 15 16  1  0  0  0
 15 38  1  0  0  0
 16 17  2  0  0  0
 16 39  1  0  0  0
 17 18  1  0  0  0
 17 40  1  0  0  0
 18 19  2  0  0  0
 18 41  1  0  0  0
 19 42  1  0  0  0
 20 21  1  0  0  0
 21 22  1  0  0  0
 21 43  1  0  0  0
 21 44  1  0  0  0
 22 23  1  0  0  0
 22 27  1  0  0  0
 22 45  1  0  0  0
 23 46  1  0  0  0
 23 47  1  0  0  0
 25 26  1  0  0  0
 26 48  1  0  0  0
 26 49  1  0  0  0
 26 50  1  0  0  0
 27 28  1  0  0  0
 27 29  2  0  0  0
 28 51  1  0  0  0
M  END
> <s_m_entry_id>
252

> <s_m_entry_name>
dock_pv.251

> <s_m_Source_Path>
/home/csk/Desktop/cluster/DUD-E-result/kif11

> <s_m_Source_File>
dock_pv.maegz

> <i_m_Source_File_Index>
251

> <chembl_id>
CHEMBL2325406

> <chembl_pref_name>
None

> <i_lp_mmshare_version>
53161

> <i_f3d_flags>
0

> <r_lp_tautomer_probability>
1

> <s_lp_Force_Field>
OPLS_2005

> <r_lp_Energy>
26.661

> <b_lp_Chiralities_Consistent>
1

> <s_lp_Variant>
CHEMBL4581_lig865-1

> <s_i_glide_gridfile>
glide-grid_3cjo

> <i_i_glide_lignum>
1255

> <i_i_glide_rotatable_bonds>
9

> <r_i_docking_score>
-7.82566403834403

> <r_i_glide_ligand_efficiency>
-0.269850484080829

> <r_i_glide_ligand_efficiency_sa>
-0.82906618173043

> <r_i_glide_ligand_efficiency_ln>
-1.79187862306279

> <r_i_glide_gscore>
-7.82566403834403

> <r_i_glide_lipo>
-4.25066438998177

> <r_i_glide_hbond>
-0.304

> <r_i_glide_metal>
0

> <r_i_glide_rewards>
-0.8266497631015

> <r_i_glide_evdw>
-39.6097183227539

> <r_i_glide_ecoul>
-8.4177188873291

> <r_i_glide_erotb>
0.814830981645425

> <r_i_glide_esite>
-0.0160371176691213

> <r_i_glide_emodel>
-69.6338893552385

> <r_i_glide_energy>
-48.027437210083

> <r_i_glide_einternal>
7.92046499252319

> <i_i_glide_confnum>
72

> <i_i_glide_posenum>
331

> <r_i_glide_eff_state_penalty>
0

> <s_user_duplicate_titles>
CHEMBL4581_lig865

> <s_m_subgroup_title>
dock_pv

> <s_m_subgroupid>
dock_pv

> <b_m_subgroup_collapsed>
1

$$$$
CHEMBL4581_lig810
                    3D
 Schrodinger Suite 2021-1.
 49 51  0  0  1  0            999 V2000
   14.7582   13.3648  107.2962 C   0  0  2  0  0  0
   13.6433   14.1416  107.8729 N   0  0  0  0  0  0
   16.1409   13.9706  107.6264 C   0  0  0  0  0  0
   16.6444   13.5771  109.0381 C   0  0  0  0  0  0
   17.7188   14.5048  109.7316 C   0  0  0  0  0  0
   17.1579   15.9474  109.9595 C   0  0  0  0  0  0
   18.0762   13.9679  111.1587 C   0  0  0  0  0  0
   18.9588   14.4774  108.7801 C   0  0  0  0  0  0
   18.0246   17.0525  110.0110 C   0  0  0  0  0  0
   17.5436   18.3314  110.2581 C   0  0  0  0  0  0
   16.1824   18.5325  110.4531 C   0  0  0  0  0  0
   15.3003   17.4594  110.4024 C   0  0  0  0  0  0
   15.7854   16.1773  110.1606 C   0  0  0  0  0  0
   19.0071   15.3053  107.6448 C   0  0  0  0  0  0
   20.0739   15.2452  106.7547 C   0  0  0  0  0  0
   21.1178   14.3620  106.9969 C   0  0  0  0  0  0
   21.1177   13.5621  108.1346 C   0  0  0  0  0  0
   20.0334   13.6015  109.0073 C   0  0  0  0  0  0
   17.4626   12.8304  111.7146 C   0  0  0  0  0  0
   17.7582   12.4178  113.0076 C   0  0  0  0  0  0
   18.6917   13.1178  113.7603 C   0  0  0  0  0  0
   19.3306   14.2321  113.2308 C   0  0  0  0  0  0
   19.0292   14.6483  111.9383 C   0  0  0  0  0  0
   14.5468   13.1939  105.7761 C   0  0  0  0  0  0
   14.0891   14.0781  105.0522 O   0  0  0  0  0  0
   14.9578   11.9601  105.3589 O   0  0  0  0  0  0
   14.7189   12.3622  107.7131 H   0  0  0  0  0  0
   13.7535   15.1257  107.6704 H   0  0  0  0  0  0
   12.7589   13.8593  107.4703 H   0  0  0  0  0  0
   16.0866   15.0548  107.5245 H   0  0  0  0  0  0
   16.8865   13.6389  106.9002 H   0  0  0  0  0  0
   17.0521   12.5673  108.9545 H   0  0  0  0  0  0
   15.7755   13.4576  109.6841 H   0  0  0  0  0  0
   19.0881   16.9318  109.8728 H   0  0  0  0  0  0
   18.2320   19.1613  110.3063 H   0  0  0  0  0  0
   15.8096   19.5274  110.6506 H   0  0  0  0  0  0
   14.2442   17.6216  110.5570 H   0  0  0  0  0  0
   15.0701   15.3724  110.1468 H   0  0  0  0  0  0
   18.2017   15.9914  107.4289 H   0  0  0  0  0  0
   20.0848   15.8710  105.8745 H   0  0  0  0  0  0
   21.9413   14.3075  106.2996 H   0  0  0  0  0  0
   21.9361   12.8818  108.3123 H   0  0  0  0  0  0
   20.0313   12.9276  109.8496 H   0  0  0  0  0  0
   16.7337   12.2421  111.1806 H   0  0  0  0  0  0
   17.2534   11.5620  113.4256 H   0  0  0  0  0  0
   18.9216   12.7905  114.7648 H   0  0  0  0  0  0
   20.0642   14.7633  113.8170 H   0  0  0  0  0  0
   19.5460   15.5107  111.5473 H   0  0  0  0  0  0
   15.2514   11.4021  106.0895 H   0  0  0  0  0  0
  1  3  1  0  0  0
  1 24  1  0  0  0
  1  2  1  0  0  0
  1 27  1  0  0  0
  2 28  1  0  0  0
  2 29  1  0  0  0
  3  4  1  0  0  0
  3 30  1  0  0  0
  3 31  1  0  0  0
  4  5  1  0  0  0
  4 32  1  0  0  0
  4 33  1  0  0  0
  5  7  1  0  0  0
  5  8  1  0  0  0
  5  6  1  0  0  0
  6 13  1  0  0  0
  6  9  2  0  0  0
  7 19  2  0  0  0
  7 23  1  0  0  0
  8 14  2  0  0  0
  8 18  1  0  0  0
  9 10  1  0  0  0
  9 34  1  0  0  0
 10 11  2  0  0  0
 10 35  1  0  0  0
 11 12  1  0  0  0
 11 36  1  0  0  0
 12 13  2  0  0  0
 12 37  1  0  0  0
 13 38  1  0  0  0
 14 15  1  0  0  0
 14 39  1  0  0  0
 15 16  2  0  0  0
 15 40  1  0  0  0
 16 17  1  0  0  0
 16 41  1  0  0  0
 17 18  2  0  0  0
 17 42  1  0  0  0
 18 43  1  0  0  0
 19 20  1  0  0  0
 19 44  1  0  0  0
 20 21  2  0  0  0
 20 45  1  0  0  0
 21 22  1  0  0  0
 21 46  1  0  0  0
 22 23  2  0  0  0
 22 47  1  0  0  0
 23 48  1  0  0  0
 24 25  2  0  0  0
 24 26  1  0  0  0
 26 49  1  0  0  0
M  END
> <s_m_entry_id>
253

> <s_m_entry_name>
dock_pv.252

> <s_m_Source_Path>
/home/csk/Desktop/cluster/DUD-E-result/kif11

> <s_m_Source_File>
dock_pv.maegz

> <i_m_Source_File_Index>
252

> <chembl_id>
CHEMBL2022588

> <chembl_pref_name>
None

> <i_lp_mmshare_version>
53161

> <i_f3d_flags>
0

> <r_lp_tautomer_probability>
1

> <s_lp_Force_Field>
OPLS_2005

> <r_lp_Energy>
32.858867

> <b_lp_Chiralities_Consistent>
1

> <s_lp_Variant>
CHEMBL4581_lig810-1

> <s_i_glide_gridfile>
glide-grid_3cjo

> <i_i_glide_lignum>
1196

> <i_i_glide_rotatable_bonds>
8

> <r_i_docking_score>
-7.8243427867358

> <r_i_glide_ligand_efficiency>
-0.3009362610283

> <r_i_glide_ligand_efficiency_sa>
-0.891522489169331

> <r_i_glide_ligand_efficiency_ln>
-1.83752122970217

> <r_i_glide_gscore>
-7.8243427867358

> <r_i_glide_lipo>
-4.72577196183244

> <r_i_glide_hbond>
0

> <r_i_glide_metal>
0

> <r_i_glide_rewards>
-1.17885759090909

> <r_i_glide_evdw>
-41.5361785888672

> <r_i_glide_ecoul>
-6.33496522903442

> <r_i_glide_erotb>
1.11459011733578

> <r_i_glide_esite>
-0.00724963753152872

> <r_i_glide_emodel>
-66.6640288355833

> <r_i_glide_energy>
-47.8711438179016

> <r_i_glide_einternal>
6.53976249694824

> <i_i_glide_confnum>
47

> <i_i_glide_posenum>
77

> <r_i_glide_eff_state_penalty>
0

> <s_user_duplicate_titles>
CHEMBL4581_lig810,CHEMBL4581_lig812

> <s_m_subgroup_title>
dock_pv

> <s_m_subgroupid>
dock_pv

> <b_m_subgroup_collapsed>
1

$$$$
CHEMBL4581_lig67
                    3D
 Schrodinger Suite 2021-1.
 47 49  0  0  1  0            999 V2000
   19.7558   13.3871  109.1835 C   0  0  0  0  0  0
   18.5517   13.4925  110.0238 N   0  0  0  0  0  0
   17.2930   13.5657  109.2688 C   0  0  0  0  0  0
   17.2994   14.9044  108.4872 C   0  0  2  0  0  0
   19.7553   14.3507  107.9826 C   0  0  0  0  0  0
   18.5834   15.0699  107.6590 C   0  0  0  0  0  0
   18.6083   15.9621  106.5875 C   0  0  0  0  0  0
   19.7608   16.1659  105.8434 C   0  0  0  0  0  0
   20.9061   15.4214  106.1101 C   0  0  0  0  0  0
   20.8900   14.4749  107.1513 C   0  0  0  0  0  0
   22.0991   13.5621  107.3782 C   0  0  0  0  0  0
   22.1320   15.6456  105.2319 C   0  0  0  0  0  0
   16.9702   16.1149  109.3750 C   0  0  0  0  0  0
   17.9635   17.0170  109.7819 C   0  0  0  0  0  0
   17.6354   18.1173  110.5646 C   0  0  0  0  0  0
   16.3140   18.3151  110.9529 C   0  0  0  0  0  0
   15.3161   17.4270  110.5589 C   0  0  0  0  0  0
   15.6442   16.3298  109.7670 C   0  0  0  0  0  0
   18.6407   13.8764  111.3269 C   0  0  0  0  0  0
   19.5184   14.6568  111.7000 O   0  0  0  0  0  0
   17.7644   13.3294  112.2162 N   0  0  0  0  0  0
   16.9796   12.1102  111.9784 C   0  0  0  0  0  0
   17.7340   13.7740  113.6145 C   0  0  0  0  0  0
   20.6556   13.5265  109.7829 H   0  0  0  0  0  0
   19.8053   12.3646  108.8078 H   0  0  0  0  0  0
   16.4040   13.4176  109.8799 H   0  0  0  0  0  0
   17.2751   12.7203  108.5784 H   0  0  0  0  0  0
   16.4801   14.8550  107.7673 H   0  0  0  0  0  0
   17.7190   16.5249  106.3469 H   0  0  0  0  0  0
   19.7498   16.8898  105.0421 H   0  0  0  0  0  0
   23.0175   13.9613  106.9526 H   0  0  0  0  0  0
   22.3125   13.4340  108.4379 H   0  0  0  0  0  0
   21.9200   12.5752  106.9513 H   0  0  0  0  0  0
   22.4385   14.7101  104.7625 H   0  0  0  0  0  0
   21.9474   16.3684  104.4355 H   0  0  0  0  0  0
   22.9675   16.0088  105.8317 H   0  0  0  0  0  0
   18.9959   16.8709  109.5014 H   0  0  0  0  0  0
   18.4059   18.8073  110.8786 H   0  0  0  0  0  0
   16.0610   19.1664  111.5678 H   0  0  0  0  0  0
   14.2932   17.5935  110.8632 H   0  0  0  0  0  0
   14.8669   15.6470  109.4579 H   0  0  0  0  0  0
   17.3620   11.5251  111.1412 H   0  0  0  0  0  0
   16.9994   11.4658  112.8575 H   0  0  0  0  0  0
   15.9375   12.3514  111.7602 H   0  0  0  0  0  0
   18.1811   14.7597  113.7531 H   0  0  0  0  0  0
   16.7180   13.8263  113.9920 H   0  0  0  0  0  0
   18.2796   13.0681  114.2425 H   0  0  0  0  0  0
  1  5  1  0  0  0
  1  2  1  0  0  0
  1 24  1  0  0  0
  1 25  1  0  0  0
  2  3  1  0  0  0
  2 19  1  0  0  0
  3  4  1  0  0  0
  3 26  1  0  0  0
  3 27  1  0  0  0
  4  6  1  0  0  0
  4 13  1  0  0  0
  4 28  1  0  0  0
  5  6  2  0  0  0
  5 10  1  0  0  0
  6  7  1  0  0  0
  7  8  2  0  0  0
  7 29  1  0  0  0
  8  9  1  0  0  0
  8 30  1  0  0  0
  9 12  1  0  0  0
  9 10  2  0  0  0
 10 11  1  0  0  0
 11 31  1  0  0  0
 11 32  1  0  0  0
 11 33  1  0  0  0
 12 34  1  0  0  0
 12 35  1  0  0  0
 12 36  1  0  0  0
 13 14  2  0  0  0
 13 18  1  0  0  0
 14 15  1  0  0  0
 14 37  1  0  0  0
 15 16  2  0  0  0
 15 38  1  0  0  0
 16 17  1  0  0  0
 16 39  1  0  0  0
 17 18  2  0  0  0
 17 40  1  0  0  0
 18 41  1  0  0  0
 19 20  2  0  0  0
 19 21  1  0  0  0
 21 22  1  0  0  0
 21 23  1  0  0  0
 22 42  1  0  0  0
 22 43  1  0  0  0
 22 44  1  0  0  0
 23 45  1  0  0  0
 23 46  1  0  0  0
 23 47  1  0  0  0
M  END
> <s_m_entry_id>
255

> <s_m_entry_name>
dock_pv.254

> <s_m_Source_Path>
/home/csk/Desktop/cluster/DUD-E-result/kif11

> <s_m_Source_File>
dock_pv.maegz

> <i_m_Source_File_Index>
254

> <chembl_id>
CHEMBL378389

> <chembl_pref_name>
None

> <i_lp_mmshare_version>
53161

> <i_f3d_flags>
0

> <r_lp_tautomer_probability>
1

> <s_lp_Force_Field>
OPLS_2005

> <r_lp_Energy>
49.221151

> <b_lp_Chiralities_Consistent>
1

> <s_lp_Variant>
CHEMBL4581_lig67-1

> <s_i_glide_gridfile>
glide-grid_3cjo

> <i_i_glide_lignum>
100

> <i_i_glide_rotatable_bonds>
3

> <r_i_docking_score>
-7.82366579523277

> <r_i_glide_ligand_efficiency>
-0.340159382401425

> <r_i_glide_ligand_efficiency_sa>
-0.967368034487054

> <r_i_glide_ligand_efficiency_ln>
-1.89183333036653

> <r_i_glide_gscore>
-7.82366579523277

> <r_i_glide_lipo>
-4.1740787786947

> <r_i_glide_hbond>
0

> <r_i_glide_metal>
0

> <r_i_glide_rewards>
-1.85134898727755

> <r_i_glide_evdw>
-38.9653472900391

> <r_i_glide_ecoul>
-1.59315848350525

> <r_i_glide_erotb>
0.389003107767224

> <r_i_glide_esite>
0

> <r_i_glide_emodel>
-55.9841194702229

> <r_i_glide_energy>
-40.5585057735443

> <r_i_glide_einternal>
0.795714437961578

> <i_i_glide_confnum>
43

> <i_i_glide_posenum>
32

> <r_i_glide_eff_state_penalty>
0

> <s_user_duplicate_titles>
CHEMBL4581_lig67

> <s_m_subgroup_title>
dock_pv

> <s_m_subgroupid>
dock_pv

> <b_m_subgroup_collapsed>
1

$$$$
CHEMBL4581_lig255
                    3D
 Schrodinger Suite 2021-1.
 42 44  0  0  1  0            999 V2000
   21.4941   16.7636  105.5293 S   0  0  0  0  0  0
   16.7398   13.4170  108.7244 O   0  0  0  0  0  0
   13.5156   17.0539  108.6324 O   0  0  0  0  0  0
   19.2397   16.3626  106.7589 N   0  0  0  0  0  0
   20.7775   14.6563  107.1254 N   0  0  0  0  0  0
   20.4890   15.8672  106.5218 C   0  0  0  0  0  0
   19.9931   14.1662  108.1584 C   0  0  0  0  0  0
   18.7176   14.6000  108.3644 C   0  0  0  0  0  0
   18.1149   15.6958  107.4541 C   0  0  1  0  0  0
   21.9184   13.8842  106.5615 C   0  0  0  0  0  0
   20.7177   13.1621  109.0376 C   0  0  0  0  0  0
   17.7478   13.8997  109.2463 C   0  0  0  0  0  0
   17.9919   13.7088  110.7119 C   0  0  0  0  0  0
   18.7397   14.6361  111.4506 C   0  0  0  0  0  0
   18.9493   14.4333  112.8129 C   0  0  0  0  0  0
   18.3906   13.3238  113.4449 C   0  0  0  0  0  0
   17.6150   12.4170  112.7292 C   0  0  0  0  0  0
   17.4126   12.6111  111.3665 C   0  0  0  0  0  0
   17.1350   16.6366  108.1576 C   0  0  0  0  0  0
   15.7549   16.4520  108.0238 C   0  0  0  0  0  0
   14.8656   17.2454  108.7505 C   0  0  0  0  0  0
   15.3514   18.2259  109.6146 C   0  0  0  0  0  0
   16.7257   18.4139  109.7544 C   0  0  0  0  0  0
   17.6141   17.6227  109.0280 C   0  0  0  0  0  0
   13.2866   16.3611  108.0101 H   0  0  0  0  0  0
   19.0500   17.2111  106.2459 H   0  0  0  0  0  0
   17.5841   15.2081  106.6336 H   0  0  0  0  0  0
   21.9520   13.9417  105.4722 H   0  0  0  0  0  0
   22.8695   14.2508  106.9442 H   0  0  0  0  0  0
   21.8584   12.8205  106.7838 H   0  0  0  0  0  0
   20.2897   13.0288  110.0212 H   0  0  0  0  0  0
   20.7195   12.1886  108.5597 H   0  0  0  0  0  0
   21.7480   13.4726  109.2154 H   0  0  0  0  0  0
   19.1744   15.5042  110.9738 H   0  0  0  0  0  0
   19.5432   15.1382  113.3764 H   0  0  0  0  0  0
   18.5555   13.1626  114.5010 H   0  0  0  0  0  0
   17.1729   11.5653  113.2267 H   0  0  0  0  0  0
   16.8133   11.8910  110.8240 H   0  0  0  0  0  0
   15.3787   15.6739  107.3761 H   0  0  0  0  0  0
   14.6640   18.8360  110.1825 H   0  0  0  0  0  0
   17.1034   19.1615  110.4358 H   0  0  0  0  0  0
   18.6781   17.7634  109.1582 H   0  0  0  0  0  0
  1  6  2  0  0  0
  2 12  2  0  0  0
  3 21  1  0  0  0
  3 25  1  0  0  0
  4  6  1  0  0  0
  4  9  1  0  0  0
  4 26  1  0  0  0
  5  7  1  0  0  0
  5  6  1  0  0  0
  5 10  1  0  0  0
  7 11  1  0  0  0
  7  8  2  0  0  0
  8 12  1  0  0  0
  8  9  1  0  0  0
  9 19  1  0  0  0
  9 27  1  0  0  0
 10 28  1  0  0  0
 10 29  1  0  0  0
 10 30  1  0  0  0
 11 31  1  0  0  0
 11 32  1  0  0  0
 11 33  1  0  0  0
 12 13  1  0  0  0
 13 18  2  0  0  0
 13 14  1  0  0  0
 14 15  2  0  0  0
 14 34  1  0  0  0
 15 16  1  0  0  0
 15 35  1  0  0  0
 16 17  2  0  0  0
 16 36  1  0  0  0
 17 18  1  0  0  0
 17 37  1  0  0  0
 18 38  1  0  0  0
 19 20  2  0  0  0
 19 24  1  0  0  0
 20 21  1  0  0  0
 20 39  1  0  0  0
 21 22  2  0  0  0
 22 23  1  0  0  0
 22 40  1  0  0  0
 23 24  2  0  0  0
 23 41  1  0  0  0
 24 42  1  0  0  0
M  END
> <s_m_entry_id>
256

> <s_m_entry_name>
dock_pv.255

> <s_m_Source_Path>
/home/csk/Desktop/cluster/DUD-E-result/kif11

> <s_m_Source_File>
dock_pv.maegz

> <i_m_Source_File_Index>
255

> <chembl_id>
CHEMBL522806

> <chembl_pref_name>
(R)-MON-97

> <i_lp_mmshare_version>
53161

> <i_f3d_flags>
0

> <r_lp_tautomer_probability>
0.999999999997365

> <s_lp_Force_Field>
OPLS_2005

> <r_lp_Energy>
50.187686

> <b_lp_Chiralities_Consistent>
1

> <s_lp_Variant>
CHEMBL4581_lig255-1

> <s_i_glide_gridfile>
glide-grid_3cjo

> <i_i_glide_lignum>
380

> <i_i_glide_rotatable_bonds>
4

> <r_i_docking_score>
-7.82107372583027

> <r_i_glide_ligand_efficiency>
-0.325878071909595

> <r_i_glide_ligand_efficiency_sa>
-0.939995017372654

> <r_i_glide_ligand_efficiency_ln>
-1.87194182827916

> <r_i_glide_gscore>
-7.82107372583027

> <r_i_glide_lipo>
-3.59356245023101

> <r_i_glide_hbond>
0

> <r_i_glide_metal>
0

> <r_i_glide_rewards>
-2.64240965351344

> <r_i_glide_evdw>
-45.1733779907227

> <r_i_glide_ecoul>
1.18797266483307

> <r_i_glide_erotb>
0.495371377725353

> <r_i_glide_esite>
0

> <r_i_glide_emodel>
-60.6953000176628

> <r_i_glide_energy>
-43.9854053258896

> <r_i_glide_einternal>
1.76571953296661

> <i_i_glide_confnum>
5

> <i_i_glide_posenum>
317

> <r_i_glide_eff_state_penalty>
0

> <s_user_duplicate_titles>
CHEMBL4581_lig255,CHEMBL4581_lig754,485218

> <s_m_subgroup_title>
dock_pv

> <s_m_subgroupid>
dock_pv

> <b_m_subgroup_collapsed>
1

$$$$
CHEMBL4581_lig716
                    3D
 Schrodinger Suite 2021-1.
 72 74  0  0  1  0            999 V2000
   16.2396   18.7786  109.6695 C   0  0  0  0  0  0
   16.2093   17.4529  109.1479 O   0  0  0  0  0  0
   15.1301   17.0248  108.2960 C   0  0  0  0  0  0
   13.7819   17.2473  109.0271 C   0  0  0  0  0  0
   15.1170   17.8195  106.9760 C   0  0  0  0  0  0
   15.3923   15.4912  108.0676 C   0  0  1  0  0  0
   14.5180   14.8000  107.0567 N   0  0  0  0  0  0
   15.0812   14.7160  105.6835 C   0  0  0  0  0  0
   14.3119   15.3131  104.4792 C   0  0  0  0  0  0
   15.1644   15.4519  103.1929 C   0  0  2  0  0  0
   15.6114   14.1380  102.7569 N   0  0  0  0  0  0
   16.3778   16.4051  103.3117 C   0  0  0  0  0  0
   17.0693   16.5448  102.1780 F   0  0  0  0  0  0
   13.4001   14.1315  107.4884 C   0  0  0  0  0  0
   13.0624   14.1495  108.6765 O   0  0  0  0  0  0
   12.4972   13.2769  106.5583 C   0  0  2  0  0  0
   13.2039   12.1746  105.7446 C   0  0  0  0  0  0
   11.6907   14.1123  105.7496 O   0  0  0  0  0  0
   16.8703   15.0741  107.9453 C   0  0  0  0  0  0
   17.8050   15.6356  107.2053 N   0  0  0  0  0  0
   18.8856   14.8935  107.4369 C   0  0  0  0  0  0
   18.7013   13.8990  108.2748 N   0  0  0  0  0  0
   17.4164   14.0079  108.6071 N   0  0  0  0  0  0
   16.9226   13.2673  109.7660 C   0  0  0  0  0  0
   17.5984   13.6964  111.0734 C   0  0  0  0  0  0
   18.3543   14.8805  111.1558 C   0  0  0  0  0  0
   19.1228   15.1590  112.2763 C   0  0  0  0  0  0
   19.0949   14.2892  113.3588 C   0  0  0  0  0  0
   18.2690   13.1668  113.3325 C   0  0  0  0  0  0
   18.2085   12.3624  114.4091 F   0  0  0  0  0  0
   17.5246   12.8632  112.1922 C   0  0  0  0  0  0
   20.2215   15.1312  106.7784 C   0  0  0  0  0  0
   20.4104   16.2675  105.9753 C   0  0  0  0  0  0
   21.6036   16.4630  105.2804 C   0  0  0  0  0  0
   21.7637   17.5576  104.5044 F   0  0  0  0  0  0
   22.6130   15.5056  105.3467 C   0  0  0  0  0  0
   22.4591   14.3906  106.1588 C   0  0  0  0  0  0
   21.3006   14.2297  106.9112 C   0  0  0  0  0  0
   21.2748   13.1954  107.7800 F   0  0  0  0  0  0
   17.1425   18.8867  110.2706 H   0  0  0  0  0  0
   16.2787   19.5374  108.8871 H   0  0  0  0  0  0
   15.3955   18.9882  110.3288 H   0  0  0  0  0  0
   12.9424   16.8388  108.4616 H   0  0  0  0  0  0
   13.7821   16.7704  110.0091 H   0  0  0  0  0  0
   13.5665   18.3057  109.1785 H   0  0  0  0  0  0
   14.2120   17.6133  106.4090 H   0  0  0  0  0  0
   15.1234   18.8958  107.1428 H   0  0  0  0  0  0
   15.9686   17.5587  106.3541 H   0  0  0  0  0  0
   15.1135   15.1152  109.0486 H   0  0  0  0  0  0
   15.4233   13.7006  105.4835 H   0  0  0  0  0  0
   16.0018   15.2822  105.6798 H   0  0  0  0  0  0
   13.8868   16.2824  104.7320 H   0  0  0  0  0  0
   13.4668   14.6868  104.2166 H   0  0  0  0  0  0
   14.5172   15.8359  102.4037 H   0  0  0  0  0  0
   16.1321   14.2552  101.9024 H   0  0  0  0  0  0
   16.2595   13.7555  103.4317 H   0  0  0  0  0  0
   17.0978   16.0671  104.0567 H   0  0  0  0  0  0
   16.0567   17.4028  103.6081 H   0  0  0  0  0  0
   11.7876   12.7644  107.2098 H   0  0  0  0  0  0
   13.9139   11.6149  106.3559 H   0  0  0  0  0  0
   12.4813   11.4569  105.3530 H   0  0  0  0  0  0
   13.7406   12.5535  104.8775 H   0  0  0  0  0  0
   11.3728   13.6028  104.9980 H   0  0  0  0  0  0
   15.8403   13.3563  109.8446 H   0  0  0  0  0  0
   17.1243   12.2103  109.5833 H   0  0  0  0  0  0
   18.4056   15.5784  110.3315 H   0  0  0  0  0  0
   19.7475   16.0393  112.2945 H   0  0  0  0  0  0
   19.7183   14.4918  114.2118 H   0  0  0  0  0  0
   16.9303   11.9610  112.1693 H   0  0  0  0  0  0
   19.6266   17.0047  105.8765 H   0  0  0  0  0  0
   23.5185   15.6054  104.7746 H   0  0  0  0  0  0
   23.2502   13.6587  106.2181 H   0  0  0  0  0  0
  1  2  1  0  0  0
  1 40  1  0  0  0
  1 41  1  0  0  0
  1 42  1  0  0  0
  2  3  1  0  0  0
  3  4  1  0  0  0
  3  5  1  0  0  0
  3  6  1  0  0  0
  4 43  1  0  0  0
  4 44  1  0  0  0
  4 45  1  0  0  0
  5 46  1  0  0  0
  5 47  1  0  0  0
  5 48  1  0  0  0
  6  7  1  0  0  0
  6 19  1  0  0  0
  6 49  1  0  0  0
  7  8  1  0  0  0
  7 14  1  0  0  0
  8  9  1  0  0  0
  8 50  1  0  0  0
  8 51  1  0  0  0
  9 10  1  0  0  0
  9 52  1  0  0  0
  9 53  1  0  0  0
 10 11  1  0  0  0
 10 12  1  0  0  0
 10 54  1  0  0  0
 11 55  1  0  0  0
 11 56  1  0  0  0
 12 13  1  0  0  0
 12 57  1  0  0  0
 12 58  1  0  0  0
 14 15  2  0  0  0
 14 16  1  0  0  0
 16 17  1  0  0  0
 16 18  1  0  0  0
 16 59  1  0  0  0
 17 60  1  0  0  0
 17 61  1  0  0  0
 17 62  1  0  0  0
 18 63  1  0  0  0
 19 20  2  0  0  0
 19 23  1  0  0  0
 20 21  1  0  0  0
 21 22  2  0  0  0
 21 32  1  0  0  0
 22 23  1  0  0  0
 23 24  1  0  0  0
 24 25  1  0  0  0
 24 64  1  0  0  0
 24 65  1  0  0  0
 25 26  2  0  0  0
 25 31  1  0  0  0
 26 27  1  0  0  0
 26 66  1  0  0  0
 27 28  2  0  0  0
 27 67  1  0  0  0
 28 29  1  0  0  0
 28 68  1  0  0  0
 29 30  1  0  0  0
 29 31  2  0  0  0
 31 69  1  0  0  0
 32 33  2  0  0  0
 32 38  1  0  0  0
 33 34  1  0  0  0
 33 70  1  0  0  0
 34 35  1  0  0  0
 34 36  2  0  0  0
 36 37  1  0  0  0
 36 71  1  0  0  0
 37 38  2  0  0  0
 37 72  1  0  0  0
 38 39  1  0  0  0
M  END
> <s_m_entry_id>
258

> <s_m_entry_name>
dock_pv.257

> <s_m_Source_Path>
/home/csk/Desktop/cluster/DUD-E-result/kif11

> <s_m_Source_File>
dock_pv.maegz

> <i_m_Source_File_Index>
257

> <chembl_id>
CHEMBL3645248

> <chembl_pref_name>
None

> <i_lp_mmshare_version>
53161

> <i_f3d_flags>
0

> <r_lp_tautomer_probability>
1

> <s_lp_Force_Field>
OPLS_2005

> <r_lp_Energy>
43.742829

> <b_lp_Chiralities_Consistent>
1

> <s_lp_Variant>
CHEMBL4581_lig716-1

> <s_i_glide_gridfile>
glide-grid_3cjo

> <i_i_glide_lignum>
1061

> <i_i_glide_rotatable_bonds>
14

> <r_i_docking_score>
-7.81551598300998

> <r_i_glide_ligand_efficiency>
-0.200397845718205

> <r_i_glide_ligand_efficiency_sa>
-0.679591466725055

> <r_i_glide_ligand_efficiency_ln>
-1.67586848337176

> <r_i_glide_gscore>
-7.81551598300998

> <r_i_glide_lipo>
-4.20994696070887

> <r_i_glide_hbond>
0

> <r_i_glide_metal>
0

> <r_i_glide_rewards>
-1.64891296511146

> <r_i_glide_evdw>
-46.9299850463867

> <r_i_glide_ecoul>
-1.67982316017151

> <r_i_glide_erotb>
0.67955411477789

> <r_i_glide_esite>
-0.0377374456224856

> <r_i_glide_emodel>
-60.0844353984462

> <r_i_glide_energy>
-48.6098082065582

> <r_i_glide_einternal>
18.3144016265869

> <i_i_glide_confnum>
463

> <i_i_glide_posenum>
170

> <r_i_glide_eff_state_penalty>
0

> <s_user_duplicate_titles>
CHEMBL4581_lig716

> <s_m_subgroup_title>
dock_pv

> <s_m_subgroupid>
dock_pv

> <b_m_subgroup_collapsed>
1

$$$$
CHEMBL4581_lig65
                    3D
 Schrodinger Suite 2021-1.
 48 50  0  0  1  0            999 V2000
   19.2770   13.3924  108.9617 C   0  0  0  0  0  0
   17.9176   13.6093  109.4953 N   0  0  0  0  0  0
   16.8998   13.8752  108.4689 C   0  0  0  0  0  0
   17.2473   15.2842  107.9298 C   0  0  2  0  0  0
   19.6331   14.3622  107.8156 C   0  0  0  0  0  0
   18.6502   15.2416  107.3093 C   0  0  0  0  0  0
   18.9775   16.1028  106.2656 C   0  0  0  0  0  0
   20.2564   16.1425  105.7384 C   0  0  0  0  0  0
   21.2256   15.2494  106.1791 C   0  0  0  0  0  0
   20.9102   14.3510  107.2171 C   0  0  0  0  0  0
   21.9328   13.3150  107.6808 C   0  0  0  0  0  0
   22.5887   15.2759  105.4947 C   0  0  0  0  0  0
   17.5355   13.2675  110.7548 C   0  0  0  0  0  0
   16.4296   12.7618  110.9591 O   0  0  0  0  0  0
   18.3903   13.5298  111.7826 N   0  0  0  0  0  0
   19.2992   14.6825  111.8321 C   0  0  0  0  0  0
   18.2607   12.8454  113.0717 C   0  0  0  0  0  0
   17.0638   16.3989  108.9839 C   0  0  0  0  0  0
   18.0927   17.3020  109.3009 C   0  0  0  0  0  0
   17.9163   18.2735  110.2827 C   0  0  0  0  0  0
   16.7057   18.3618  110.9590 C   0  0  0  0  0  0
   15.6752   17.4757  110.6634 C   0  0  0  0  0  0
   15.8491   16.5034  109.6787 C   0  0  0  0  0  0
   14.5017   17.5620  111.3577 O   0  0  0  0  0  0
   20.0391   13.4353  109.7386 H   0  0  0  0  0  0
   19.3105   12.3751  108.5752 H   0  0  0  0  0  0
   15.8786   13.8175  108.8478 H   0  0  0  0  0  0
   16.9701   13.1212  107.6821 H   0  0  0  0  0  0
   16.5364   15.5254  107.1376 H   0  0  0  0  0  0
   18.2235   16.7620  105.8690 H   0  0  0  0  0  0
   20.4756   16.8399  104.9433 H   0  0  0  0  0  0
   22.7448   13.1912  106.9727 H   0  0  0  0  0  0
   22.3223   13.5619  108.6669 H   0  0  0  0  0  0
   21.5027   12.3228  107.7614 H   0  0  0  0  0  0
   22.7420   14.3579  104.9264 H   0  0  0  0  0  0
   22.6936   16.1214  104.8129 H   0  0  0  0  0  0
   23.3942   15.3513  106.2240 H   0  0  0  0  0  0
   19.3351   15.2424  110.8964 H   0  0  0  0  0  0
   18.9745   15.3788  112.6057 H   0  0  0  0  0  0
   20.3148   14.3640  112.0721 H   0  0  0  0  0  0
   17.6353   11.9539  113.0108 H   0  0  0  0  0  0
   19.2374   12.5332  113.4380 H   0  0  0  0  0  0
   17.8210   13.5124  113.8136 H   0  0  0  0  0  0
   19.0492   17.2630  108.8010 H   0  0  0  0  0  0
   18.7166   18.9573  110.5240 H   0  0  0  0  0  0
   16.5813   19.1157  111.7230 H   0  0  0  0  0  0
   15.0377   15.8237  109.4664 H   0  0  0  0  0  0
   14.5367   18.2710  112.0056 H   0  0  0  0  0  0
  1  5  1  0  0  0
  1  2  1  0  0  0
  1 25  1  0  0  0
  1 26  1  0  0  0
  2 13  1  0  0  0
  2  3  1  0  0  0
  3  4  1  0  0  0
  3 27  1  0  0  0
  3 28  1  0  0  0
  4  6  1  0  0  0
  4 18  1  0  0  0
  4 29  1  0  0  0
  5  6  2  0  0  0
  5 10  1  0  0  0
  6  7  1  0  0  0
  7  8  2  0  0  0
  7 30  1  0  0  0
  8  9  1  0  0  0
  8 31  1  0  0  0
  9 12  1  0  0  0
  9 10  2  0  0  0
 10 11  1  0  0  0
 11 32  1  0  0  0
 11 33  1  0  0  0
 11 34  1  0  0  0
 12 35  1  0  0  0
 12 36  1  0  0  0
 12 37  1  0  0  0
 13 14  2  0  0  0
 13 15  1  0  0  0
 15 16  1  0  0  0
 15 17  1  0  0  0
 16 38  1  0  0  0
 16 39  1  0  0  0
 16 40  1  0  0  0
 17 41  1  0  0  0
 17 42  1  0  0  0
 17 43  1  0  0  0
 18 19  2  0  0  0
 18 23  1  0  0  0
 19 20  1  0  0  0
 19 44  1  0  0  0
 20 21  2  0  0  0
 20 45  1  0  0  0
 21 22  1  0  0  0
 21 46  1  0  0  0
 22 23  2  0  0  0
 22 24  1  0  0  0
 23 47  1  0  0  0
 24 48  1  0  0  0
M  END
> <s_m_entry_id>
259

> <s_m_entry_name>
dock_pv.258

> <s_m_Source_Path>
/home/csk/Desktop/cluster/DUD-E-result/kif11

> <s_m_Source_File>
dock_pv.maegz

> <i_m_Source_File_Index>
258

> <chembl_id>
CHEMBL380367

> <chembl_pref_name>
None

> <i_lp_mmshare_version>
53161

> <i_f3d_flags>
0

> <r_lp_tautomer_probability>
0.999999999997365

> <s_lp_Force_Field>
OPLS_2005

> <r_lp_Energy>
48.192033

> <b_lp_Chiralities_Consistent>
1

> <s_lp_Variant>
CHEMBL4581_lig65-1

> <s_i_glide_gridfile>
glide-grid_3cjo

> <i_i_glide_lignum>
96

> <i_i_glide_rotatable_bonds>
4

> <r_i_docking_score>
-7.80839930633137

> <r_i_glide_ligand_efficiency>
-0.325349971097141

> <r_i_glide_ligand_efficiency_sa>
-0.938471711034586

> <r_i_glide_ligand_efficiency_ln>
-1.86890825810186

> <r_i_glide_gscore>
-7.80839930633137

> <r_i_glide_lipo>
-4.13393573554499

> <r_i_glide_hbond>
-0.113942064512376

> <r_i_glide_metal>
0

> <r_i_glide_rewards>
-1.73854733146464

> <r_i_glide_evdw>
-38.9675521850586

> <r_i_glide_ecoul>
-1.52982568740845

> <r_i_glide_erotb>
0.355877287554827

> <r_i_glide_esite>
0

> <r_i_glide_emodel>
-53.7247948841625

> <r_i_glide_energy>
-40.497377872467

> <r_i_glide_einternal>
5.18309116363525

> <i_i_glide_confnum>
28

> <i_i_glide_posenum>
18

> <r_i_glide_eff_state_penalty>
0

> <s_user_duplicate_titles>
CHEMBL4581_lig65,344774

> <s_m_subgroup_title>
dock_pv

> <s_m_subgroupid>
dock_pv

> <b_m_subgroup_collapsed>
1

$$$$
CHEMBL4581_lig323
                    3D
 Schrodinger Suite 2021-1.
 39 42  0  0  1  0            999 V2000
   21.4817   15.4286  106.1438 C   0  0  0  0  0  0
   21.9481   14.1830  106.5589 C   0  0  0  0  0  0
   21.3602   13.5621  107.6610 C   0  0  0  0  0  0
   20.3590   15.9943  106.7314 C   0  0  0  0  0  0
   19.7429   15.3880  107.8235 C   0  0  0  0  0  0
   20.2880   14.1840  108.3130 C   0  0  0  0  0  0
   19.7529   13.5520  109.4448 N   0  0  0  0  0  0
   18.4765   13.9945  110.0063 C   0  0  2  0  0  0
   18.5102   16.0192  108.4518 C   0  0  2  0  0  0
   18.3338   15.5439  109.9108 C   0  0  1  0  0  0
   16.9901   16.0965  110.4523 C   0  0  0  0  0  0
   15.8214   15.7676  109.5063 C   0  0  0  0  0  0
   16.1523   16.1999  108.0650 C   0  0  0  0  0  0
   17.3913   15.6231  107.6555 O   0  0  0  0  0  0
   18.2987   13.4848  111.4284 C   0  0  0  0  0  0
   19.1150   13.9803  112.4520 C   0  0  0  0  0  0
   18.9103   13.5617  113.7588 C   0  0  0  0  0  0
   17.9028   12.6498  114.0435 C   0  0  0  0  0  0
   17.1179   12.1210  113.0241 C   0  0  0  0  0  0
   17.3092   12.5416  111.7129 C   0  0  0  0  0  0
   22.3180   16.3289  104.9495 Cl  0  0  0  0  0  0
   18.6119   17.1077  108.4351 H   0  0  0  0  0  0
   19.1354   16.0102  110.4862 H   0  0  0  0  0  0
   22.8004   13.7309  106.0727 H   0  0  0  0  0  0
   21.7537   12.6211  108.0145 H   0  0  0  0  0  0
   19.9908   16.9440  106.3683 H   0  0  0  0  0  0
   19.9662   12.5837  109.6366 H   0  0  0  0  0  0
   17.6957   13.5312  109.3992 H   0  0  0  0  0  0
   17.0652   17.1803  110.5662 H   0  0  0  0  0  0
   16.7780   15.7098  111.4485 H   0  0  0  0  0  0
   14.9104   16.2612  109.8466 H   0  0  0  0  0  0
   15.6149   14.6960  109.5261 H   0  0  0  0  0  0
   16.2005   17.2884  107.9852 H   0  0  0  0  0  0
   15.3679   15.8688  107.3833 H   0  0  0  0  0  0
   19.8934   14.6978  112.2366 H   0  0  0  0  0  0
   19.5179   13.9514  114.5580 H   0  0  0  0  0  0
   17.7406   12.3341  115.0636 H   0  0  0  0  0  0
   16.3437   11.4012  113.2532 H   0  0  0  0  0  0
   16.6827   12.1426  110.9271 H   0  0  0  0  0  0
  1  2  2  0  0  0
  1 21  1  0  0  0
  1  4  1  0  0  0
  2  3  1  0  0  0
  2 24  1  0  0  0
  3  6  2  0  0  0
  3 25  1  0  0  0
  4  5  2  0  0  0
  4 26  1  0  0  0
  5  9  1  0  0  0
  5  6  1  0  0  0
  6  7  1  0  0  0
  7  8  1  0  0  0
  7 27  1  0  0  0
  8 10  1  0  0  0
  8 15  1  0  0  0
  8 28  1  0  0  0
  9 14  1  0  0  0
  9 10  1  0  0  0
  9 22  1  0  0  0
 10 11  1  0  0  0
 10 23  1  0  0  0
 11 12  1  0  0  0
 11 29  1  0  0  0
 11 30  1  0  0  0
 12 13  1  0  0  0
 12 31  1  0  0  0
 12 32  1  0  0  0
 13 14  1  0  0  0
 13 33  1  0  0  0
 13 34  1  0  0  0
 15 16  2  0  0  0
 15 20  1  0  0  0
 16 17  1  0  0  0
 16 35  1  0  0  0
 17 18  2  0  0  0
 17 36  1  0  0  0
 18 19  1  0  0  0
 18 37  1  0  0  0
 19 20  2  0  0  0
 19 38  1  0  0  0
 20 39  1  0  0  0
M  END
> <s_m_entry_id>
260

> <s_m_entry_name>
dock_pv.259

> <s_m_Source_Path>
/home/csk/Desktop/cluster/DUD-E-result/kif11

> <s_m_Source_File>
dock_pv.maegz

> <i_m_Source_File_Index>
259

> <chembl_id>
CHEMBL1089393

> <chembl_pref_name>
None

> <i_lp_mmshare_version>
53161

> <i_f3d_flags>
0

> <r_lp_tautomer_probability>
1

> <s_lp_Force_Field>
OPLS_2005

> <r_lp_Energy>
24.078288

> <b_lp_Chiralities_Consistent>
1

> <s_lp_Variant>
CHEMBL4581_lig323-1

> <s_i_glide_gridfile>
glide-grid_3cjo

> <i_i_glide_lignum>
476

> <i_i_glide_rotatable_bonds>
1

> <r_i_docking_score>
-7.8028877847454

> <r_i_glide_ligand_efficiency>
-0.371566084987876

> <r_i_glide_ligand_efficiency_sa>
-1.025122653956

> <r_i_glide_ligand_efficiency_ln>
-1.92924823755892

> <r_i_glide_gscore>
-7.8028877847454

> <r_i_glide_lipo>
-4.69513837973995

> <r_i_glide_hbond>
0

> <r_i_glide_metal>
0

> <r_i_glide_rewards>
-1.45670539393939

> <r_i_glide_evdw>
-36.1379623413086

> <r_i_glide_ecoul>
-0.323718279600143

> <r_i_glide_erotb>
0.204411847939387

> <r_i_glide_esite>
0

> <r_i_glide_emodel>
-51.3371876152811

> <r_i_glide_energy>
-36.4616806209087

> <r_i_glide_einternal>
0.718321025371552

> <i_i_glide_confnum>
2

> <i_i_glide_posenum>
132

> <r_i_glide_eff_state_penalty>
0

> <s_user_duplicate_titles>
CHEMBL4581_lig323,616214

> <s_m_subgroup_title>
dock_pv

> <s_m_subgroupid>
dock_pv

> <b_m_subgroup_collapsed>
1

$$$$
CHEMBL4581_lig407
                    3D
 Schrodinger Suite 2021-1.
 56 59  0  0  1  0            999 V2000
   21.8861   16.3600  105.4276 C   0  0  0  0  0  0
   22.4450   15.1052  105.6565 C   0  0  0  0  0  0
   21.8773   14.1970  106.5514 C   0  0  0  0  0  0
   20.7258   16.7615  106.0883 C   0  0  0  0  0  0
   20.1240   15.8905  107.0106 C   0  0  0  0  0  0
   20.7211   14.6102  107.2230 C   0  0  0  0  0  0
   19.9494   13.9620  108.1589 N   0  0  0  0  0  0
   18.9771   15.9641  107.8787 C   0  0  0  0  0  0
   18.8627   14.7248  108.4821 C   0  0  0  0  0  0
   17.6922   14.2729  109.3572 C   0  0  2  0  0  0
   16.6137   15.2900  109.1915 N   0  0  0  0  0  0
   17.1394   16.6721  109.4586 C   0  0  1  0  0  0
   17.9548   17.0611  108.1743 C   0  0  0  0  0  0
   18.0507   13.9543  110.8087 C   0  0  0  0  0  0
   19.1018   14.6115  111.4668 C   0  0  0  0  0  0
   19.3606   14.3618  112.8135 C   0  0  0  0  0  0
   18.5739   13.4477  113.5112 C   0  0  0  0  0  0
   17.5178   12.8063  112.8705 C   0  0  0  0  0  0
   17.2574   13.0528  111.5229 C   0  0  0  0  0  0
   16.7179   11.9619  113.5835 O   0  0  0  0  0  0
   16.1124   17.7295  109.9504 C   0  0  0  0  0  0
   16.3393   18.9775  109.4695 O   0  0  0  0  0  0
   15.2141   17.4213  110.7387 O   0  0  0  0  0  0
   15.5349   15.0879  108.3623 C   0  0  0  0  0  0
   15.1100   13.6657  107.9197 C   0  0  0  0  0  0
   14.8161   16.0197  107.9898 O   0  0  0  0  0  0
   15.4615   20.0596  109.7643 C   0  0  0  0  0  0
   14.2125   20.0246  108.8698 C   0  0  0  0  0  0
   15.8228   13.3067  106.5940 C   0  0  0  0  0  0
   13.5764   13.5469  107.7336 C   0  0  0  0  0  0
   22.3543   17.0272  104.7178 H   0  0  0  0  0  0
   23.3380   14.8234  105.1170 H   0  0  0  0  0  0
   22.3179   13.2235  106.7102 H   0  0  0  0  0  0
   20.3003   17.7346  105.8972 H   0  0  0  0  0  0
   20.0784   13.0289  108.5215 H   0  0  0  0  0  0
   17.3864   13.3251  108.9209 H   0  0  0  0  0  0
   17.8329   16.6173  110.2960 H   0  0  0  0  0  0
   17.2755   17.1619  107.3295 H   0  0  0  0  0  0
   18.4508   18.0161  108.3193 H   0  0  0  0  0  0
   19.7135   15.3327  110.9441 H   0  0  0  0  0  0
   20.1727   14.8690  113.3131 H   0  0  0  0  0  0
   18.7728   13.2415  114.5529 H   0  0  0  0  0  0
   16.4285   12.5596  111.0361 H   0  0  0  0  0  0
   16.0187   11.5511  113.0634 H   0  0  0  0  0  0
   15.3828   12.9395  108.6844 H   0  0  0  0  0  0
   15.9998   20.9906  109.5842 H   0  0  0  0  0  0
   15.1850   20.0615  110.8205 H   0  0  0  0  0  0
   13.5768   20.8890  109.0608 H   0  0  0  0  0  0
   14.4849   20.0370  107.8138 H   0  0  0  0  0  0
   13.6183   19.1283  109.0510 H   0  0  0  0  0  0
   16.9051   13.2336  106.7095 H   0  0  0  0  0  0
   15.4771   12.3544  106.1963 H   0  0  0  0  0  0
   15.6337   14.0541  105.8214 H   0  0  0  0  0  0
   13.0453   13.7046  108.6736 H   0  0  0  0  0  0
   13.1912   14.2702  107.0128 H   0  0  0  0  0  0
   13.2999   12.5609  107.3589 H   0  0  0  0  0  0
  1  2  2  0  0  0
  1  4  1  0  0  0
  1 31  1  0  0  0
  2  3  1  0  0  0
  2 32  1  0  0  0
  3  6  2  0  0  0
  3 33  1  0  0  0
  4  5  2  0  0  0
  4 34  1  0  0  0
  5  8  1  0  0  0
  5  6  1  0  0  0
  6  7  1  0  0  0
  7  9  1  0  0  0
  7 35  1  0  0  0
  8  9  2  0  0  0
  8 13  1  0  0  0
  9 10  1  0  0  0
 10 14  1  0  0  0
 10 11  1  0  0  0
 10 36  1  0  0  0
 11 24  1  0  0  0
 11 12  1  0  0  0
 12 21  1  0  0  0
 12 13  1  0  0  0
 12 37  1  0  0  0
 13 38  1  0  0  0
 13 39  1  0  0  0
 14 15  2  0  0  0
 14 19  1  0  0  0
 15 16  1  0  0  0
 15 40  1  0  0  0
 16 17  2  0  0  0
 16 41  1  0  0  0
 17 18  1  0  0  0
 17 42  1  0  0  0
 18 19  2  0  0  0
 18 20  1  0  0  0
 19 43  1  0  0  0
 20 44  1  0  0  0
 21 22  1  0  0  0
 21 23  2  0  0  0
 22 27  1  0  0  0
 24 25  1  0  0  0
 24 26  2  0  0  0
 25 29  1  0  0  0
 25 30  1  0  0  0
 25 45  1  0  0  0
 27 28  1  0  0  0
 27 46  1  0  0  0
 27 47  1  0  0  0
 28 48  1  0  0  0
 28 49  1  0  0  0
 28 50  1  0  0  0
 29 51  1  0  0  0
 29 52  1  0  0  0
 29 53  1  0  0  0
 30 54  1  0  0  0
 30 55  1  0  0  0
 30 56  1  0  0  0
M  END
> <s_m_entry_id>
261

> <s_m_entry_name>
dock_pv.260

> <s_m_Source_Path>
/home/csk/Desktop/cluster/DUD-E-result/kif11

> <s_m_Source_File>
dock_pv.maegz

> <i_m_Source_File_Index>
260

> <chembl_id>
CHEMBL1165484

> <chembl_pref_name>
None

> <i_lp_mmshare_version>
53161

> <i_f3d_flags>
0

> <r_lp_tautomer_probability>
0.999999999997365

> <s_lp_Force_Field>
OPLS_2005

> <r_lp_Energy>
30.568346

> <b_lp_Chiralities_Consistent>
1

> <s_lp_Variant>
CHEMBL4581_lig407-3

> <s_i_glide_gridfile>
glide-grid_3cjo

> <i_i_glide_lignum>
602

> <i_i_glide_rotatable_bonds>
7

> <r_i_docking_score>
-7.80247604741178

> <r_i_glide_ligand_efficiency>
-0.260082534913726

> <r_i_glide_ligand_efficiency_sa>
-0.808136905798597

> <r_i_glide_ligand_efficiency_ln>
-1.77280757275764

> <r_i_glide_gscore>
-7.80247604741178

> <r_i_glide_lipo>
-4.41430677065878

> <r_i_glide_hbond>
-0.255410990990017

> <r_i_glide_metal>
0

> <r_i_glide_rewards>
-0.995157911600575

> <r_i_glide_evdw>
-44.7949104309082

> <r_i_glide_ecoul>
-2.49257564544678

> <r_i_glide_erotb>
0.476031494200022

> <r_i_glide_esite>
0

> <r_i_glide_emodel>
-61.6219840371199

> <r_i_glide_energy>
-47.287486076355

> <r_i_glide_einternal>
12.8522157669067

> <i_i_glide_confnum>
29

> <i_i_glide_posenum>
290

> <r_i_glide_eff_state_penalty>
0

> <s_user_duplicate_titles>
CHEMBL4581_lig407,644722

> <s_m_subgroup_title>
dock_pv

> <s_m_subgroupid>
dock_pv

> <b_m_subgroup_collapsed>
1

$$$$
CHEMBL4581_lig845
                    3D
 Schrodinger Suite 2021-1.
 47 49  0  0  1  0            999 V2000
   15.5530   13.6392  105.8315 C   0  0  0  0  0  0
   16.3149   12.4942  105.3601 N   0  0  0  0  0  0
   16.3293   14.4271  106.8994 C   0  0  0  0  0  0
   16.5846   13.5617  108.4921 S   0  0  0  0  0  0
   17.7341   14.5975  109.5334 C   0  0  0  0  0  0
   17.1345   16.0089  109.8129 C   0  0  0  0  0  0
   17.9440   13.9508  110.9420 C   0  0  0  0  0  0
   19.0448   14.6191  108.6918 C   0  0  0  0  0  0
   17.9794   17.1005  110.0628 C   0  0  0  0  0  0
   17.4685   18.3595  110.3516 C   0  0  0  0  0  0
   16.0927   18.5635  110.3915 C   0  0  0  0  0  0
   15.2111   17.4972  110.1550 C   0  0  0  0  0  0
   15.7475   16.2317  109.8681 C   0  0  0  0  0  0
   20.0261   13.6318  108.8742 C   0  0  0  0  0  0
   21.1188   13.5619  108.0183 C   0  0  0  0  0  0
   21.2359   14.4570  106.9587 C   0  0  0  0  0  0
   20.3282   15.4995  106.8196 C   0  0  0  0  0  0
   19.2502   15.5892  107.6946 C   0  0  0  0  0  0
   18.9304   14.4787  111.7943 C   0  0  0  0  0  0
   19.1168   13.9747  113.0784 C   0  0  0  0  0  0
   18.3324   12.9194  113.5278 C   0  0  0  0  0  0
   17.3691   12.3620  112.6962 C   0  0  0  0  0  0
   17.1751   12.8701  111.4144 C   0  0  0  0  0  0
   13.7132   17.6865  110.1851 C   0  0  0  0  0  0
   12.9374   16.8329  109.7582 O   0  0  0  0  0  0
   13.2936   18.8542  110.7509 O   0  0  0  0  0  0
   14.5925   13.3033  106.2229 H   0  0  0  0  0  0
   15.3404   14.2819  104.9768 H   0  0  0  0  0  0
   17.2428   12.7605  105.0266 H   0  0  0  0  0  0
   16.4571   11.8539  106.1344 H   0  0  0  0  0  0
   15.8011   15.3576  107.1090 H   0  0  0  0  0  0
   17.2824   14.7058  106.4615 H   0  0  0  0  0  0
   19.0501   16.9806  110.0510 H   0  0  0  0  0  0
   18.1522   19.1680  110.5551 H   0  0  0  0  0  0
   15.7424   19.5639  110.6039 H   0  0  0  0  0  0
   15.0729   15.4048  109.7034 H   0  0  0  0  0  0
   19.9145   12.8704  109.6322 H   0  0  0  0  0  0
   21.8500   12.7752  108.1387 H   0  0  0  0  0  0
   22.0665   14.3720  106.2731 H   0  0  0  0  0  0
   20.4436   16.2198  106.0221 H   0  0  0  0  0  0
   18.5325   16.3792  107.5341 H   0  0  0  0  0  0
   19.5562   15.2935  111.4666 H   0  0  0  0  0  0
   19.8738   14.3991  113.7217 H   0  0  0  0  0  0
   18.4737   12.5269  114.5252 H   0  0  0  0  0  0
   16.7503   11.5501  113.0498 H   0  0  0  0  0  0
   16.4005   12.4118  110.8215 H   0  0  0  0  0  0
   14.0304   19.3659  111.0842 H   0  0  0  0  0  0
  1  3  1  0  0  0
  1  2  1  0  0  0
  1 27  1  0  0  0
  1 28  1  0  0  0
  2 29  1  0  0  0
  2 30  1  0  0  0
  3  4  1  0  0  0
  3 31  1  0  0  0
  3 32  1  0  0  0
  4  5  1  0  0  0
  5  7  1  0  0  0
  5  8  1  0  0  0
  5  6  1  0  0  0
  6 13  1  0  0  0
  6  9  2  0  0  0
  7 19  2  0  0  0
  7 23  1  0  0  0
  8 14  2  0  0  0
  8 18  1  0  0  0
  9 10  1  0  0  0
  9 33  1  0  0  0
 10 11  2  0  0  0
 10 34  1  0  0  0
 11 12  1  0  0  0
 11 35  1  0  0  0
 12 24  1  0  0  0
 12 13  2  0  0  0
 13 36  1  0  0  0
 14 15  1  0  0  0
 14 37  1  0  0  0
 15 16  2  0  0  0
 15 38  1  0  0  0
 16 17  1  0  0  0
 16 39  1  0  0  0
 17 18  2  0  0  0
 17 40  1  0  0  0
 18 41  1  0  0  0
 19 20  1  0  0  0
 19 42  1  0  0  0
 20 21  2  0  0  0
 20 43  1  0  0  0
 21 22  1  0  0  0
 21 44  1  0  0  0
 22 23  2  0  0  0
 22 45  1  0  0  0
 23 46  1  0  0  0
 24 25  2  0  0  0
 24 26  1  0  0  0
 26 47  1  0  0  0
M  END
> <s_m_entry_id>
262

> <s_m_entry_name>
dock_pv.261

> <s_m_Source_Path>
/home/csk/Desktop/cluster/DUD-E-result/kif11

> <s_m_Source_File>
dock_pv.maegz

> <i_m_Source_File_Index>
261

> <chembl_id>
CHEMBL2024123

> <chembl_pref_name>
None

> <i_lp_mmshare_version>
53161

> <i_f3d_flags>
0

> <r_lp_tautomer_probability>
1

> <s_lp_Force_Field>
OPLS_2005

> <r_lp_Energy>
28.48496

> <b_lp_Chiralities_Consistent>
1

> <s_lp_Variant>
CHEMBL4581_lig845-1

> <s_i_glide_gridfile>
glide-grid_3cjo

> <i_i_glide_lignum>
1232

> <i_i_glide_rotatable_bonds>
8

> <r_i_docking_score>
-7.79880369841079

> <r_i_glide_ligand_efficiency>
-0.299953988400415

> <r_i_glide_ligand_efficiency_sa>
-0.888612510374278

> <r_i_glide_ligand_efficiency_ln>
-1.83152345860963

> <r_i_glide_gscore>
-7.79880369841079

> <r_i_glide_lipo>
-4.60725043574486

> <r_i_glide_hbond>
-0.339451723644283

> <r_i_glide_metal>
0

> <r_i_glide_rewards>
-1.03162264390847

> <r_i_glide_evdw>
-41.7289810180664

> <r_i_glide_ecoul>
-4.04425477981567

> <r_i_glide_erotb>
0.872608372762497

> <r_i_glide_esite>
0

> <r_i_glide_emodel>
-66.6537625532573

> <r_i_glide_energy>
-45.7732357978821

> <r_i_glide_einternal>
3.47007894515991

> <i_i_glide_confnum>
123

> <i_i_glide_posenum>
77

> <r_i_glide_eff_state_penalty>
0

> <s_user_duplicate_titles>
CHEMBL4581_lig845

> <s_m_subgroup_title>
dock_pv

> <s_m_subgroupid>
dock_pv

> <b_m_subgroup_collapsed>
1

$$$$
CHEMBL4581_lig67
                    3D
 Schrodinger Suite 2021-1.
 47 49  0  0  1  0            999 V2000
   17.6903   16.0271  107.5720 C   0  0  0  0  0  0
   16.8991   15.6054  108.7418 N   0  0  0  0  0  0
   16.7192   14.1519  108.7908 C   0  0  0  0  0  0
   18.0950   13.5598  109.1786 C   0  0  1  0  0  0
   19.0340   15.2763  107.5021 C   0  0  0  0  0  0
   19.2571   14.1634  108.3508 C   0  0  0  0  0  0
   20.5206   13.5621  108.3537 C   0  0  0  0  0  0
   21.4959   13.9259  107.4339 C   0  0  0  0  0  0
   21.2655   14.9720  106.5466 C   0  0  0  0  0  0
   20.0384   15.6581  106.5837 C   0  0  0  0  0  0
   19.7663   16.7913  105.5937 C   0  0  0  0  0  0
   22.3873   15.3576  105.5886 C   0  0  0  0  0  0
   18.2594   13.5291  110.7038 C   0  0  0  0  0  0
   17.5523   12.5617  111.4315 C   0  0  0  0  0  0
   17.6594   12.5069  112.8178 C   0  0  0  0  0  0
   18.4712   13.4220  113.4815 C   0  0  0  0  0  0
   19.1724   14.3927  112.7683 C   0  0  0  0  0  0
   19.0714   14.4461  111.3801 C   0  0  0  0  0  0
   16.2310   16.4282  109.6008 C   0  0  0  0  0  0
   15.1948   16.0532  110.1581 O   0  0  0  0  0  0
   16.7352   17.6693  109.8445 N   0  0  0  0  0  0
   18.1608   18.0027  109.8746 C   0  0  0  0  0  0
   15.8868   18.7666  110.3171 C   0  0  0  0  0  0
   17.1199   15.7911  106.6733 H   0  0  0  0  0  0
   17.8534   17.1028  107.5489 H   0  0  0  0  0  0
   16.4231   13.8094  107.7977 H   0  0  0  0  0  0
   15.8989   13.8314  109.4360 H   0  0  0  0  0  0
   18.0638   12.5075  108.8911 H   0  0  0  0  0  0
   20.7085   12.7295  109.0140 H   0  0  0  0  0  0
   22.4358   13.3940  107.4240 H   0  0  0  0  0  0
   20.3788   16.7353  104.6942 H   0  0  0  0  0  0
   18.7379   16.7598  105.2374 H   0  0  0  0  0  0
   19.9367   17.7569  106.0660 H   0  0  0  0  0  0
   22.1172   15.1106  104.5624 H   0  0  0  0  0  0
   22.5767   16.4306  105.6372 H   0  0  0  0  0  0
   23.3261   14.8567  105.8271 H   0  0  0  0  0  0
   16.9178   11.8493  110.9210 H   0  0  0  0  0  0
   17.1135   11.7588  113.3735 H   0  0  0  0  0  0
   18.5594   13.3754  114.5580 H   0  0  0  0  0  0
   19.8044   15.0965  113.2880 H   0  0  0  0  0  0
   19.6149   15.2053  110.8362 H   0  0  0  0  0  0
   18.8078   17.1481  109.6790 H   0  0  0  0  0  0
   18.3576   18.7631  109.1208 H   0  0  0  0  0  0
   18.4411   18.4059  110.8490 H   0  0  0  0  0  0
   14.8229   18.5378  110.2408 H   0  0  0  0  0  0
   16.1079   18.9929  111.3611 H   0  0  0  0  0  0
   16.0719   19.6672  109.7313 H   0  0  0  0  0  0
  1  5  1  0  0  0
  1  2  1  0  0  0
  1 24  1  0  0  0
  1 25  1  0  0  0
  2  3  1  0  0  0
  2 19  1  0  0  0
  3  4  1  0  0  0
  3 26  1  0  0  0
  3 27  1  0  0  0
  4  6  1  0  0  0
  4 13  1  0  0  0
  4 28  1  0  0  0
  5  6  2  0  0  0
  5 10  1  0  0  0
  6  7  1  0  0  0
  7  8  2  0  0  0
  7 29  1  0  0  0
  8  9  1  0  0  0
  8 30  1  0  0  0
  9 12  1  0  0  0
  9 10  2  0  0  0
 10 11  1  0  0  0
 11 31  1  0  0  0
 11 32  1  0  0  0
 11 33  1  0  0  0
 12 34  1  0  0  0
 12 35  1  0  0  0
 12 36  1  0  0  0
 13 14  2  0  0  0
 13 18  1  0  0  0
 14 15  1  0  0  0
 14 37  1  0  0  0
 15 16  2  0  0  0
 15 38  1  0  0  0
 16 17  1  0  0  0
 16 39  1  0  0  0
 17 18  2  0  0  0
 17 40  1  0  0  0
 18 41  1  0  0  0
 19 20  2  0  0  0
 19 21  1  0  0  0
 21 22  1  0  0  0
 21 23  1  0  0  0
 22 42  1  0  0  0
 22 43  1  0  0  0
 22 44  1  0  0  0
 23 45  1  0  0  0
 23 46  1  0  0  0
 23 47  1  0  0  0
M  END
> <s_m_entry_id>
263

> <s_m_entry_name>
dock_pv.262

> <s_m_Source_Path>
/home/csk/Desktop/cluster/DUD-E-result/kif11

> <s_m_Source_File>
dock_pv.maegz

> <i_m_Source_File_Index>
262

> <chembl_id>
CHEMBL378389

> <chembl_pref_name>
None

> <i_lp_mmshare_version>
53161

> <i_f3d_flags>
0

> <r_lp_tautomer_probability>
1

> <s_lp_Force_Field>
OPLS_2005

> <r_lp_Energy>
49.221588

> <b_lp_Chiralities_Consistent>
1

> <s_lp_Variant>
CHEMBL4581_lig67-2

> <s_i_glide_gridfile>
glide-grid_3cjo

> <i_i_glide_lignum>
101

> <i_i_glide_rotatable_bonds>
3

> <r_i_docking_score>
-7.79691818587133

> <r_i_glide_ligand_efficiency>
-0.338996442863971

> <r_i_glide_ligand_efficiency_sa>
-0.964060789140383

> <r_i_glide_ligand_efficiency_ln>
-1.88536551588902

> <r_i_glide_gscore>
-7.79691818587133

> <r_i_glide_lipo>
-4.52284382149877

> <r_i_glide_hbond>
0

> <r_i_glide_metal>
0

> <r_i_glide_rewards>
-1.58075823633809

> <r_i_glide_evdw>
-35.4040489196777

> <r_i_glide_ecoul>
-2.0807785987854

> <r_i_glide_erotb>
0.389003107767224

> <r_i_glide_esite>
0

> <r_i_glide_emodel>
-51.4266095878675

> <r_i_glide_energy>
-37.4848275184631

> <r_i_glide_einternal>
0.900180578231812

> <i_i_glide_confnum>
41

> <i_i_glide_posenum>
160

> <r_i_glide_eff_state_penalty>
0

> <s_user_duplicate_titles>
CHEMBL4581_lig67

> <s_m_subgroup_title>
dock_pv

> <s_m_subgroupid>
dock_pv

> <b_m_subgroup_collapsed>
1

$$$$
CHEMBL4581_lig333
                    3D
 Schrodinger Suite 2021-1.
 45 48  0  0  1  0            999 V2000
   21.2522   16.3090  105.5384 C   0  0  0  0  0  0
   21.8300   15.0919  105.9153 C   0  0  0  0  0  0
   21.2597   14.3585  106.9590 C   0  0  0  0  0  0
   20.1145   16.7607  106.2031 C   0  0  0  0  0  0
   19.5828   16.0814  107.3058 C   0  0  0  0  0  0
   20.1812   14.8676  107.6851 C   0  0  0  0  0  0
   19.7076   14.1252  108.7860 N   0  0  0  0  0  0
   18.4259   14.4698  109.4086 C   0  0  2  0  0  0
   18.3686   16.6274  108.0543 C   0  0  2  0  0  0
   18.2596   16.0154  109.4739 C   0  0  1  0  0  0
   16.9352   16.4976  110.1212 C   0  0  0  0  0  0
   15.7298   16.2392  109.2005 C   0  0  0  0  0  0
   15.9905   16.8090  107.7927 C   0  0  0  0  0  0
   17.2160   16.2953  107.2746 O   0  0  0  0  0  0
   18.2292   13.7835  110.7605 C   0  0  0  0  0  0
   18.9583   14.1863  111.8872 C   0  0  0  0  0  0
   18.7585   13.5546  113.1139 C   0  0  0  0  0  0
   17.8519   12.5016  113.2080 C   0  0  0  0  0  0
   17.1192   12.1056  112.0934 C   0  0  0  0  0  0
   17.2958   12.7498  110.8725 C   0  0  0  0  0  0
   21.8182   17.1496  104.4038 C   0  0  0  0  0  0
   23.0817   14.5565  105.2302 C   0  0  0  0  0  0
   18.4533   17.7098  108.1541 H   0  0  0  0  0  0
   19.0817   16.4298  110.0603 H   0  0  0  0  0  0
   21.7000   13.4157  107.2495 H   0  0  0  0  0  0
   19.6595   17.6836  105.8852 H   0  0  0  0  0  0
   19.9947   13.1664  108.9243 H   0  0  0  0  0  0
   17.6515   14.0755  108.7484 H   0  0  0  0  0  0
   17.0038   17.5680  110.3262 H   0  0  0  0  0  0
   16.7696   16.0205  111.0868 H   0  0  0  0  0  0
   14.8278   16.6784  109.6260 H   0  0  0  0  0  0
   15.5422   15.1655  109.1282 H   0  0  0  0  0  0
   16.0191   17.9000  107.8115 H   0  0  0  0  0  0
   15.1796   16.5308  107.1192 H   0  0  0  0  0  0
   19.6812   14.9869  111.8117 H   0  0  0  0  0  0
   19.3256   13.8580  113.9795 H   0  0  0  0  0  0
   17.7160   11.9700  114.1407 H   0  0  0  0  0  0
   16.3984   11.3059  112.1781 H   0  0  0  0  0  0
   16.7211   12.4274  110.0154 H   0  0  0  0  0  0
   21.1496   17.9616  104.1211 H   0  0  0  0  0  0
   22.7889   17.5607  104.6757 H   0  0  0  0  0  0
   21.9429   16.5400  103.5156 H   0  0  0  0  0  0
   23.3801   13.5886  105.6270 H   0  0  0  0  0  0
   22.9125   14.4428  104.1608 H   0  0  0  0  0  0
   23.9124   15.2510  105.3639 H   0  0  0  0  0  0
  1  2  2  0  0  0
  1 21  1  0  0  0
  1  4  1  0  0  0
  2  3  1  0  0  0
  2 22  1  0  0  0
  3  6  2  0  0  0
  3 25  1  0  0  0
  4  5  2  0  0  0
  4 26  1  0  0  0
  5  9  1  0  0  0
  5  6  1  0  0  0
  6  7  1  0  0  0
  7  8  1  0  0  0
  7 27  1  0  0  0
  8 10  1  0  0  0
  8 15  1  0  0  0
  8 28  1  0  0  0
  9 14  1  0  0  0
  9 10  1  0  0  0
  9 23  1  0  0  0
 10 11  1  0  0  0
 10 24  1  0  0  0
 11 12  1  0  0  0
 11 29  1  0  0  0
 11 30  1  0  0  0
 12 13  1  0  0  0
 12 31  1  0  0  0
 12 32  1  0  0  0
 13 14  1  0  0  0
 13 33  1  0  0  0
 13 34  1  0  0  0
 15 16  2  0  0  0
 15 20  1  0  0  0
 16 17  1  0  0  0
 16 35  1  0  0  0
 17 18  2  0  0  0
 17 36  1  0  0  0
 18 19  1  0  0  0
 18 37  1  0  0  0
 19 20  2  0  0  0
 19 38  1  0  0  0
 20 39  1  0  0  0
 21 40  1  0  0  0
 21 41  1  0  0  0
 21 42  1  0  0  0
 22 43  1  0  0  0
 22 44  1  0  0  0
 22 45  1  0  0  0
M  END
> <s_m_entry_id>
264

> <s_m_entry_name>
dock_pv.263

> <s_m_Source_Path>
/home/csk/Desktop/cluster/DUD-E-result/kif11

> <s_m_Source_File>
dock_pv.maegz

> <i_m_Source_File_Index>
263

> <chembl_id>
CHEMBL1078573

> <chembl_pref_name>
None

> <i_lp_mmshare_version>
53161

> <i_f3d_flags>
0

> <r_lp_tautomer_probability>
1

> <s_lp_Force_Field>
OPLS_2005

> <r_lp_Energy>
25.877051

> <b_lp_Chiralities_Consistent>
1

> <s_lp_Variant>
CHEMBL4581_lig333-1

> <s_i_glide_gridfile>
glide-grid_3cjo

> <i_i_glide_lignum>
486

> <i_i_glide_rotatable_bonds>
1

> <r_i_docking_score>
-7.78774229436116

> <r_i_glide_ligand_efficiency>
-0.353988286107325

> <r_i_glide_ligand_efficiency_sa>
-0.991889099242027

> <r_i_glide_ligand_efficiency_ln>
-1.90360828154404

> <r_i_glide_gscore>
-7.78774229436116

> <r_i_glide_lipo>
-4.6563678866623

> <r_i_glide_hbond>
0

> <r_i_glide_metal>
0

> <r_i_glide_rewards>
-1.50028448484848

> <r_i_glide_evdw>
-34.1492691040039

> <r_i_glide_ecoul>
-0.905898153781891

> <r_i_glide_erotb>
0.212258255417106

> <r_i_glide_esite>
0

> <r_i_glide_emodel>
-48.735108215611

> <r_i_glide_energy>
-35.0551672577858

> <r_i_glide_einternal>
0.679346740245819

> <i_i_glide_confnum>
2

> <i_i_glide_posenum>
9

> <r_i_glide_eff_state_penalty>
0

> <s_user_duplicate_titles>
CHEMBL4581_lig333

> <s_m_subgroup_title>
dock_pv

> <s_m_subgroupid>
dock_pv

> <b_m_subgroup_collapsed>
1

$$$$
CHEMBL4581_lig10
                    3D
 Schrodinger Suite 2021-1.
 49 50  0  0  1  0            999 V2000
   17.9452   14.4477  109.3751 C   0  0  0  0  0  0
   16.9526   13.2129  108.4066 S   0  0  0  0  0  0
   17.1616   15.8282  109.4319 C   0  0  1  0  0  0
   18.1445   13.9454  110.8473 C   0  0  0  0  0  0
   19.2901   14.5250  108.5879 C   0  0  0  0  0  0
   19.1179   14.5476  111.6613 C   0  0  0  0  0  0
   19.2665   14.1832  112.9973 C   0  0  0  0  0  0
   18.4712   13.1738  113.5313 C   0  0  0  0  0  0
   17.5180   12.5413  112.7425 C   0  0  0  0  0  0
   17.3496   12.9305  111.4168 C   0  0  0  0  0  0
   19.4811   15.4559  107.5484 C   0  0  0  0  0  0
   20.5779   15.3641  106.6971 C   0  0  0  0  0  0
   21.5180   14.3620  106.8959 C   0  0  0  0  0  0
   21.4142   13.5072  107.9867 C   0  0  0  0  0  0
   20.2986   13.5744  108.8178 C   0  0  0  0  0  0
   17.0084   13.7736  106.6689 C   0  0  0  0  0  0
   16.0298   13.0327  105.7410 C   0  0  1  0  0  0
   14.5537   13.3851  106.0338 C   0  0  0  0  0  0
   13.9181   12.3621  106.6720 O   0  0  0  0  0  0
   14.0357   14.4589  105.7235 O   0  0  0  0  0  0
   16.3180   13.3564  104.3334 N   0  0  0  0  0  0
   15.7828   15.7260  110.1306 C   0  0  0  0  0  0
   17.9697   17.0105  110.0445 C   0  0  0  0  0  0
   17.4472   18.4055  109.6817 C   0  0  0  0  0  0
   16.9249   16.1147  108.4097 H   0  0  0  0  0  0
   19.7599   15.3198  111.2644 H   0  0  0  0  0  0
   20.0100   14.6691  113.6120 H   0  0  0  0  0  0
   18.5951   12.8777  114.5636 H   0  0  0  0  0  0
   16.8963   11.7619  113.1587 H   0  0  0  0  0  0
   16.5725   12.4312  110.8606 H   0  0  0  0  0  0
   18.7513   16.2178  107.3278 H   0  0  0  0  0  0
   20.6836   16.0523  105.8713 H   0  0  0  0  0  0
   22.3608   14.2762  106.2259 H   0  0  0  0  0  0
   22.1742   12.7596  108.1541 H   0  0  0  0  0  0
   20.1932   12.8402  109.6040 H   0  0  0  0  0  0
   16.8403   14.8483  106.6069 H   0  0  0  0  0  0
   18.0193   13.5915  106.3050 H   0  0  0  0  0  0
   16.1767   11.9620  105.8845 H   0  0  0  0  0  0
   14.5200   11.6484  106.9259 H   0  0  0  0  0  0
   17.3118   13.1620  104.1585 H   0  0  0  0  0  0
   15.7967   12.7590  103.7098 H   0  0  0  0  0  0
   15.9069   15.5487  111.1971 H   0  0  0  0  0  0
   15.2019   16.6411  110.0180 H   0  0  0  0  0  0
   15.1694   14.9211  109.7260 H   0  0  0  0  0  0
   17.9859   16.9283  111.1318 H   0  0  0  0  0  0
   19.0140   16.9673  109.7376 H   0  0  0  0  0  0
   18.0700   19.1619  110.1588 H   0  0  0  0  0  0
   17.4766   18.5762  108.6044 H   0  0  0  0  0  0
   16.4257   18.5663  110.0250 H   0  0  0  0  0  0
  1  2  1  0  0  0
  1  4  1  0  0  0
  1  5  1  0  0  0
  1  3  1  0  0  0
  2 16  1  0  0  0
  3 22  1  0  0  0
  3 23  1  0  0  0
  3 25  1  0  0  0
  4 10  1  0  0  0
  4  6  2  0  0  0
  5 15  1  0  0  0
  5 11  2  0  0  0
  6  7  1  0  0  0
  6 26  1  0  0  0
  7  8  2  0  0  0
  7 27  1  0  0  0
  8  9  1  0  0  0
  8 28  1  0  0  0
  9 10  2  0  0  0
  9 29  1  0  0  0
 10 30  1  0  0  0
 11 12  1  0  0  0
 11 31  1  0  0  0
 12 13  2  0  0  0
 12 32  1  0  0  0
 13 14  1  0  0  0
 13 33  1  0  0  0
 14 15  2  0  0  0
 14 34  1  0  0  0
 15 35  1  0  0  0
 16 17  1  0  0  0
 16 36  1  0  0  0
 16 37  1  0  0  0
 17 18  1  0  0  0
 17 21  1  0  0  0
 17 38  1  0  0  0
 18 19  1  0  0  0
 18 20  2  0  0  0
 19 39  1  0  0  0
 21 40  1  0  0  0
 21 41  1  0  0  0
 22 42  1  0  0  0
 22 43  1  0  0  0
 22 44  1  0  0  0
 23 24  1  0  0  0
 23 45  1  0  0  0
 23 46  1  0  0  0
 24 47  1  0  0  0
 24 48  1  0  0  0
 24 49  1  0  0  0
M  END
> <s_m_entry_id>
265

> <s_m_entry_name>
dock_pv.264

> <s_m_Source_Path>
/home/csk/Desktop/cluster/DUD-E-result/kif11

> <s_m_Source_File>
dock_pv.maegz

> <i_m_Source_File_Index>
264

> <chembl_id>
CHEMBL1688930

> <chembl_pref_name>
None

> <i_lp_mmshare_version>
53161

> <i_f3d_flags>
0

> <r_lp_tautomer_probability>
1

> <s_lp_Force_Field>
OPLS_2005

> <r_lp_Energy>
21.354807

> <b_lp_Chiralities_Consistent>
1

> <s_lp_Variant>
CHEMBL4581_lig10-2

> <s_i_glide_gridfile>
glide-grid_3cjo

> <i_i_glide_lignum>
12

> <i_i_glide_rotatable_bonds>
9

> <r_i_docking_score>
-7.7856710459748

> <r_i_glide_ligand_efficiency>
-0.32440296024895

> <r_i_glide_ligand_efficiency_sa>
-0.935740059059721

> <r_i_glide_ligand_efficiency_ln>
-1.86346834246662

> <r_i_glide_gscore>
-7.7856710459748

> <r_i_glide_lipo>
-4.3473112933111

> <r_i_glide_hbond>
-0.152

> <r_i_glide_metal>
0

> <r_i_glide_rewards>
-1.20048787878788

> <r_i_glide_evdw>
-35.5905075073242

> <r_i_glide_ecoul>
-9.48049259185791

> <r_i_glide_erotb>
1.12584773026788

> <r_i_glide_esite>
-0.0101203399988054

> <r_i_glide_emodel>
-65.4305968233436

> <r_i_glide_energy>
-45.0710000991821

> <r_i_glide_einternal>
4.07868528366089

> <i_i_glide_confnum>
70

> <i_i_glide_posenum>
118

> <r_i_glide_eff_state_penalty>
0

> <s_user_duplicate_titles>
CHEMBL4581_lig10

> <s_m_subgroup_title>
dock_pv

> <s_m_subgroupid>
dock_pv

> <b_m_subgroup_collapsed>
1

$$$$
CHEMBL4581_lig775
                    3D
 Schrodinger Suite 2021-1.
 47 50  0  0  1  0            999 V2000
   17.1440   15.0262  109.0263 C   0  0  2  0  0  0
   17.0304   14.0699  110.2709 C   0  0  1  0  0  0
   15.9984   12.9665  109.9687 C   0  0  0  0  0  0
   14.7180   13.5620  109.7590 O   0  0  0  0  0  0
   18.0716   14.1620  107.7367 S   0  0  0  0  0  0
   19.3046   15.4418  107.7832 C   0  0  0  0  0  0
   19.0995   16.3940  108.5910 N   0  0  0  0  0  0
   17.9598   16.2285  109.3075 N   0  0  0  0  0  0
   20.4658   15.3418  106.9042 C   0  0  0  0  0  0
   20.7691   16.4076  106.0491 C   0  0  0  0  0  0
   21.8984   16.3560  105.2355 C   0  0  0  0  0  0
   22.7214   15.2309  105.2577 C   0  0  0  0  0  0
   22.4442   14.1795  106.1273 C   0  0  0  0  0  0
   21.3319   14.2384  106.9616 C   0  0  0  0  0  0
   17.5706   17.1563  110.2393 C   0  0  0  0  0  0
   18.4667   18.3548  110.5593 C   0  0  0  0  0  0
   16.5115   17.0832  110.8677 O   0  0  0  0  0  0
   21.1625   13.2577  107.8820 F   0  0  0  0  0  0
   22.1766   17.3897  104.4136 F   0  0  0  0  0  0
   15.7556   15.3318  108.4328 C   0  0  0  0  0  0
   14.6498   14.5506  108.8048 C   0  0  0  0  0  0
   13.3802   14.7878  108.2785 C   0  0  0  0  0  0
   13.1915   15.8194  107.3627 C   0  0  0  0  0  0
   14.2700   16.6144  106.9819 C   0  0  0  0  0  0
   15.5364   16.3707  107.5129 C   0  0  0  0  0  0
   18.3519   13.5025  110.8719 C   0  0  0  0  0  0
   18.3950   13.4122  112.4117 C   0  0  0  0  0  0
   17.5357   12.3619  112.9238 N   0  0  0  0  0  0
   16.5708   14.6450  111.0738 H   0  0  0  0  0  0
   15.9179   12.2785  110.8077 H   0  0  0  0  0  0
   16.3064   12.3644  109.1121 H   0  0  0  0  0  0
   20.1407   17.2880  106.0172 H   0  0  0  0  0  0
   23.5774   15.1667  104.6035 H   0  0  0  0  0  0
   23.0963   13.3197  106.1608 H   0  0  0  0  0  0
   19.5167   18.0766  110.5780 H   0  0  0  0  0  0
   18.3151   19.1356  109.8196 H   0  0  0  0  0  0
   18.2219   18.7610  111.5397 H   0  0  0  0  0  0
   12.5450   14.1781  108.5876 H   0  0  0  0  0  0
   12.2091   16.0055  106.9554 H   0  0  0  0  0  0
   14.1257   17.4197  106.2751 H   0  0  0  0  0  0
   16.3625   16.9916  107.1974 H   0  0  0  0  0  0
   18.5911   12.5358  110.4274 H   0  0  0  0  0  0
   19.1786   14.1498  110.5810 H   0  0  0  0  0  0
   19.4146   13.2013  112.7378 H   0  0  0  0  0  0
   18.1171   14.3673  112.8592 H   0  0  0  0  0  0
   17.5541   12.3576  113.9352 H   0  0  0  0  0  0
   16.5750   12.5156  112.6557 H   0  0  0  0  0  0
  1  2  1  0  0  0
  1 20  1  0  0  0
  1  8  1  0  0  0
  1  5  1  0  0  0
  2  3  1  0  0  0
  2 26  1  0  0  0
  2 29  1  0  0  0
  3  4  1  0  0  0
  3 30  1  0  0  0
  3 31  1  0  0  0
  4 21  1  0  0  0
  5  6  1  0  0  0
  6  7  2  0  0  0
  6  9  1  0  0  0
  7  8  1  0  0  0
  8 15  1  0  0  0
  9 10  2  0  0  0
  9 14  1  0  0  0
 10 11  1  0  0  0
 10 32  1  0  0  0
 11 12  2  0  0  0
 11 19  1  0  0  0
 12 13  1  0  0  0
 12 33  1  0  0  0
 13 14  2  0  0  0
 13 34  1  0  0  0
 14 18  1  0  0  0
 15 16  1  0  0  0
 15 17  2  0  0  0
 16 35  1  0  0  0
 16 36  1  0  0  0
 16 37  1  0  0  0
 20 21  2  0  0  0
 20 25  1  0  0  0
 21 22  1  0  0  0
 22 23  2  0  0  0
 22 38  1  0  0  0
 23 24  1  0  0  0
 23 39  1  0  0  0
 24 25  2  0  0  0
 24 40  1  0  0  0
 25 41  1  0  0  0
 26 27  1  0  0  0
 26 42  1  0  0  0
 26 43  1  0  0  0
 27 28  1  0  0  0
 27 44  1  0  0  0
 27 45  1  0  0  0
 28 46  1  0  0  0
 28 47  1  0  0  0
M  END
> <s_m_entry_id>
266

> <s_m_entry_name>
dock_pv.265

> <s_m_Source_Path>
/home/csk/Desktop/cluster/DUD-E-result/kif11

> <s_m_Source_File>
dock_pv.maegz

> <i_m_Source_File_Index>
265

> <chembl_id>
CHEMBL3403382

> <chembl_pref_name>
None

> <i_lp_mmshare_version>
53161

> <i_f3d_flags>
0

> <r_lp_tautomer_probability>
1

> <s_lp_Force_Field>
OPLS_2005

> <r_lp_Energy>
31.28161

> <b_lp_Chiralities_Consistent>
1

> <s_lp_Variant>
CHEMBL4581_lig775-3

> <s_i_glide_gridfile>
glide-grid_3cjo

> <i_i_glide_lignum>
1157

> <i_i_glide_rotatable_bonds>
4

> <r_i_docking_score>
-7.78556586236254

> <r_i_glide_ligand_efficiency>
-0.278055923655805

> <r_i_glide_ligand_efficiency_sa>
-0.84434155040008

> <r_i_glide_ligand_efficiency_ln>
-1.79713719518003

> <r_i_glide_gscore>
-7.78556586236254

> <r_i_glide_lipo>
-3.48270918679842

> <r_i_glide_hbond>
0

> <r_i_glide_metal>
0

> <r_i_glide_rewards>
-2.35832178512985

> <r_i_glide_evdw>
-38.3629875183105

> <r_i_glide_ecoul>
-1.78419733047485

> <r_i_glide_erotb>
0.241244085052481

> <r_i_glide_esite>
0

> <r_i_glide_emodel>
-57.5914350216164

> <r_i_glide_energy>
-40.1471848487854

> <r_i_glide_einternal>
1.74746489524841

> <i_i_glide_confnum>
11

> <i_i_glide_posenum>
298

> <r_i_glide_eff_state_penalty>
0

> <s_user_duplicate_titles>
CHEMBL4581_lig775,CHEMBL4581_lig776

> <s_m_subgroup_title>
dock_pv

> <s_m_subgroupid>
dock_pv

> <b_m_subgroup_collapsed>
1

$$$$
CHEMBL4581_lig878
                    3D
 Schrodinger Suite 2021-1.
 48 50  0  0  1  0            999 V2000
   17.8751   14.8863  109.2202 C   0  0  0  0  0  0
   17.9813   14.2876  110.6662 C   0  0  0  0  0  0
   19.1826   14.5768  108.4134 C   0  0  0  0  0  0
   17.3874   13.0526  110.9849 C   0  0  0  0  0  0
   17.5090   12.5025  112.2573 C   0  0  0  0  0  0
   18.2455   13.1667  113.2317 C   0  0  0  0  0  0
   18.8637   14.3759  112.9369 C   0  0  0  0  0  0
   18.7290   14.9338  111.6673 C   0  0  0  0  0  0
   20.1612   13.6879  108.9000 C   0  0  0  0  0  0
   21.3209   13.4302  108.1758 C   0  0  0  0  0  0
   21.5492   14.0313  106.9484 C   0  0  0  0  0  0
   20.6093   14.9413  106.4618 C   0  0  0  0  0  0
   19.4479   15.2051  107.1743 C   0  0  0  0  0  0
   16.5824   14.3962  108.4704 C   0  0  0  0  0  0
   16.6064   13.8804  107.1584 C   0  0  0  0  0  0
   15.4398   13.4840  106.5134 C   0  0  0  0  0  0
   14.2219   13.5632  107.1771 C   0  0  0  0  0  0
   14.1694   14.0158  108.4896 C   0  0  0  0  0  0
   15.3409   14.4062  109.1305 C   0  0  0  0  0  0
   17.8304   16.7479  109.3019 S   0  0  0  0  0  0
   16.4297   17.3212  110.3009 C   0  0  0  0  0  0
   16.1536   18.8081  110.0511 C   0  0  0  0  0  0
   15.1294   19.2841  110.9591 N   0  0  0  0  0  0
   18.5622   16.0580  106.6109 F   0  0  0  0  0  0
   22.7177   13.6941  106.2987 O   0  0  0  0  0  0
   23.0935   14.4076  105.1265 C   0  0  0  0  0  0
   16.8429   12.4894  110.2405 H   0  0  0  0  0  0
   17.0291   11.5625  112.4822 H   0  0  0  0  0  0
   18.3456   12.7391  114.2192 H   0  0  0  0  0  0
   19.4512   14.8779  113.6908 H   0  0  0  0  0  0
   19.2380   15.8639  111.4606 H   0  0  0  0  0  0
   20.0439   13.1688  109.8390 H   0  0  0  0  0  0
   22.0709   12.7620  108.5589 H   0  0  0  0  0  0
   20.7483   15.4404  105.5160 H   0  0  0  0  0  0
   17.5167   13.7609  106.5962 H   0  0  0  0  0  0
   15.4836   13.0988  105.5052 H   0  0  0  0  0  0
   13.3174   13.2425  106.6799 H   0  0  0  0  0  0
   13.2259   14.0476  109.0140 H   0  0  0  0  0  0
   15.2755   14.7050  110.1637 H   0  0  0  0  0  0
   15.5206   16.7749  110.0687 H   0  0  0  0  0  0
   16.6653   17.1413  111.3522 H   0  0  0  0  0  0
   17.0649   19.3955  110.1666 H   0  0  0  0  0  0
   15.8149   18.9584  109.0246 H   0  0  0  0  0  0
   15.4440   19.1662  111.9178 H   0  0  0  0  0  0
   14.9911   20.2782  110.8307 H   0  0  0  0  0  0
   23.9911   13.9615  104.7024 H   0  0  0  0  0  0
   22.3240   14.3644  104.3594 H   0  0  0  0  0  0
   23.3102   15.4517  105.3536 H   0  0  0  0  0  0
  1  2  1  0  0  0
  1  3  1  0  0  0
  1 14  1  0  0  0
  1 20  1  0  0  0
  2  4  2  0  0  0
  2  8  1  0  0  0
  3  9  2  0  0  0
  3 13  1  0  0  0
  4  5  1  0  0  0
  4 27  1  0  0  0
  5  6  2  0  0  0
  5 28  1  0  0  0
  6  7  1  0  0  0
  6 29  1  0  0  0
  7  8  2  0  0  0
  7 30  1  0  0  0
  8 31  1  0  0  0
  9 10  1  0  0  0
  9 32  1  0  0  0
 10 11  2  0  0  0
 10 33  1  0  0  0
 11 12  1  0  0  0
 11 25  1  0  0  0
 12 13  2  0  0  0
 12 34  1  0  0  0
 13 24  1  0  0  0
 14 15  2  0  0  0
 14 19  1  0  0  0
 15 16  1  0  0  0
 15 35  1  0  0  0
 16 17  2  0  0  0
 16 36  1  0  0  0
 17 18  1  0  0  0
 17 37  1  0  0  0
 18 19  2  0  0  0
 18 38  1  0  0  0
 19 39  1  0  0  0
 20 21  1  0  0  0
 21 22  1  0  0  0
 21 40  1  0  0  0
 21 41  1  0  0  0
 22 23  1  0  0  0
 22 42  1  0  0  0
 22 43  1  0  0  0
 23 44  1  0  0  0
 23 45  1  0  0  0
 25 26  1  0  0  0
 26 46  1  0  0  0
 26 47  1  0  0  0
 26 48  1  0  0  0
M  END
> <s_m_entry_id>
267

> <s_m_entry_name>
dock_pv.266

> <s_m_Source_Path>
/home/csk/Desktop/cluster/DUD-E-result/kif11

> <s_m_Source_File>
dock_pv.maegz

> <i_m_Source_File_Index>
266

> <chembl_id>
CHEMBL2325407

> <chembl_pref_name>
None

> <i_lp_mmshare_version>
53161

> <i_f3d_flags>
0

> <r_lp_tautomer_probability>
1

> <s_lp_Force_Field>
OPLS_2005

> <r_lp_Energy>
28.597956

> <b_lp_Chiralities_Consistent>
1

> <s_lp_Variant>
CHEMBL4581_lig878-1

> <s_i_glide_gridfile>
glide-grid_3cjo

> <i_i_glide_lignum>
1270

> <i_i_glide_rotatable_bonds>
7

> <r_i_docking_score>
-7.78454934868376

> <r_i_glide_ligand_efficiency>
-0.299405744180145

> <r_i_glide_ligand_efficiency_sa>
-0.886988339028964

> <r_i_glide_ligand_efficiency_ln>
-1.82817587134857

> <r_i_glide_gscore>
-7.78454934868376

> <r_i_glide_lipo>
-4.56884319509886

> <r_i_glide_hbond>
-0.32

> <r_i_glide_metal>
0

> <r_i_glide_rewards>
-1.22660274016925

> <r_i_glide_evdw>
-42.7379570007324

> <r_i_glide_ecoul>
-1.63523554801941

> <r_i_glide_erotb>
0.713079768823877

> <r_i_glide_esite>
0

> <r_i_glide_emodel>
-63.9547485797344

> <r_i_glide_energy>
-44.3731925487518

> <r_i_glide_einternal>
2.63130235671997

> <i_i_glide_confnum>
121

> <i_i_glide_posenum>
8

> <r_i_glide_eff_state_penalty>
0

> <s_user_duplicate_titles>
CHEMBL4581_lig878

> <s_m_subgroup_title>
dock_pv

> <s_m_subgroupid>
dock_pv

> <b_m_subgroup_collapsed>
1

$$$$
CHEMBL4581_lig251
                    3D
 Schrodinger Suite 2021-1.
 57 61  0  0  1  0            999 V2000
   21.7339   16.4523  105.3914 C   0  0  0  0  0  0
   22.3971   15.2546  105.6469 C   0  0  0  0  0  0
   21.9048   14.3196  106.5583 C   0  0  0  0  0  0
   20.5353   16.7614  106.0343 C   0  0  0  0  0  0
   20.0048   15.8574  106.9687 C   0  0  0  0  0  0
   20.7176   14.6489  107.2213 C   0  0  0  0  0  0
   19.9906   13.9620  108.1663 N   0  0  0  0  0  0
   18.8238   15.8280  107.7940 C   0  0  0  0  0  0
   18.8247   14.6193  108.4559 C   0  0  0  0  0  0
   17.6585   14.0358  109.2513 C   0  0  2  0  0  0
   17.6752   16.8042  107.9443 C   0  0  0  0  0  0
   16.7222   16.4181  109.1213 C   0  0  2  0  0  0
   16.5231   14.9842  109.1961 N   0  0  0  0  0  0
   15.2261   14.6371  109.2312 C   0  0  0  0  0  0
   14.5445   15.7570  108.8824 N   0  0  0  0  0  0
   15.3003   16.8748  108.8788 C   0  0  0  0  0  0
   14.7559   13.5620  109.6013 O   0  0  0  0  0  0
   14.9541   18.0328  108.6437 O   0  0  0  0  0  0
   17.9489   13.7024  110.7182 C   0  0  0  0  0  0
   17.2513   12.6557  111.3351 C   0  0  0  0  0  0
   17.4640   12.3560  112.6795 C   0  0  0  0  0  0
   18.3978   13.0767  113.4170 C   0  0  0  0  0  0
   19.1202   14.0947  112.8001 C   0  0  0  0  0  0
   18.8982   14.4129  111.4617 C   0  0  0  0  0  0
   13.1565   15.7441  108.3684 C   0  0  0  0  0  0
   12.8319   14.6373  107.3312 C   0  0  0  0  0  0
   13.8082   14.5633  106.1351 C   0  0  0  0  0  0
   13.8772   13.1597  105.4936 C   0  0  0  0  0  0
   15.1513   12.9141  104.6666 C   0  0  0  0  0  0
   16.3180   12.8778  105.5317 N   0  0  0  0  0  0
   20.0836   14.7617  113.4973 O   0  0  0  0  0  0
   17.0777   16.8076  110.0755 H   0  0  0  0  0  0
   22.1481   17.1431  104.6708 H   0  0  0  0  0  0
   23.3145   15.0408  105.1178 H   0  0  0  0  0  0
   22.4263   13.3913  106.7411 H   0  0  0  0  0  0
   20.0228   17.6858  105.8153 H   0  0  0  0  0  0
   20.1944   13.0508  108.5493 H   0  0  0  0  0  0
   17.2973   13.1110  108.7960 H   0  0  0  0  0  0
   17.1349   16.8481  106.9958 H   0  0  0  0  0  0
   18.0601   17.8042  108.1512 H   0  0  0  0  0  0
   16.5235   12.0804  110.7802 H   0  0  0  0  0  0
   16.9003   11.5618  113.1467 H   0  0  0  0  0  0
   18.5667   12.8279  114.4550 H   0  0  0  0  0  0
   19.4638   15.2152  111.0103 H   0  0  0  0  0  0
   12.9467   16.7073  107.8990 H   0  0  0  0  0  0
   12.4767   15.6667  109.2177 H   0  0  0  0  0  0
   11.8151   14.7715  106.9610 H   0  0  0  0  0  0
   12.8077   13.6811  107.8560 H   0  0  0  0  0  0
   14.8108   14.8439  106.4557 H   0  0  0  0  0  0
   13.5376   15.3069  105.3841 H   0  0  0  0  0  0
   12.9995   13.0132  104.8634 H   0  0  0  0  0  0
   13.8159   12.3865  106.2622 H   0  0  0  0  0  0
   15.2756   13.6885  103.9082 H   0  0  0  0  0  0
   15.0733   11.9612  104.1455 H   0  0  0  0  0  0
   16.2556   12.0884  106.1643 H   0  0  0  0  0  0
   17.1848   12.7638  105.0012 H   0  0  0  0  0  0
   20.1566   14.4603  114.4045 H   0  0  0  0  0  0
  1  2  2  0  0  0
  1  4  1  0  0  0
  1 33  1  0  0  0
  2  3  1  0  0  0
  2 34  1  0  0  0
  3  6  2  0  0  0
  3 35  1  0  0  0
  4  5  2  0  0  0
  4 36  1  0  0  0
  5  8  1  0  0  0
  5  6  1  0  0  0
  6  7  1  0  0  0
  7  9  1  0  0  0
  7 37  1  0  0  0
  8  9  2  0  0  0
  8 11  1  0  0  0
  9 10  1  0  0  0
 10 19  1  0  0  0
 10 13  1  0  0  0
 10 38  1  0  0  0
 11 12  1  0  0  0
 11 39  1  0  0  0
 11 40  1  0  0  0
 12 16  1  0  0  0
 12 13  1  0  0  0
 12 32  1  0  0  0
 13 14  1  0  0  0
 14 15  1  0  0  0
 14 17  2  0  0  0
 15 16  1  0  0  0
 15 25  1  0  0  0
 16 18  2  0  0  0
 19 20  2  0  0  0
 19 24  1  0  0  0
 20 21  1  0  0  0
 20 41  1  0  0  0
 21 22  2  0  0  0
 21 42  1  0  0  0
 22 23  1  0  0  0
 22 43  1  0  0  0
 23 24  2  0  0  0
 23 31  1  0  0  0
 24 44  1  0  0  0
 25 26  1  0  0  0
 25 45  1  0  0  0
 25 46  1  0  0  0
 26 27  1  0  0  0
 26 47  1  0  0  0
 26 48  1  0  0  0
 27 28  1  0  0  0
 27 49  1  0  0  0
 27 50  1  0  0  0
 28 29  1  0  0  0
 28 51  1  0  0  0
 28 52  1  0  0  0
 29 30  1  0  0  0
 29 53  1  0  0  0
 29 54  1  0  0  0
 30 55  1  0  0  0
 30 56  1  0  0  0
 31 57  1  0  0  0
M  END
> <s_m_entry_id>
268

> <s_m_entry_name>
dock_pv.267

> <s_m_Source_Path>
/home/csk/Desktop/cluster/DUD-E-result/kif11

> <s_m_Source_File>
dock_pv.maegz

> <i_m_Source_File_Index>
267

> <chembl_id>
CHEMBL399296

> <chembl_pref_name>
None

> <i_lp_mmshare_version>
53161

> <i_f3d_flags>
0

> <r_lp_tautomer_probability>
0.999999999997365

> <s_lp_Force_Field>
OPLS_2005

> <r_lp_Energy>
27.758386

> <b_lp_Chiralities_Consistent>
1

> <s_lp_Variant>
CHEMBL4581_lig251-1

> <s_i_glide_gridfile>
glide-grid_3cjo

> <i_i_glide_lignum>
376

> <i_i_glide_rotatable_bonds>
7

> <r_i_docking_score>
-7.77874666666723

> <r_i_glide_ligand_efficiency>
-0.250927311827975

> <r_i_glide_ligand_efficiency_sa>
-0.788258201630693

> <r_i_glide_ligand_efficiency_ln>
-1.75434576328924

> <r_i_glide_gscore>
-7.77874666666723

> <r_i_glide_lipo>
-4.28999202769174

> <r_i_glide_hbond>
-0.292129069335114

> <r_i_glide_metal>
0

> <r_i_glide_rewards>
-1.01660279823016

> <r_i_glide_evdw>
-43.1588897705078

> <r_i_glide_ecoul>
-3.91095495223999

> <r_i_glide_erotb>
0.564564959951166

> <r_i_glide_esite>
0

> <r_i_glide_emodel>
-65.3267965965439

> <r_i_glide_energy>
-47.0698447227478

> <r_i_glide_einternal>
5.63287115097046

> <i_i_glide_confnum>
24

> <i_i_glide_posenum>
97

> <r_i_glide_eff_state_penalty>
0

> <s_user_duplicate_titles>
CHEMBL4581_lig251,418757

> <s_m_subgroup_title>
dock_pv

> <s_m_subgroupid>
dock_pv

> <b_m_subgroup_collapsed>
1

$$$$
CHEMBL4581_lig137
                    3D
 Schrodinger Suite 2021-1.
 46 48  0  0  1  0            999 V2000
   19.3450   15.4234  110.8372 O   0  0  0  0  0  0
   19.0277   14.2417  110.6794 C   0  0  0  0  0  0
   18.3967   13.4920  111.7197 C   0  0  0  0  0  0
   18.6742   13.9620  113.3590 S   0  0  0  0  0  0
   17.6406   12.7074  113.9373 C   0  0  0  0  0  0
   17.1018   11.9683  112.8974 C   0  0  0  0  0  0
   17.5180   12.4107  111.6380 C   0  0  0  0  0  0
   19.3452   13.4914  109.6105 N   0  0  0  0  0  0
   20.0496   13.9883  108.5395 C   0  0  0  0  0  0
   21.5180   13.1620  108.1500 S   0  0  0  0  0  0
   21.7482   14.2009  106.7871 C   0  0  0  0  0  0
   20.7731   15.2059  106.6955 C   0  0  0  0  0  0
   20.8852   16.3547  105.6922 C   0  0  0  0  0  0
   22.3313   16.4608  105.1522 C   0  0  0  0  0  0
   22.9215   15.0886  104.7717 C   0  0  0  0  0  0
   23.0020   14.1115  105.9458 C   0  0  0  0  0  0
   19.7693   15.0592  107.6752 C   0  0  0  0  0  0
   18.5651   15.8596  107.7014 C   0  0  0  0  0  0
   18.5384   16.8763  108.3938 O   0  0  0  0  0  0
   17.5319   15.4616  106.9048 N   0  0  0  0  0  0
   16.3025   16.2754  106.8233 C   0  0  0  0  0  0
   15.9006   16.6677  105.3916 C   0  0  0  0  0  0
   17.4929   14.1764  106.1779 C   0  0  0  0  0  0
   16.5011   13.1620  106.7633 C   0  0  0  0  0  0
   17.4795   12.5768  114.9978 H   0  0  0  0  0  0
   16.3999   11.1620  113.0466 H   0  0  0  0  0  0
   17.1854   11.9627  110.7114 H   0  0  0  0  0  0
   19.2341   12.4892  109.6769 H   0  0  0  0  0  0
   20.6011   17.3026  106.1520 H   0  0  0  0  0  0
   20.1733   16.2022  104.8851 H   0  0  0  0  0  0
   22.3395   17.1259  104.2876 H   0  0  0  0  0  0
   22.9692   16.9310  105.9027 H   0  0  0  0  0  0
   22.3180   14.6418  103.9979 H   0  0  0  0  0  0
   23.9122   15.1620  104.3320 H   0  0  0  0  0  0
   23.1180   13.1044  105.5568 H   0  0  0  0  0  0
   23.8772   14.3627  106.5432 H   0  0  0  0  0  0
   15.4888   15.7230  107.2937 H   0  0  0  0  0  0
   16.3896   17.1932  107.4077 H   0  0  0  0  0  0
   15.0561   17.3567  105.4104 H   0  0  0  0  0  0
   16.7188   17.1617  104.8672 H   0  0  0  0  0  0
   15.5865   15.8027  104.8077 H   0  0  0  0  0  0
   17.2538   14.3611  105.1308 H   0  0  0  0  0  0
   18.4682   13.6945  106.1590 H   0  0  0  0  0  0
   16.5352   12.2387  106.1848 H   0  0  0  0  0  0
   16.7479   12.9106  107.7955 H   0  0  0  0  0  0
   15.4729   13.5206  106.7259 H   0  0  0  0  0  0
  1  2  2  0  0  0
  2  3  1  0  0  0
  2  8  1  0  0  0
  3  7  2  0  0  0
  3  4  1  0  0  0
  4  5  1  0  0  0
  5  6  2  0  0  0
  5 25  1  0  0  0
  6  7  1  0  0  0
  6 26  1  0  0  0
  7 27  1  0  0  0
  8  9  1  0  0  0
  8 28  1  0  0  0
  9 17  2  0  0  0
  9 10  1  0  0  0
 10 11  1  0  0  0
 11 12  2  0  0  0
 11 16  1  0  0  0
 12 17  1  0  0  0
 12 13  1  0  0  0
 13 14  1  0  0  0
 13 29  1  0  0  0
 13 30  1  0  0  0
 14 15  1  0  0  0
 14 31  1  0  0  0
 14 32  1  0  0  0
 15 16  1  0  0  0
 15 33  1  0  0  0
 15 34  1  0  0  0
 16 35  1  0  0  0
 16 36  1  0  0  0
 17 18  1  0  0  0
 18 20  1  0  0  0
 18 19  2  0  0  0
 20 23  1  0  0  0
 20 21  1  0  0  0
 21 22  1  0  0  0
 21 37  1  0  0  0
 21 38  1  0  0  0
 22 39  1  0  0  0
 22 40  1  0  0  0
 22 41  1  0  0  0
 23 24  1  0  0  0
 23 42  1  0  0  0
 23 43  1  0  0  0
 24 44  1  0  0  0
 24 45  1  0  0  0
 24 46  1  0  0  0
M  END
> <s_m_entry_id>
269

> <s_m_entry_name>
dock_pv.268

> <s_m_Source_Path>
/home/csk/Desktop/cluster/DUD-E-result/kif11

> <s_m_Source_File>
dock_pv.maegz

> <i_m_Source_File_Index>
268

> <chembl_id>
CHEMBL228369

> <chembl_pref_name>
None

> <i_lp_mmshare_version>
53161

> <i_f3d_flags>
0

> <r_lp_tautomer_probability>
1

> <s_lp_Force_Field>
OPLS_2005

> <r_lp_Energy>
32.892687

> <b_lp_Chiralities_Consistent>
1

> <s_lp_Variant>
CHEMBL4581_lig137-1

> <s_i_glide_gridfile>
glide-grid_3cjo

> <i_i_glide_lignum>
233

> <i_i_glide_rotatable_bonds>
7

> <r_i_docking_score>
-7.77812363087545

> <r_i_glide_ligand_efficiency>
-0.324088484619811

> <r_i_glide_ligand_efficiency_sa>
-0.934832954378686

> <r_i_glide_ligand_efficiency_ln>
-1.86166189970504

> <r_i_glide_gscore>
-7.77812363087545

> <r_i_glide_lipo>
-4.23866713234103

> <r_i_glide_hbond>
-0.218459403349446

> <r_i_glide_metal>
0

> <r_i_glide_rewards>
-1.60030025496342

> <r_i_glide_evdw>
-37.8269882202148

> <r_i_glide_ecoul>
-3.73311901092529

> <r_i_glide_erotb>
0.730620422427976

> <r_i_glide_esite>
0

> <r_i_glide_emodel>
-53.7363355417827

> <r_i_glide_energy>
-41.5601072311401

> <r_i_glide_einternal>
10.2336339950562

> <i_i_glide_confnum>
126

> <i_i_glide_posenum>
149

> <r_i_glide_eff_state_penalty>
0

> <s_user_duplicate_titles>
CHEMBL4581_lig137,385624

> <s_m_subgroup_title>
dock_pv

> <s_m_subgroupid>
dock_pv

> <b_m_subgroup_collapsed>
1

$$$$
CHEMBL4581_lig818
                    3D
 Schrodinger Suite 2021-1.
 44 46  0  0  1  0            999 V2000
   15.5850   13.6701  105.8294 C   0  0  0  0  0  0
   16.3179   12.5059  105.3593 N   0  0  0  0  0  0
   16.3939   14.4406  106.8834 C   0  0  0  0  0  0
   16.6579   13.5552  108.4603 S   0  0  0  0  0  0
   17.8042   14.5850  109.5067 C   0  0  0  0  0  0
   17.2020   15.9942  109.7838 C   0  0  0  0  0  0
   17.9970   13.9410  110.9191 C   0  0  0  0  0  0
   19.1229   14.6048  108.6769 C   0  0  0  0  0  0
   18.0415   17.0986  110.0144 C   0  0  0  0  0  0
   17.5193   18.3540  110.3109 C   0  0  0  0  0  0
   16.1403   18.5407  110.3657 C   0  0  0  0  0  0
   15.2877   17.4639  110.1336 C   0  0  0  0  0  0
   15.8133   16.2019  109.8581 C   0  0  0  0  0  0
   19.3299   15.5632  107.6672 C   0  0  0  0  0  0
   20.4114   15.4663  106.7989 C   0  0  0  0  0  0
   21.3259   14.4324  106.9587 C   0  0  0  0  0  0
   21.2096   13.5524  108.0286 C   0  0  0  0  0  0
   20.1074   13.6241  108.8754 C   0  0  0  0  0  0
   17.2289   12.8553  111.3831 C   0  0  0  0  0  0
   17.3963   12.3618  112.6741 C   0  0  0  0  0  0
   18.3337   12.9365  113.5233 C   0  0  0  0  0  0
   19.1181   13.9967  113.0828 C   0  0  0  0  0  0
   18.9569   14.4859  111.7898 C   0  0  0  0  0  0
   13.4024   17.7099  110.1961 Br  0  0  0  0  0  0
   14.6233   13.3560  106.2379 H   0  0  0  0  0  0
   15.3748   14.3160  104.9749 H   0  0  0  0  0  0
   17.2509   12.7587  105.0265 H   0  0  0  0  0  0
   16.4471   11.8599  106.1297 H   0  0  0  0  0  0
   15.8891   15.3815  107.1021 H   0  0  0  0  0  0
   17.3468   14.6974  106.4290 H   0  0  0  0  0  0
   19.1169   16.9890  109.9904 H   0  0  0  0  0  0
   18.1945   19.1700  110.5096 H   0  0  0  0  0  0
   15.7350   19.5160  110.5964 H   0  0  0  0  0  0
   15.1230   15.3855  109.7118 H   0  0  0  0  0  0
   18.6095   16.3479  107.4929 H   0  0  0  0  0  0
   20.5278   16.1764  105.9925 H   0  0  0  0  0  0
   22.1593   14.3406  106.2769 H   0  0  0  0  0  0
   21.9421   12.7694  108.1589 H   0  0  0  0  0  0
   19.9950   12.8698  109.6407 H   0  0  0  0  0  0
   16.4715   12.3828  110.7774 H   0  0  0  0  0  0
   16.7775   11.5481  113.0200 H   0  0  0  0  0  0
   18.4560   12.5557  114.5278 H   0  0  0  0  0  0
   19.8539   14.4357  113.7409 H   0  0  0  0  0  0
   19.5780   15.3083  111.4701 H   0  0  0  0  0  0
  1  2  1  0  0  0
  1  3  1  0  0  0
  1 25  1  0  0  0
  1 26  1  0  0  0
  2 27  1  0  0  0
  2 28  1  0  0  0
  3  4  1  0  0  0
  3 29  1  0  0  0
  3 30  1  0  0  0
  4  5  1  0  0  0
  5  7  1  0  0  0
  5  8  1  0  0  0
  5  6  1  0  0  0
  6 13  1  0  0  0
  6  9  2  0  0  0
  7 19  2  0  0  0
  7 23  1  0  0  0
  8 14  2  0  0  0
  8 18  1  0  0  0
  9 10  1  0  0  0
  9 31  1  0  0  0
 10 11  2  0  0  0
 10 32  1  0  0  0
 11 12  1  0  0  0
 11 33  1  0  0  0
 12 13  2  0  0  0
 12 24  1  0  0  0
 13 34  1  0  0  0
 14 15  1  0  0  0
 14 35  1  0  0  0
 15 16  2  0  0  0
 15 36  1  0  0  0
 16 17  1  0  0  0
 16 37  1  0  0  0
 17 18  2  0  0  0
 17 38  1  0  0  0
 18 39  1  0  0  0
 19 20  1  0  0  0
 19 40  1  0  0  0
 20 21  2  0  0  0
 20 41  1  0  0  0
 21 22  1  0  0  0
 21 42  1  0  0  0
 22 23  2  0  0  0
 22 43  1  0  0  0
 23 44  1  0  0  0
M  END
> <s_m_entry_id>
270

> <s_m_entry_name>
dock_pv.269

> <s_m_Source_Path>
/home/csk/Desktop/cluster/DUD-E-result/kif11

> <s_m_Source_File>
dock_pv.maegz

> <i_m_Source_File_Index>
269

> <chembl_id>
CHEMBL2022980

> <chembl_pref_name>
None

> <i_lp_mmshare_version>
53161

> <i_f3d_flags>
0

> <r_lp_tautomer_probability>
1

> <s_lp_Force_Field>
OPLS_2005

> <r_lp_Energy>
24.040384

> <b_lp_Chiralities_Consistent>
1

> <s_lp_Variant>
CHEMBL4581_lig818-1

> <s_i_glide_gridfile>
glide-grid_3cjo

> <i_i_glide_lignum>
1205

> <i_i_glide_rotatable_bonds>
6

> <r_i_docking_score>
-7.77661142468211

> <r_i_glide_ligand_efficiency>
-0.324025476028421

> <r_i_glide_ligand_efficiency_sa>
-0.934651206151164

> <r_i_glide_ligand_efficiency_ln>
-1.86129995937235

> <r_i_glide_gscore>
-7.77661142468211

> <r_i_glide_lipo>
-4.65927073664176

> <r_i_glide_hbond>
-0.340179620446485

> <r_i_glide_metal>
0

> <r_i_glide_rewards>
-0.801331969696969

> <r_i_glide_evdw>
-40.9133605957031

> <r_i_glide_ecoul>
-3.64804005622864

> <r_i_glide_erotb>
0.617044940322561

> <r_i_glide_esite>
0

> <r_i_glide_emodel>
-65.4215300606296

> <r_i_glide_energy>
-44.5614006519318

> <r_i_glide_einternal>
1.94195890426636

> <i_i_glide_confnum>
98

> <i_i_glide_posenum>
181

> <r_i_glide_eff_state_penalty>
0

> <s_user_duplicate_titles>
CHEMBL4581_lig818

> <s_m_subgroup_title>
dock_pv

> <s_m_subgroupid>
dock_pv

> <b_m_subgroup_collapsed>
1

$$$$
CHEMBL4581_lig862
                    3D
 Schrodinger Suite 2021-1.
 57 60  0  0  1  0            999 V2000
   17.1158   15.2722  109.4536 C   0  0  0  0  0  0
   16.5818   16.6936  109.8301 C   0  0  0  0  0  0
   18.4120   15.2454  108.5851 C   0  0  0  0  0  0
   17.0643   17.9034  109.2967 C   0  0  0  0  0  0
   16.3979   19.1034  109.5482 C   0  0  0  0  0  0
   15.2960   19.1317  110.3921 C   0  0  0  0  0  0
   14.8436   17.9620  110.9837 C   0  0  0  0  0  0
   15.4899   16.7640  110.7062 C   0  0  0  0  0  0
   19.5179   14.4552  108.9428 C   0  0  0  0  0  0
   20.6770   14.4570  108.1865 C   0  0  0  0  0  0
   18.4909   15.9381  107.3664 C   0  0  0  0  0  0
   17.3250   14.4167  110.7468 C   0  0  0  0  0  0
   18.0670   14.9687  111.8030 C   0  0  0  0  0  0
   18.3399   14.2305  112.9521 C   0  0  0  0  0  0
   17.8649   12.9278  113.0637 C   0  0  0  0  0  0
   17.1180   12.3620  112.0343 C   0  0  0  0  0  0
   16.8519   13.0995  110.8846 C   0  0  0  0  0  0
   15.7222   14.6093  108.4348 S   0  0  0  0  0  0
   16.3878   13.3121  107.3434 C   0  0  0  0  0  0
   15.4921   13.1816  106.0959 C   0  0  2  0  0  0
   15.8397   11.9620  105.3590 N   0  0  0  0  0  0
   19.6552   15.9573  106.5932 C   0  0  0  0  0  0
   20.7871   15.2639  107.0582 C   0  0  0  0  0  0
   22.1459   15.4609  106.3946 C   0  0  0  0  0  0
   22.0032   15.6893  104.9193 C   0  0  0  0  0  0
   21.0960   16.9056  104.6867 C   0  0  0  0  0  0
   19.6755   16.6378  105.2261 C   0  0  0  0  0  0
   15.6053   14.3949  105.1378 C   0  0  0  0  0  0
   16.7180   14.3620  104.3467 O   0  0  0  0  0  0
   14.7648   15.2914  105.1316 O   0  0  0  0  0  0
   17.9276   17.9523  108.6553 H   0  0  0  0  0  0
   16.7180   20.0219  109.0860 H   0  0  0  0  0  0
   14.7937   20.0675  110.5906 H   0  0  0  0  0  0
   13.9917   17.9828  111.6471 H   0  0  0  0  0  0
   15.1180   15.8545  111.1383 H   0  0  0  0  0  0
   19.5235   13.8317  109.8230 H   0  0  0  0  0  0
   21.5229   13.8811  108.5293 H   0  0  0  0  0  0
   17.6192   16.4607  106.9992 H   0  0  0  0  0  0
   18.4565   15.9739  111.7227 H   0  0  0  0  0  0
   18.9204   14.6664  113.7519 H   0  0  0  0  0  0
   18.0684   12.3573  113.9585 H   0  0  0  0  0  0
   16.7212   11.3626  112.1262 H   0  0  0  0  0  0
   16.2779   12.6143  110.1127 H   0  0  0  0  0  0
   17.4174   13.4933  107.0416 H   0  0  0  0  0  0
   16.4115   12.3811  107.9069 H   0  0  0  0  0  0
   14.4559   13.1100  106.4321 H   0  0  0  0  0  0
   15.9180   11.1973  106.0292 H   0  0  0  0  0  0
   15.0906   11.7048  104.7322 H   0  0  0  0  0  0
   22.6063   16.3620  106.8053 H   0  0  0  0  0  0
   22.8172   14.6166  106.5590 H   0  0  0  0  0  0
   22.9759   15.8166  104.4475 H   0  0  0  0  0  0
   21.5736   14.7620  104.5590 H   0  0  0  0  0  0
   21.5166   17.7778  105.1896 H   0  0  0  0  0  0
   21.0725   17.1634  103.6294 H   0  0  0  0  0  0
   19.1320   15.9733  104.5590 H   0  0  0  0  0  0
   19.1180   17.5620  105.2283 H   0  0  0  0  0  0
   17.2611   13.5741  104.5044 H   0  0  0  0  0  0
  1  2  1  0  0  0
  1  3  1  0  0  0
  1 12  1  0  0  0
  1 18  1  0  0  0
  2  4  2  0  0  0
  2  8  1  0  0  0
  3  9  2  0  0  0
  3 11  1  0  0  0
  4  5  1  0  0  0
  4 31  1  0  0  0
  5  6  2  0  0  0
  5 32  1  0  0  0
  6  7  1  0  0  0
  6 33  1  0  0  0
  7  8  2  0  0  0
  7 34  1  0  0  0
  8 35  1  0  0  0
  9 10  1  0  0  0
  9 36  1  0  0  0
 10 23  2  0  0  0
 10 37  1  0  0  0
 11 22  2  0  0  0
 11 38  1  0  0  0
 12 13  2  0  0  0
 12 17  1  0  0  0
 13 14  1  0  0  0
 13 39  1  0  0  0
 14 15  2  0  0  0
 14 40  1  0  0  0
 15 16  1  0  0  0
 15 41  1  0  0  0
 16 17  2  0  0  0
 16 42  1  0  0  0
 17 43  1  0  0  0
 18 19  1  0  0  0
 19 20  1  0  0  0
 19 44  1  0  0  0
 19 45  1  0  0  0
 20 21  1  0  0  0
 20 28  1  0  0  0
 20 46  1  0  0  0
 21 47  1  0  0  0
 21 48  1  0  0  0
 22 23  1  0  0  0
 22 27  1  0  0  0
 23 24  1  0  0  0
 24 25  1  0  0  0
 24 49  1  0  0  0
 24 50  1  0  0  0
 25 26  1  0  0  0
 25 51  1  0  0  0
 25 52  1  0  0  0
 26 27  1  0  0  0
 26 53  1  0  0  0
 26 54  1  0  0  0
 27 55  1  0  0  0
 27 56  1  0  0  0
 28 29  1  0  0  0
 28 30  2  0  0  0
 29 57  1  0  0  0
M  END
> <s_m_entry_id>
271

> <s_m_entry_name>
dock_pv.270

> <s_m_Source_Path>
/home/csk/Desktop/cluster/DUD-E-result/kif11

> <s_m_Source_File>
dock_pv.maegz

> <i_m_Source_File_Index>
270

> <chembl_id>
CHEMBL2325414

> <chembl_pref_name>
None

> <i_lp_mmshare_version>
53161

> <i_f3d_flags>
0

> <r_lp_tautomer_probability>
1

> <s_lp_Force_Field>
OPLS_2005

> <r_lp_Energy>
25.360238

> <b_lp_Chiralities_Consistent>
1

> <s_lp_Variant>
CHEMBL4581_lig862-1

> <s_i_glide_gridfile>
glide-grid_3cjo

> <i_i_glide_lignum>
1252

> <i_i_glide_rotatable_bonds>
8

> <r_i_docking_score>
-7.77200049430346

> <r_i_glide_ligand_efficiency>
-0.259066683143449

> <r_i_glide_ligand_efficiency_sa>
-0.80498041816034

> <r_i_glide_ligand_efficiency_ln>
-1.76588319503369

> <r_i_glide_gscore>
-7.77200049430346

> <r_i_glide_lipo>
-4.85833759963161

> <r_i_glide_hbond>
-0.306047509606247

> <r_i_glide_metal>
0

> <r_i_glide_rewards>
-0.610843461370492

> <r_i_glide_evdw>
-36.4445037841797

> <r_i_glide_ecoul>
-6.39767837524414

> <r_i_glide_erotb>
0.793554692681964

> <r_i_glide_esite>
-0.00844967088147672

> <r_i_glide_emodel>
-55.5892153049261

> <r_i_glide_energy>
-42.8421821594238

> <r_i_glide_einternal>
7.74804258346558

> <i_i_glide_confnum>
238

> <i_i_glide_posenum>
90

> <r_i_glide_eff_state_penalty>
0

> <s_user_duplicate_titles>
CHEMBL4581_lig862

> <s_m_subgroup_title>
dock_pv

> <s_m_subgroupid>
dock_pv

> <b_m_subgroup_collapsed>
1

$$$$
CHEMBL4581_lig600
                    3D
 Schrodinger Suite 2021-1.
 51 53  0  0  1  0            999 V2000
   19.4497   15.0793  107.4522 C   0  0  0  0  0  0
   18.4914   14.5199  108.5536 C   0  0  1  0  0  0
   17.6398   15.6338  109.2561 C   0  0  0  0  0  0
   18.2834   16.7821  109.7405 C   0  0  0  0  0  0
   17.5818   17.7898  110.3937 C   0  0  0  0  0  0
   16.2097   17.6581  110.5850 C   0  0  0  0  0  0
   15.5464   16.5211  110.1356 C   0  0  0  0  0  0
   16.2559   15.5158  109.4824 C   0  0  0  0  0  0
   17.4235   13.2436  107.7594 S   0  0  0  0  0  0
   16.7265   14.0784  106.2954 C   0  0  0  0  0  0
   15.9706   13.0960  105.3727 C   0  0  2  0  0  0
   19.3454   13.7819  109.6408 C   0  0  0  0  0  0
   18.7213   13.5766  111.0173 C   0  0  0  0  0  0
   17.7625   12.5846  111.2465 C   0  0  0  0  0  0
   17.3096   12.3498  112.5416 C   0  0  0  0  0  0
   17.8024   13.1122  113.5973 C   0  0  0  0  0  0
   18.7303   14.1237  113.3576 C   0  0  0  0  0  0
   19.1808   14.3630  112.0716 C   0  0  0  0  0  0
   16.3162   13.3522  103.9591 N   0  0  0  0  0  0
   14.4338   13.1863  105.5584 C   0  0  0  0  0  0
   14.0011   12.3620  106.5594 O   0  0  0  0  0  0
   13.7083   13.9296  104.8979 O   0  0  0  0  0  0
   20.6564   14.4343  107.1121 C   0  0  0  0  0  0
   21.5213   14.9766  106.1617 C   0  0  0  0  0  0
   19.9870   16.7937  105.8181 C   0  0  0  0  0  0
   19.1252   16.2571  106.7669 C   0  0  0  0  0  0
   21.1979   16.1792  105.5468 C   0  0  0  0  0  0
   22.0562   16.7615  104.6571 O   0  0  0  0  0  0
   19.3420   16.8992  109.6118 H   0  0  0  0  0  0
   18.0974   18.6670  110.7544 H   0  0  0  0  0  0
   15.6618   18.4387  111.0935 H   0  0  0  0  0  0
   14.4822   16.4160  110.2922 H   0  0  0  0  0  0
   15.7023   14.6456  109.1661 H   0  0  0  0  0  0
   16.1129   14.9275  106.6029 H   0  0  0  0  0  0
   17.5604   14.4984  105.7356 H   0  0  0  0  0  0
   16.2698   12.0724  105.6066 H   0  0  0  0  0  0
   19.6651   12.8007  109.2820 H   0  0  0  0  0  0
   20.2789   14.3282  109.7891 H   0  0  0  0  0  0
   17.4066   11.9620  110.4364 H   0  0  0  0  0  0
   16.5885   11.5630  112.7269 H   0  0  0  0  0  0
   17.4649   12.9212  114.6058 H   0  0  0  0  0  0
   19.1344   14.7237  114.1485 H   0  0  0  0  0  0
   19.9146   15.1379  111.9051 H   0  0  0  0  0  0
   17.3209   13.1629  103.8582 H   0  0  0  0  0  0
   15.8456   12.6964  103.3535 H   0  0  0  0  0  0
   14.6907   11.8050  106.9463 H   0  0  0  0  0  0
   20.9470   13.5114  107.5868 H   0  0  0  0  0  0
   22.4462   14.4681  105.9297 H   0  0  0  0  0  0
   19.7319   17.7108  105.3135 H   0  0  0  0  0  0
   18.1938   16.7617  106.9642 H   0  0  0  0  0  0
   22.8248   16.2195  104.4778 H   0  0  0  0  0  0
  1 23  2  0  0  0
  1  2  1  0  0  0
  1 26  1  0  0  0
  2  9  1  0  0  0
  2  3  1  0  0  0
  2 12  1  0  0  0
  3  4  2  0  0  0
  3  8  1  0  0  0
  4  5  1  0  0  0
  4 29  1  0  0  0
  5  6  2  0  0  0
  5 30  1  0  0  0
  6  7  1  0  0  0
  6 31  1  0  0  0
  7  8  2  0  0  0
  7 32  1  0  0  0
  8 33  1  0  0  0
  9 10  1  0  0  0
 10 11  1  0  0  0
 10 34  1  0  0  0
 10 35  1  0  0  0
 11 19  1  0  0  0
 11 20  1  0  0  0
 11 36  1  0  0  0
 12 13  1  0  0  0
 12 37  1  0  0  0
 12 38  1  0  0  0
 13 14  2  0  0  0
 13 18  1  0  0  0
 14 15  1  0  0  0
 14 39  1  0  0  0
 15 16  2  0  0  0
 15 40  1  0  0  0
 16 17  1  0  0  0
 16 41  1  0  0  0
 17 18  2  0  0  0
 17 42  1  0  0  0
 18 43  1  0  0  0
 19 44  1  0  0  0
 19 45  1  0  0  0
 20 21  1  0  0  0
 20 22  2  0  0  0
 21 46  1  0  0  0
 23 24  1  0  0  0
 23 47  1  0  0  0
 24 27  2  0  0  0
 24 48  1  0  0  0
 25 27  1  0  0  0
 25 26  2  0  0  0
 25 49  1  0  0  0
 26 50  1  0  0  0
 27 28  1  0  0  0
 28 51  1  0  0  0
M  END
> <s_m_entry_id>
272

> <s_m_entry_name>
dock_pv.271

> <s_m_Source_Path>
/home/csk/Desktop/cluster/DUD-E-result/kif11

> <s_m_Source_File>
dock_pv.maegz

> <i_m_Source_File_Index>
271

> <chembl_id>
CHEMBL2043402

> <chembl_pref_name>
None

> <i_lp_mmshare_version>
53161

> <i_f3d_flags>
0

> <r_lp_tautomer_probability>
0.999999999997365

> <s_lp_Force_Field>
OPLS_2005

> <r_lp_Energy>
20.740094

> <b_lp_Chiralities_Consistent>
1

> <s_lp_Variant>
CHEMBL4581_lig600-1

> <s_i_glide_gridfile>
glide-grid_3cjo

> <i_i_glide_lignum>
924

> <i_i_glide_rotatable_bonds>
10

> <r_i_docking_score>
-7.77108569497506

> <r_i_glide_ligand_efficiency>
-0.277538774820538

> <r_i_glide_ligand_efficiency_sa>
-0.842771181951832

> <r_i_glide_ligand_efficiency_ln>
-1.79379474739081

> <r_i_glide_gscore>
-7.77108569497506

> <r_i_glide_lipo>
-4.58808954704994

> <r_i_glide_hbond>
-0.152

> <r_i_glide_metal>
0

> <r_i_glide_rewards>
-0.801138954545453

> <r_i_glide_evdw>
-39.4617538452148

> <r_i_glide_ecoul>
-8.42214775085449

> <r_i_glide_erotb>
1.00931082573152

> <r_i_glide_esite>
-0.00275816422226281

> <r_i_glide_emodel>
-65.4961065658589

> <r_i_glide_energy>
-47.8839015960693

> <r_i_glide_einternal>
7.99097871780396

> <i_i_glide_confnum>
30

> <i_i_glide_posenum>
63

> <r_i_glide_eff_state_penalty>
0

> <s_user_duplicate_titles>
CHEMBL4581_lig600

> <s_m_subgroup_title>
dock_pv

> <s_m_subgroupid>
dock_pv

> <b_m_subgroup_collapsed>
1

$$$$
CHEMBL4581_lig87
                    3D
 Schrodinger Suite 2021-1.
 59 62  0  0  1  0            999 V2000
   22.4178   14.4424  106.1588 C   0  0  0  0  0  0
   22.5855   15.5598  105.3567 C   0  0  0  0  0  0
   21.5534   16.4820  105.2193 C   0  0  0  0  0  0
   20.3360   16.2674  105.8601 C   0  0  0  0  0  0
   20.1469   15.1446  106.6835 C   0  0  0  0  0  0
   21.2340   14.2624  106.8687 C   0  0  0  0  0  0
   21.2004   13.2433  107.7606 F   0  0  0  0  0  0
   21.7194   17.5620  104.4262 F   0  0  0  0  0  0
   18.8487   14.9330  107.3590 C   0  0  0  0  0  0
   18.5861   13.9896  108.1594 N   0  0  0  0  0  0
   17.4419   14.2384  108.8475 N   0  0  0  0  0  0
   16.6266   15.2717  108.1666 C   0  0  2  0  0  0
   17.6680   15.8548  107.1902 C   0  0  0  0  0  0
   16.1320   16.3593  109.1644 C   0  0  0  0  0  0
   14.7725   16.6701  109.3303 C   0  0  0  0  0  0
   14.3744   17.6585  110.2274 C   0  0  0  0  0  0
   15.3317   18.3540  110.9586 C   0  0  0  0  0  0
   16.6842   18.0625  110.8103 C   0  0  0  0  0  0
   17.0782   17.0669  109.9241 C   0  0  0  0  0  0
   17.1055   13.5251  109.9641 C   0  0  0  0  0  0
   18.0727   13.2853  110.9098 N   0  0  0  0  0  0
   15.9311   13.1899  110.1527 O   0  0  0  0  0  0
   15.4602   14.5855  107.3607 C   0  0  0  0  0  0
   15.8444   13.4066  106.4248 C   0  0  0  0  0  0
   14.6499   12.7174  105.7431 C   0  0  0  0  0  0
   13.9930   13.6166  104.8103 N   0  0  0  0  0  0
   19.3985   13.9539  110.9639 C   0  0  0  0  0  0
   19.3661   14.9782  112.0980 C   0  0  0  0  0  0
   19.0768   14.2898  113.4250 C   0  0  0  0  0  0
   17.7936   13.4408  113.3489 C   0  0  0  0  0  0
   17.7555   12.4944  112.1252 C   0  0  0  0  0  0
   23.2219   13.7341  106.2698 H   0  0  0  0  0  0
   23.5179   15.6945  104.8416 H   0  0  0  0  0  0
   19.5508   16.9941  105.7042 H   0  0  0  0  0  0
   17.3228   15.8720  106.1554 H   0  0  0  0  0  0
   17.9617   16.8708  107.4523 H   0  0  0  0  0  0
   13.9996   16.1643  108.7754 H   0  0  0  0  0  0
   13.3271   17.8911  110.3505 H   0  0  0  0  0  0
   15.0257   19.1270  111.6477 H   0  0  0  0  0  0
   17.4242   18.6075  111.3812 H   0  0  0  0  0  0
   18.1317   16.8500  109.8184 H   0  0  0  0  0  0
   14.7219   14.1953  108.0610 H   0  0  0  0  0  0
   14.9423   15.3459  106.7751 H   0  0  0  0  0  0
   16.5579   13.7288  105.6657 H   0  0  0  0  0  0
   16.3685   12.6455  107.0028 H   0  0  0  0  0  0
   14.9917   11.8352  105.1986 H   0  0  0  0  0  0
   13.9326   12.3662  106.4873 H   0  0  0  0  0  0
   13.6417   14.4217  105.3075 H   0  0  0  0  0  0
   14.6662   13.9598  104.1425 H   0  0  0  0  0  0
   20.1090   13.1634  111.1809 H   0  0  0  0  0  0
   19.8057   14.3742  110.0515 H   0  0  0  0  0  0
   20.3180   15.4993  112.1589 H   0  0  0  0  0  0
   18.6212   15.7459  111.8917 H   0  0  0  0  0  0
   18.9864   15.0800  114.1586 H   0  0  0  0  0  0
   19.9179   13.6667  113.7278 H   0  0  0  0  0  0
   16.9355   14.1011  113.3068 H   0  0  0  0  0  0
   17.6721   12.8632  114.2659 H   0  0  0  0  0  0
   16.8190   11.9340  112.0413 H   0  0  0  0  0  0
   18.5332   11.7405  112.2414 H   0  0  0  0  0  0
  1  6  1  0  0  0
  1  2  2  0  0  0
  1 32  1  0  0  0
  2  3  1  0  0  0
  2 33  1  0  0  0
  3  4  2  0  0  0
  3  8  1  0  0  0
  4  5  1  0  0  0
  4 34  1  0  0  0
  5  9  1  0  0  0
  5  6  2  0  0  0
  6  7  1  0  0  0
  9 10  2  0  0  0
  9 13  1  0  0  0
 10 11  1  0  0  0
 11 20  1  0  0  0
 11 12  1  0  0  0
 12 23  1  0  0  0
 12 13  1  0  0  0
 12 14  1  0  0  0
 13 35  1  0  0  0
 13 36  1  0  0  0
 14 15  2  0  0  0
 14 19  1  0  0  0
 15 16  1  0  0  0
 15 37  1  0  0  0
 16 17  2  0  0  0
 16 38  1  0  0  0
 17 18  1  0  0  0
 17 39  1  0  0  0
 18 19  2  0  0  0
 18 40  1  0  0  0
 19 41  1  0  0  0
 20 21  1  0  0  0
 20 22  2  0  0  0
 21 27  1  0  0  0
 21 31  1  0  0  0
 23 24  1  0  0  0
 23 42  1  0  0  0
 23 43  1  0  0  0
 24 25  1  0  0  0
 24 44  1  0  0  0
 24 45  1  0  0  0
 25 26  1  0  0  0
 25 46  1  0  0  0
 25 47  1  0  0  0
 26 48  1  0  0  0
 26 49  1  0  0  0
 27 28  1  0  0  0
 27 50  1  0  0  0
 27 51  1  0  0  0
 28 29  1  0  0  0
 28 52  1  0  0  0
 28 53  1  0  0  0
 29 30  1  0  0  0
 29 54  1  0  0  0
 29 55  1  0  0  0
 30 31  1  0  0  0
 30 56  1  0  0  0
 30 57  1  0  0  0
 31 58  1  0  0  0
 31 59  1  0  0  0
M  END
> <s_m_entry_id>
273

> <s_m_entry_name>
dock_pv.272

> <s_m_Source_Path>
/home/csk/Desktop/cluster/DUD-E-result/kif11

> <s_m_Source_File>
dock_pv.maegz

> <i_m_Source_File_Index>
272

> <chembl_id>
CHEMBL381985

> <chembl_pref_name>
None

> <i_lp_mmshare_version>
53161

> <i_f3d_flags>
0

> <r_lp_tautomer_probability>
1

> <s_lp_Force_Field>
OPLS_2005

> <r_lp_Energy>
63.626039

> <b_lp_Chiralities_Consistent>
1

> <s_lp_Variant>
CHEMBL4581_lig87-1

> <s_i_glide_gridfile>
glide-grid_3cjo

> <i_i_glide_lignum>
138

> <i_i_glide_rotatable_bonds>
7

> <r_i_docking_score>
-7.76813854583328

> <r_i_glide_ligand_efficiency>
-0.250585114381719

> <r_i_glide_ligand_efficiency_sa>
-0.787183229194956

> <r_i_glide_ligand_efficiency_ln>
-1.75195330694133

> <r_i_glide_gscore>
-7.76813854583328

> <r_i_glide_lipo>
-3.99816800653934

> <r_i_glide_hbond>
0

> <r_i_glide_metal>
0

> <r_i_glide_rewards>
-2.26312270881196

> <r_i_glide_evdw>
-40.4617881774902

> <r_i_glide_ecoul>
-0.922590494155884

> <r_i_glide_erotb>
0.654630152515911

> <r_i_glide_esite>
0

> <r_i_glide_emodel>
-56.2602028641784

> <r_i_glide_energy>
-41.3843786716461

> <r_i_glide_einternal>
6.30811214447021

> <i_i_glide_confnum>
78

> <i_i_glide_posenum>
275

> <r_i_glide_eff_state_penalty>
0

> <s_user_duplicate_titles>
CHEMBL4581_lig87,347961

> <s_m_subgroup_title>
dock_pv

> <s_m_subgroupid>
dock_pv

> <b_m_subgroup_collapsed>
1

$$$$
CHEMBL4581_lig809
                    3D
 Schrodinger Suite 2021-1.
 45 47  0  0  1  0            999 V2000
   16.9736   13.5883  106.5240 C   0  0  0  0  0  0
   16.2516   12.5899  105.7590 N   0  0  0  0  0  0
   16.1607   14.1428  107.7162 C   0  0  0  0  0  0
   16.6569   13.7122  109.0308 N   0  0  1  0  0  0
   17.6616   14.5531  109.7325 C   0  0  0  0  0  0
   17.9577   13.9487  111.1472 C   0  0  0  0  0  0
   18.9474   14.5688  108.8440 C   0  0  0  0  0  0
   17.1029   15.9902  110.0058 C   0  0  0  0  0  0
   18.9006   14.5739  111.9842 C   0  0  0  0  0  0
   19.1254   14.1209  113.2800 C   0  0  0  0  0  0
   18.4269   13.0201  113.7593 C   0  0  0  0  0  0
   17.5176   12.3617  112.9412 C   0  0  0  0  0  0
   17.2941   12.8091  111.6425 C   0  0  0  0  0  0
   17.9757   17.0777  110.1793 C   0  0  0  0  0  0
   17.4940   18.3522  110.4496 C   0  0  0  0  0  0
   16.1245   18.5646  110.5621 C   0  0  0  0  0  0
   15.2357   17.5023  110.4224 C   0  0  0  0  0  0
   15.7234   16.2245  110.1526 C   0  0  0  0  0  0
   19.9546   13.6019  109.0109 C   0  0  0  0  0  0
   21.0553   13.5619  108.1575 C   0  0  0  0  0  0
   21.1182   14.4431  107.0825 C   0  0  0  0  0  0
   20.1525   15.4248  106.9090 C   0  0  0  0  0  0
   19.0805   15.4934  107.7911 C   0  0  0  0  0  0
   17.2413   14.4074  105.8550 H   0  0  0  0  0  0
   17.9184   13.1610  106.8547 H   0  0  0  0  0  0
   16.8845   12.2535  105.0439 H   0  0  0  0  0  0
   16.0512   11.7969  106.3643 H   0  0  0  0  0  0
   15.1590   13.7132  107.6569 H   0  0  0  0  0  0
   15.9853   15.2139  107.6223 H   0  0  0  0  0  0
   15.8797   13.5393  109.6467 H   0  0  0  0  0  0
   19.4635   15.4281  111.6425 H   0  0  0  0  0  0
   19.8461   14.6221  113.9079 H   0  0  0  0  0  0
   18.5976   12.6678  114.7673 H   0  0  0  0  0  0
   16.9707   11.5096  113.3155 H   0  0  0  0  0  0
   16.5778   12.2617  111.0465 H   0  0  0  0  0  0
   19.0452   16.9487  110.1019 H   0  0  0  0  0  0
   18.1943   19.1622  110.5786 H   0  0  0  0  0  0
   15.7529   19.5548  110.7724 H   0  0  0  0  0  0
   14.1741   17.6695  110.5196 H   0  0  0  0  0  0
   15.0104   15.4183  110.0599 H   0  0  0  0  0  0
   19.8757   12.8502  109.7814 H   0  0  0  0  0  0
   21.8191   12.8101  108.2843 H   0  0  0  0  0  0
   21.9447   14.3810  106.3882 H   0  0  0  0  0  0
   20.2224   16.1183  106.0816 H   0  0  0  0  0  0
   18.3200   16.2389  107.6142 H   0  0  0  0  0  0
  1  2  1  0  0  0
  1  3  1  0  0  0
  1 24  1  0  0  0
  1 25  1  0  0  0
  2 26  1  0  0  0
  2 27  1  0  0  0
  3  4  1  0  0  0
  3 28  1  0  0  0
  3 29  1  0  0  0
  4  5  1  0  0  0
  4 30  1  0  0  0
  5  7  1  0  0  0
  5  8  1  0  0  0
  5  6  1  0  0  0
  6 13  1  0  0  0
  6  9  2  0  0  0
  7 19  2  0  0  0
  7 23  1  0  0  0
  8 14  2  0  0  0
  8 18  1  0  0  0
  9 10  1  0  0  0
  9 31  1  0  0  0
 10 11  2  0  0  0
 10 32  1  0  0  0
 11 12  1  0  0  0
 11 33  1  0  0  0
 12 13  2  0  0  0
 12 34  1  0  0  0
 13 35  1  0  0  0
 14 15  1  0  0  0
 14 36  1  0  0  0
 15 16  2  0  0  0
 15 37  1  0  0  0
 16 17  1  0  0  0
 16 38  1  0  0  0
 17 18  2  0  0  0
 17 39  1  0  0  0
 18 40  1  0  0  0
 19 20  1  0  0  0
 19 41  1  0  0  0
 20 21  2  0  0  0
 20 42  1  0  0  0
 21 22  1  0  0  0
 21 43  1  0  0  0
 22 23  2  0  0  0
 22 44  1  0  0  0
 23 45  1  0  0  0
M  END
> <s_m_entry_id>
274

> <s_m_entry_name>
dock_pv.273

> <s_m_Source_Path>
/home/csk/Desktop/cluster/DUD-E-result/kif11

> <s_m_Source_File>
dock_pv.maegz

> <i_m_Source_File_Index>
273

> <chembl_id>
CHEMBL2022587

> <chembl_pref_name>
None

> <i_lp_mmshare_version>
53161

> <i_f3d_flags>
0

> <r_lp_tautomer_probability>
1

> <s_lp_Force_Field>
OPLS_2005

> <r_lp_Energy>
30.494829

> <b_lp_Chiralities_Consistent>
1

> <s_lp_Variant>
CHEMBL4581_lig809-1

> <s_i_glide_gridfile>
glide-grid_3cjo

> <i_i_glide_lignum>
1195

> <i_i_glide_rotatable_bonds>
6

> <r_i_docking_score>
-7.76743623906235

> <r_i_glide_ligand_efficiency>
-0.337714619089667

> <r_i_glide_ligand_efficiency_sa>
-0.960415452838462

> <r_i_glide_ligand_efficiency_ln>
-1.8782365138231

> <r_i_glide_gscore>
-7.76743623906235

> <r_i_glide_lipo>
-4.6005974425035

> <r_i_glide_hbond>
-0.347776081841271

> <r_i_glide_metal>
0

> <r_i_glide_rewards>
-1.46385225757576

> <r_i_glide_evdw>
-39.3763542175293

> <r_i_glide_ecoul>
-2.62006378173828

> <r_i_glide_erotb>
1.00661682099539

> <r_i_glide_esite>
0

> <r_i_glide_emodel>
-59.417040478711

> <r_i_glide_energy>
-41.9964179992676

> <r_i_glide_einternal>
6.39935779571533

> <i_i_glide_confnum>
78

> <i_i_glide_posenum>
160

> <r_i_glide_eff_state_penalty>
0

> <s_user_duplicate_titles>
CHEMBL4581_lig809

> <s_m_subgroup_title>
dock_pv

> <s_m_subgroupid>
dock_pv

> <b_m_subgroup_collapsed>
1

$$$$
CHEMBL4581_lig96
                    3D
 Schrodinger Suite 2021-1.
 67 71  0  0  1  0            999 V2000
   22.5837   14.3324  106.0657 C   0  0  0  0  0  0
   22.7000   15.4640  105.2697 C   0  0  0  0  0  0
   21.7507   16.4746  105.3575 C   0  0  0  0  0  0
   20.6812   16.3534  106.2384 C   0  0  0  0  0  0
   20.5433   15.2123  107.0485 C   0  0  0  0  0  0
   21.5180   14.1978  106.9547 C   0  0  0  0  0  0
   21.5182   13.1108  107.7599 F   0  0  0  0  0  0
   21.8578   17.5603  104.5638 F   0  0  0  0  0  0
   19.4022   15.1379  107.9824 C   0  0  0  0  0  0
   18.6959   16.1239  108.3529 N   0  0  0  0  0  0
   17.6573   15.7182  109.1290 N   0  0  0  0  0  0
   17.6633   14.2495  109.3658 C   0  0  1  0  0  0
   18.9093   13.8483  108.5718 C   0  0  0  0  0  0
   17.8692   13.8873  110.8670 C   0  0  0  0  0  0
   17.2652   12.7606  111.4502 C   0  0  0  0  0  0
   17.5169   12.4249  112.7775 C   0  0  0  0  0  0
   18.3737   13.2084  113.5413 C   0  0  0  0  0  0
   18.9828   14.3284  112.9852 C   0  0  0  0  0  0
   18.7294   14.6658  111.6591 C   0  0  0  0  0  0
   16.6140   16.5601  109.3345 C   0  0  0  0  0  0
   16.2148   16.6114  110.6171 N   0  0  0  0  0  0
   16.1356   17.2758  108.4501 O   0  0  0  0  0  0
   15.1580   17.4807  111.1312 C   0  0  0  0  0  0
   16.3803   13.5794  108.7328 C   0  0  0  0  0  0
   15.5324   18.9736  111.1077 C   0  0  0  0  0  0
   16.1407   13.8514  107.2227 C   0  0  0  0  0  0
   14.6639   13.7804  106.7952 C   0  0  0  0  0  0
   14.4349   13.9118  105.2698 C   0  0  0  0  0  0
   14.3664   15.2935  104.7698 N   0  0  2  0  0  0
   14.0141   15.3356  103.3356 C   0  0  0  0  0  0
   15.0509   16.3178  102.7380 C   0  0  1  0  0  0
   15.5925   16.1131  104.8515 C   0  0  2  0  0  0
   15.2581   17.2570  103.9063 C   0  0  0  0  0  0
   16.4197   15.6378  102.7565 C   0  0  0  0  0  0
   16.7585   15.5205  104.0576 C   0  0  0  0  0  0
   23.3337   13.5618  106.0013 H   0  0  0  0  0  0
   23.5179   15.5525  104.5754 H   0  0  0  0  0  0
   19.9629   17.1609  106.2841 H   0  0  0  0  0  0
   19.6674   13.3870  109.2061 H   0  0  0  0  0  0
   18.6688   13.1624  107.7704 H   0  0  0  0  0  0
   16.6070   12.1126  110.8947 H   0  0  0  0  0  0
   17.0393   11.5614  113.2143 H   0  0  0  0  0  0
   18.5716   12.9425  114.5700 H   0  0  0  0  0  0
   19.6570   14.9271  113.5795 H   0  0  0  0  0  0
   19.2321   15.5268  111.2426 H   0  0  0  0  0  0
   16.7041   16.0387  111.2891 H   0  0  0  0  0  0
   14.2373   17.3148  110.5672 H   0  0  0  0  0  0
   14.9434   17.1775  112.1567 H   0  0  0  0  0  0
   15.5041   13.8927  109.3040 H   0  0  0  0  0  0
   16.4292   12.4948  108.8375 H   0  0  0  0  0  0
   14.7355   19.5771  111.5414 H   0  0  0  0  0  0
   16.4389   19.1613  111.6851 H   0  0  0  0  0  0
   15.6937   19.3400  110.0938 H   0  0  0  0  0  0
   16.7132   13.1302  106.6360 H   0  0  0  0  0  0
   16.5466   14.8196  106.9511 H   0  0  0  0  0  0
   14.1209   14.5734  107.3154 H   0  0  0  0  0  0
   14.2481   12.8292  107.1318 H   0  0  0  0  0  0
   13.5127   13.3879  105.0087 H   0  0  0  0  0  0
   15.2366   13.3900  104.7418 H   0  0  0  0  0  0
   13.0227   15.7781  103.2231 H   0  0  0  0  0  0
   14.0645   14.3689  102.8271 H   0  0  0  0  0  0
   14.7638   16.8031  101.8050 H   0  0  0  0  0  0
   15.8347   16.4804  105.8498 H   0  0  0  0  0  0
   16.0642   17.9812  103.7584 H   0  0  0  0  0  0
   14.3572   17.8073  104.1930 H   0  0  0  0  0  0
   16.9573   15.3094  101.8801 H   0  0  0  0  0  0
   17.6350   15.0663  104.5008 H   0  0  0  0  0  0
  1  6  1  0  0  0
  1  2  2  0  0  0
  1 36  1  0  0  0
  2  3  1  0  0  0
  2 37  1  0  0  0
  3  4  2  0  0  0
  3  8  1  0  0  0
  4  5  1  0  0  0
  4 38  1  0  0  0
  5  9  1  0  0  0
  5  6  2  0  0  0
  6  7  1  0  0  0
  9 10  2  0  0  0
  9 13  1  0  0  0
 10 11  1  0  0  0
 11 20  1  0  0  0
 11 12  1  0  0  0
 12 24  1  0  0  0
 12 13  1  0  0  0
 12 14  1  0  0  0
 13 39  1  0  0  0
 13 40  1  0  0  0
 14 19  1  0  0  0
 14 15  2  0  0  0
 15 16  1  0  0  0
 15 41  1  0  0  0
 16 17  2  0  0  0
 16 42  1  0  0  0
 17 18  1  0  0  0
 17 43  1  0  0  0
 18 19  2  0  0  0
 18 44  1  0  0  0
 19 45  1  0  0  0
 20 21  1  0  0  0
 20 22  2  0  0  0
 21 23  1  0  0  0
 21 46  1  0  0  0
 23 25  1  0  0  0
 23 47  1  0  0  0
 23 48  1  0  0  0
 24 26  1  0  0  0
 24 49  1  0  0  0
 24 50  1  0  0  0
 25 51  1  0  0  0
 25 52  1  0  0  0
 25 53  1  0  0  0
 26 27  1  0  0  0
 26 54  1  0  0  0
 26 55  1  0  0  0
 27 28  1  0  0  0
 27 56  1  0  0  0
 27 57  1  0  0  0
 28 29  1  0  0  0
 28 58  1  0  0  0
 28 59  1  0  0  0
 29 30  1  0  0  0
 29 32  1  0  0  0
 30 31  1  0  0  0
 30 60  1  0  0  0
 30 61  1  0  0  0
 31 33  1  0  0  0
 31 34  1  0  0  0
 31 62  1  0  0  0
 32 33  1  0  0  0
 32 35  1  0  0  0
 32 63  1  0  0  0
 33 64  1  0  0  0
 33 65  1  0  0  0
 34 35  2  0  0  0
 34 66  1  0  0  0
 35 67  1  0  0  0
M  END
> <s_m_entry_id>
275

> <s_m_entry_name>
dock_pv.274

> <s_m_Source_Path>
/home/csk/Desktop/cluster/DUD-E-result/kif11

> <s_m_Source_File>
dock_pv.maegz

> <i_m_Source_File_Index>
274

> <chembl_id>
CHEMBL378497

> <chembl_pref_name>
None

> <i_lp_mmshare_version>
53161

> <i_f3d_flags>
0

> <r_lp_tautomer_probability>
1

> <s_lp_Force_Field>
OPLS_2005

> <r_lp_Energy>
95.729118

> <b_lp_Chiralities_Consistent>
1

> <s_lp_Variant>
CHEMBL4581_lig96-2

> <s_i_glide_gridfile>
glide-grid_3cjo

> <i_i_glide_lignum>
159

> <i_i_glide_rotatable_bonds>
10

> <r_i_docking_score>
-7.76584933801258

> <r_i_glide_ligand_efficiency>
-0.221881409657502

> <r_i_glide_ligand_efficiency_sa>
-0.725788803127665

> <r_i_glide_ligand_efficiency_ln>
-1.70477628343365

> <r_i_glide_gscore>
-7.76584933801258

> <r_i_glide_lipo>
-4.25806963526818

> <r_i_glide_hbond>
0

> <r_i_glide_metal>
0

> <r_i_glide_rewards>
-1.69164755848604

> <r_i_glide_evdw>
-49.2236099243164

> <r_i_glide_ecoul>
-0.418703377246857

> <r_i_glide_erotb>
0.707853858544484

> <r_i_glide_esite>
0

> <r_i_glide_emodel>
-72.1535685335159

> <r_i_glide_energy>
-49.6423133015633

> <r_i_glide_einternal>
4.54223203659058

> <i_i_glide_confnum>
23

> <i_i_glide_posenum>
301

> <r_i_glide_eff_state_penalty>
0

> <s_user_duplicate_titles>
CHEMBL4581_lig96,348373

> <s_m_subgroup_title>
dock_pv

> <s_m_subgroupid>
dock_pv

> <b_m_subgroup_collapsed>
1

$$$$
CHEMBL4581_lig600
                    3D
 Schrodinger Suite 2021-1.
 51 53  0  0  1  0            999 V2000
   17.5431   15.5696  109.1600 C   0  0  0  0  0  0
   18.4465   14.4768  108.4946 C   0  0  2  0  0  0
   19.4571   15.0421  107.4459 C   0  0  0  0  0  0
   19.1930   16.2415  106.7732 C   0  0  0  0  0  0
   20.0955   16.7618  105.8480 C   0  0  0  0  0  0
   21.2799   16.0868  105.5796 C   0  0  0  0  0  0
   21.5506   14.8751  106.2018 C   0  0  0  0  0  0
   20.6523   14.3634  107.1347 C   0  0  0  0  0  0
   17.4268   13.2035  107.6355 S   0  0  0  0  0  0
   16.8636   14.0649  106.1287 C   0  0  0  0  0  0
   15.8339   13.2395  105.3283 C   0  0  2  0  0  0
   19.2627   13.7434  109.6124 C   0  0  0  0  0  0
   18.6097   13.5344  110.9724 C   0  0  0  0  0  0
   19.1182   14.2342  112.0647 C   0  0  0  0  0  0
   18.6490   13.9621  113.3376 C   0  0  0  0  0  0
   17.6544   13.0067  113.5263 C   0  0  0  0  0  0
   17.1180   12.3280  112.4345 C   0  0  0  0  0  0
   17.5899   12.5953  111.1525 C   0  0  0  0  0  0
   15.9179   13.5611  103.8902 N   0  0  0  0  0  0
   14.3936   13.4929  105.8382 C   0  0  0  0  0  0
   14.1374   12.7618  106.9589 O   0  0  0  0  0  0
   13.6036   14.2793  105.3143 O   0  0  0  0  0  0
   18.1473   16.6356  109.8439 C   0  0  0  0  0  0
   17.3866   17.5588  110.5587 C   0  0  0  0  0  0
   15.3753   16.4116  109.8855 C   0  0  0  0  0  0
   16.1372   15.4863  109.1838 C   0  0  0  0  0  0
   16.0017   17.4265  110.5932 C   0  0  0  0  0  0
   15.2354   18.2678  111.3505 O   0  0  0  0  0  0
   18.2681   16.7620  106.9597 H   0  0  0  0  0  0
   19.8821   17.6909  105.3442 H   0  0  0  0  0  0
   21.9781   16.4900  104.8604 H   0  0  0  0  0  0
   22.4587   14.3370  105.9722 H   0  0  0  0  0  0
   20.9052   13.4287  107.6081 H   0  0  0  0  0  0
   16.4762   15.0532  106.3812 H   0  0  0  0  0  0
   17.7443   14.2500  105.5157 H   0  0  0  0  0  0
   16.0613   12.1791  105.4531 H   0  0  0  0  0  0
   19.5918   12.7615  109.2694 H   0  0  0  0  0  0
   20.1917   14.2877  109.7877 H   0  0  0  0  0  0
   19.9092   14.9592  111.9387 H   0  0  0  0  0  0
   19.0945   14.4887  114.1589 H   0  0  0  0  0  0
   17.2984   12.7895  114.5229 H   0  0  0  0  0  0
   16.3475   11.5842  112.5849 H   0  0  0  0  0  0
   17.1977   12.0395  110.3130 H   0  0  0  0  0  0
   16.8760   13.4024  103.5953 H   0  0  0  0  0  0
   15.3331   12.9440  103.3476 H   0  0  0  0  0  0
   14.8464   12.1472  107.1871 H   0  0  0  0  0  0
   19.2194   16.7243  109.8608 H   0  0  0  0  0  0
   17.8771   18.3523  111.1040 H   0  0  0  0  0  0
   14.2994   16.3206  109.9081 H   0  0  0  0  0  0
   15.5953   14.6938  108.6942 H   0  0  0  0  0  0
   15.7334   18.7615  112.0108 H   0  0  0  0  0  0
  1 23  2  0  0  0
  1  2  1  0  0  0
  1 26  1  0  0  0
  2  9  1  0  0  0
  2  3  1  0  0  0
  2 12  1  0  0  0
  3  4  2  0  0  0
  3  8  1  0  0  0
  4  5  1  0  0  0
  4 29  1  0  0  0
  5  6  2  0  0  0
  5 30  1  0  0  0
  6  7  1  0  0  0
  6 31  1  0  0  0
  7  8  2  0  0  0
  7 32  1  0  0  0
  8 33  1  0  0  0
  9 10  1  0  0  0
 10 11  1  0  0  0
 10 34  1  0  0  0
 10 35  1  0  0  0
 11 19  1  0  0  0
 11 20  1  0  0  0
 11 36  1  0  0  0
 12 13  1  0  0  0
 12 37  1  0  0  0
 12 38  1  0  0  0
 13 14  2  0  0  0
 13 18  1  0  0  0
 14 15  1  0  0  0
 14 39  1  0  0  0
 15 16  2  0  0  0
 15 40  1  0  0  0
 16 17  1  0  0  0
 16 41  1  0  0  0
 17 18  2  0  0  0
 17 42  1  0  0  0
 18 43  1  0  0  0
 19 44  1  0  0  0
 19 45  1  0  0  0
 20 21  1  0  0  0
 20 22  2  0  0  0
 21 46  1  0  0  0
 23 24  1  0  0  0
 23 47  1  0  0  0
 24 27  2  0  0  0
 24 48  1  0  0  0
 25 27  1  0  0  0
 25 26  2  0  0  0
 25 49  1  0  0  0
 26 50  1  0  0  0
 27 28  1  0  0  0
 28 51  1  0  0  0
M  END
> <s_m_entry_id>
276

> <s_m_entry_name>
dock_pv.275

> <s_m_Source_Path>
/home/csk/Desktop/cluster/DUD-E-result/kif11

> <s_m_Source_File>
dock_pv.maegz

> <i_m_Source_File_Index>
275

> <chembl_id>
CHEMBL2043402

> <chembl_pref_name>
None

> <i_lp_mmshare_version>
53161

> <i_f3d_flags>
0

> <r_lp_tautomer_probability>
0.999999999997365

> <s_lp_Force_Field>
OPLS_2005

> <r_lp_Energy>
21.323164

> <b_lp_Chiralities_Consistent>
1

> <s_lp_Variant>
CHEMBL4581_lig600-2

> <s_i_glide_gridfile>
glide-grid_3cjo

> <i_i_glide_lignum>
925

> <i_i_glide_rotatable_bonds>
10

> <r_i_docking_score>
-7.75895148821068

> <r_i_glide_ligand_efficiency>
-0.277105410293239

> <r_i_glide_ligand_efficiency_sa>
-0.841455232008896

> <r_i_glide_ligand_efficiency_ln>
-1.7909938161938

> <r_i_glide_gscore>
-7.75895148821068

> <r_i_glide_lipo>
-4.53861941631685

> <r_i_glide_hbond>
-0.258090919332848

> <r_i_glide_metal>
0

> <r_i_glide_rewards>
-0.792403740180222

> <r_i_glide_evdw>
-39.5035362243652

> <r_i_glide_ecoul>
-7.99167203903198

> <r_i_glide_erotb>
1.00931082573152

> <r_i_glide_esite>
-0.00522062103921791

> <r_i_glide_emodel>
-62.2153486039149

> <r_i_glide_energy>
-47.4952082633972

> <r_i_glide_einternal>
9.99555397033691

> <i_i_glide_confnum>
114

> <i_i_glide_posenum>
152

> <r_i_glide_eff_state_penalty>
0

> <s_user_duplicate_titles>
CHEMBL4581_lig600

> <s_m_subgroup_title>
dock_pv

> <s_m_subgroupid>
dock_pv

> <b_m_subgroup_collapsed>
1

$$$$
CHEMBL4581_lig309
                    3D
 Schrodinger Suite 2021-1.
 46 49  0  0  1  0            999 V2000
   18.8046   16.0559  106.9618 N   0  0  0  0  0  0
   19.8716   14.4056  108.0414 C   0  0  0  0  0  0
   18.7069   15.1491  107.9840 C   0  0  0  0  0  0
   17.4917   14.9715  108.9011 C   0  0  1  0  0  0
   17.8078   13.9025  109.8901 N   0  0  0  0  0  0
   19.2185   13.8021  110.3409 C   0  0  0  0  0  0
   20.0864   13.3740  109.1328 C   0  0  0  0  0  0
   20.0391   15.9638  106.3607 C   0  0  0  0  0  0
   20.6971   14.8457  106.9561 C   0  0  0  0  0  0
   21.9397   14.4442  106.4498 C   0  0  0  0  0  0
   22.5465   15.2268  105.4660 C   0  0  0  0  0  0
   21.9181   16.3626  104.9593 C   0  0  0  0  0  0
   20.6380   16.7381  105.3636 C   0  0  0  0  0  0
   17.0666   16.2773  109.5737 C   0  0  0  0  0  0
   18.0177   17.2095  110.0094 C   0  0  0  0  0  0
   17.6130   18.3631  110.6677 C   0  0  0  0  0  0
   16.2612   18.6014  110.9068 C   0  0  0  0  0  0
   15.3092   17.6674  110.5046 C   0  0  0  0  0  0
   15.7116   16.5093  109.8404 C   0  0  0  0  0  0
   16.7977   13.1978  110.4739 C   0  0  0  0  0  0
   15.6158   13.3740  110.1692 O   0  0  0  0  0  0
   17.1178   12.0425  111.4415 C   0  0  0  0  0  0
   17.2776   12.3660  112.9508 C   0  0  0  0  0  0
   17.9415   13.6197  113.2707 N   0  0  0  0  0  0
   13.9820   17.8832  110.7684 O   0  0  0  0  0  0
   18.0719   16.7217  106.7601 H   0  0  0  0  0  0
   16.6369   14.6581  108.3001 H   0  0  0  0  0  0
   19.3819   13.1621  111.2000 H   0  0  0  0  0  0
   19.5300   14.7922  110.6803 H   0  0  0  0  0  0
   21.1326   13.3584  109.4331 H   0  0  0  0  0  0
   19.8446   12.3629  108.8200 H   0  0  0  0  0  0
   22.4528   13.5855  106.8595 H   0  0  0  0  0  0
   23.5223   14.9496  105.0932 H   0  0  0  0  0  0
   22.4085   16.9371  104.1855 H   0  0  0  0  0  0
   20.1369   17.5869  104.9231 H   0  0  0  0  0  0
   19.0728   17.0451  109.8460 H   0  0  0  0  0  0
   18.3540   19.0786  110.9971 H   0  0  0  0  0  0
   15.9572   19.5012  111.4203 H   0  0  0  0  0  0
   14.9658   15.7903  109.5394 H   0  0  0  0  0  0
   18.0126   11.5547  111.0796 H   0  0  0  0  0  0
   16.3271   11.2996  111.3264 H   0  0  0  0  0  0
   17.8462   11.5623  113.4155 H   0  0  0  0  0  0
   16.3164   12.3600  113.4541 H   0  0  0  0  0  0
   17.9942   13.7283  114.2759 H   0  0  0  0  0  0
   18.8959   13.6053  112.9423 H   0  0  0  0  0  0
   13.8329   18.7118  111.2259 H   0  0  0  0  0  0
  1  8  1  0  0  0
  1  3  1  0  0  0
  1 26  1  0  0  0
  2  7  1  0  0  0
  2  9  1  0  0  0
  2  3  2  0  0  0
  3  4  1  0  0  0
  4  5  1  0  0  0
  4 14  1  0  0  0
  4 27  1  0  0  0
  5  6  1  0  0  0
  5 20  1  0  0  0
  6  7  1  0  0  0
  6 28  1  0  0  0
  6 29  1  0  0  0
  7 30  1  0  0  0
  7 31  1  0  0  0
  8 13  1  0  0  0
  8  9  2  0  0  0
  9 10  1  0  0  0
 10 11  2  0  0  0
 10 32  1  0  0  0
 11 12  1  0  0  0
 11 33  1  0  0  0
 12 13  2  0  0  0
 12 34  1  0  0  0
 13 35  1  0  0  0
 14 15  2  0  0  0
 14 19  1  0  0  0
 15 16  1  0  0  0
 15 36  1  0  0  0
 16 17  2  0  0  0
 16 37  1  0  0  0
 17 18  1  0  0  0
 17 38  1  0  0  0
 18 19  2  0  0  0
 18 25  1  0  0  0
 19 39  1  0  0  0
 20 21  2  0  0  0
 20 22  1  0  0  0
 22 23  1  0  0  0
 22 40  1  0  0  0
 22 41  1  0  0  0
 23 24  1  0  0  0
 23 42  1  0  0  0
 23 43  1  0  0  0
 24 44  1  0  0  0
 24 45  1  0  0  0
 25 46  1  0  0  0
M  END
> <s_m_entry_id>
277

> <s_m_entry_name>
dock_pv.276

> <s_m_Source_Path>
/home/csk/Desktop/cluster/DUD-E-result/kif11

> <s_m_Source_File>
dock_pv.maegz

> <i_m_Source_File_Index>
276

> <chembl_id>
CHEMBL590607

> <chembl_pref_name>
None

> <i_lp_mmshare_version>
53161

> <i_f3d_flags>
0

> <r_lp_tautomer_probability>
0.999999999997365

> <s_lp_Force_Field>
OPLS_2005

> <r_lp_Energy>
21.155062

> <b_lp_Chiralities_Consistent>
1

> <s_lp_Variant>
CHEMBL4581_lig309-2

> <s_i_glide_gridfile>
glide-grid_3cjo

> <i_i_glide_lignum>
457

> <i_i_glide_rotatable_bonds>
5

> <r_i_docking_score>
-7.75394469690721

> <r_i_glide_ligand_efficiency>
-0.310157787876288

> <r_i_glide_ligand_efficiency_sa>
-0.906906872422057

> <r_i_glide_ligand_efficiency_ln>
-1.83791726013871

> <r_i_glide_gscore>
-7.75394469690721

> <r_i_glide_lipo>
-4.40387731720294

> <r_i_glide_hbond>
0

> <r_i_glide_metal>
0

> <r_i_glide_rewards>
-1.65602521873086

> <r_i_glide_evdw>
-41.5174865722656

> <r_i_glide_ecoul>
-0.80986088514328

> <r_i_glide_erotb>
0.503311300411364

> <r_i_glide_esite>
0

> <r_i_glide_emodel>
-57.2656638807441

> <r_i_glide_energy>
-42.3273474574089

> <r_i_glide_einternal>
4.43790245056152

> <i_i_glide_confnum>
15

> <i_i_glide_posenum>
147

> <r_i_glide_eff_state_penalty>
0

> <s_user_duplicate_titles>
CHEMBL4581_lig309

> <s_m_subgroup_title>
dock_pv

> <s_m_subgroupid>
dock_pv

> <b_m_subgroup_collapsed>
1

$$$$
CHEMBL4581_lig303
                    3D
 Schrodinger Suite 2021-1.
 46 49  0  0  1  0            999 V2000
   18.8391   16.3058  107.7101 N   0  0  0  0  0  0
   19.7360   14.3661  108.3846 C   0  0  0  0  0  0
   18.7086   15.2604  108.5903 C   0  0  0  0  0  0
   17.6636   15.1628  109.6943 C   0  0  2  0  0  0
   17.9308   13.9309  110.5012 N   0  0  0  0  0  0
   18.5452   12.7626  109.8545 C   0  0  0  0  0  0
   19.9193   13.1625  109.2748 C   0  0  0  0  0  0
   19.9213   16.0930  106.8827 C   0  0  0  0  0  0
   20.4827   14.8405  107.2667 C   0  0  0  0  0  0
   21.5779   14.3442  106.5586 C   0  0  0  0  0  0
   22.1134   15.1095  105.5323 C   0  0  0  0  0  0
   21.5966   16.3620  105.2116 C   0  0  0  0  0  0
   20.4672   16.8667  105.8530 C   0  0  0  0  0  0
   16.2418   15.1817  109.1250 C   0  0  0  0  0  0
   15.3639   16.2156  109.4693 C   0  0  0  0  0  0
   14.0647   16.2342  108.9600 C   0  0  0  0  0  0
   13.6286   15.2109  108.1174 C   0  0  0  0  0  0
   14.4956   14.1767  107.7702 C   0  0  0  0  0  0
   15.8002   14.1717  108.2585 C   0  0  0  0  0  0
   17.6957   13.9328  111.8351 C   0  0  0  0  0  0
   17.5183   14.9869  112.4278 O   0  0  0  0  0  0
   17.4452   12.6167  112.6153 C   0  0  0  0  0  0
   17.5091   12.7721  114.1456 C   0  0  0  0  0  0
   18.8974   12.7620  114.5590 N   0  0  0  0  0  0
   14.0649   13.1619  106.9588 O   0  0  0  0  0  0
   23.5192   14.3652  104.5114 Br  0  0  0  0  0  0
   18.2185   17.1018  107.7197 H   0  0  0  0  0  0
   17.7401   16.0344  110.3472 H   0  0  0  0  0  0
   17.8991   12.3726  109.0705 H   0  0  0  0  0  0
   18.7090   11.9620  110.5588 H   0  0  0  0  0  0
   20.6303   13.3657  110.0751 H   0  0  0  0  0  0
   20.3308   12.3281  108.7132 H   0  0  0  0  0  0
   21.9988   13.3786  106.7966 H   0  0  0  0  0  0
   22.0434   16.9242  104.4028 H   0  0  0  0  0  0
   20.0491   17.8237  105.5799 H   0  0  0  0  0  0
   15.6835   17.0069  110.1333 H   0  0  0  0  0  0
   13.3920   17.0356  109.2270 H   0  0  0  0  0  0
   12.6184   15.2199  107.7347 H   0  0  0  0  0  0
   16.4656   13.3752  107.9652 H   0  0  0  0  0  0
   18.1128   11.8020  112.3570 H   0  0  0  0  0  0
   16.4474   12.2783  112.3380 H   0  0  0  0  0  0
   16.9777   11.9608  114.6358 H   0  0  0  0  0  0
   17.0291   13.6893  114.4917 H   0  0  0  0  0  0
   18.9340   12.6869  115.5762 H   0  0  0  0  0  0
   19.3475   11.9256  114.2203 H   0  0  0  0  0  0
   14.6918   12.4349  106.8962 H   0  0  0  0  0  0
  1  8  1  0  0  0
  1  3  1  0  0  0
  1 27  1  0  0  0
  2  7  1  0  0  0
  2  9  1  0  0  0
  2  3  2  0  0  0
  3  4  1  0  0  0
  4  5  1  0  0  0
  4 14  1  0  0  0
  4 28  1  0  0  0
  5  6  1  0  0  0
  5 20  1  0  0  0
  6  7  1  0  0  0
  6 29  1  0  0  0
  6 30  1  0  0  0
  7 31  1  0  0  0
  7 32  1  0  0  0
  8 13  1  0  0  0
  8  9  2  0  0  0
  9 10  1  0  0  0
 10 11  2  0  0  0
 10 33  1  0  0  0
 11 12  1  0  0  0
 11 26  1  0  0  0
 12 13  2  0  0  0
 12 34  1  0  0  0
 13 35  1  0  0  0
 14 15  2  0  0  0
 14 19  1  0  0  0
 15 16  1  0  0  0
 15 36  1  0  0  0
 16 17  2  0  0  0
 16 37  1  0  0  0
 17 18  1  0  0  0
 17 38  1  0  0  0
 18 19  2  0  0  0
 18 25  1  0  0  0
 19 39  1  0  0  0
 20 21  2  0  0  0
 20 22  1  0  0  0
 22 23  1  0  0  0
 22 40  1  0  0  0
 22 41  1  0  0  0
 23 24  1  0  0  0
 23 42  1  0  0  0
 23 43  1  0  0  0
 24 44  1  0  0  0
 24 45  1  0  0  0
 25 46  1  0  0  0
M  END
> <s_m_entry_id>
278

> <s_m_entry_name>
dock_pv.277

> <s_m_Source_Path>
/home/csk/Desktop/cluster/DUD-E-result/kif11

> <s_m_Source_File>
dock_pv.maegz

> <i_m_Source_File_Index>
277

> <chembl_id>
CHEMBL592518

> <chembl_pref_name>
None

> <i_lp_mmshare_version>
53161

> <i_f3d_flags>
0

> <r_lp_tautomer_probability>
0.999999999997365

> <s_lp_Force_Field>
OPLS_2005

> <r_lp_Energy>
21.372638

> <b_lp_Chiralities_Consistent>
1

> <s_lp_Variant>
CHEMBL4581_lig303-1

> <s_i_glide_gridfile>
glide-grid_3cjo

> <i_i_glide_lignum>
444

> <i_i_glide_rotatable_bonds>
5

> <r_i_docking_score>
-7.75261182564454

> <r_i_glide_ligand_efficiency>
-0.298177377909405

> <r_i_glide_ligand_efficiency_sa>
-0.883349308785286

> <r_i_glide_ligand_efficiency_ln>
-1.82067544885837

> <r_i_glide_gscore>
-7.75261182564454

> <r_i_glide_lipo>
-3.67872028005896

> <r_i_glide_hbond>
-0.436194399556148

> <r_i_glide_metal>
0

> <r_i_glide_rewards>
-1.03795802035023

> <r_i_glide_evdw>
-33.0981864929199

> <r_i_glide_ecoul>
-8.59857368469238

> <r_i_glide_erotb>
0.344956251670651

> <r_i_glide_esite>
0

> <r_i_glide_emodel>
-55.9380712639177

> <r_i_glide_energy>
-41.6967601776123

> <r_i_glide_einternal>
6.74066877365112

> <i_i_glide_confnum>
1

> <i_i_glide_posenum>
388

> <r_i_glide_eff_state_penalty>
0

> <s_user_duplicate_titles>
CHEMBL4581_lig303,591057

> <s_m_subgroup_title>
dock_pv

> <s_m_subgroupid>
dock_pv

> <b_m_subgroup_collapsed>
1

$$$$
CHEMBL4581_lig606
                    3D
 Schrodinger Suite 2021-1.
 50 52  0  0  1  0            999 V2000
   14.7015   12.9181  104.8626 C   0  0  0  0  0  0
   16.0464   13.3723  105.4858 C   0  0  2  0  0  0
   15.8962   13.8683  106.9457 C   0  0  0  0  0  0
   14.0706   13.5734  104.0321 O   0  0  0  0  0  0
   14.3153   11.7012  105.3536 O   0  0  0  0  0  0
   17.2141   13.1619  107.9764 S   0  0  0  0  0  0
   18.3630   14.4775  108.5606 C   0  0  2  0  0  0
   19.2609   13.7898  109.6474 C   0  0  0  0  0  0
   18.6967   13.6035  111.0495 C   0  0  0  0  0  0
   17.7898   12.5805  111.3410 C   0  0  0  0  0  0
   17.3912   12.3622  112.6558 C   0  0  0  0  0  0
   17.9009   13.1670  113.6705 C   0  0  0  0  0  0
   18.7789   14.2061  113.3704 C   0  0  0  0  0  0
   19.1641   14.4366  112.0632 C   0  0  0  0  0  0
   17.6174   15.6642  109.2565 C   0  0  0  0  0  0
   16.3509   15.5028  109.8471 C   0  0  0  0  0  0
   15.7317   16.5567  110.5144 C   0  0  0  0  0  0
   16.3763   17.7838  110.6202 C   0  0  0  0  0  0
   17.6309   17.9675  110.0520 C   0  0  0  0  0  0
   18.2387   16.9175  109.3712 C   0  0  0  0  0  0
   19.2748   14.9195  107.3639 C   0  0  0  0  0  0
   18.8574   15.9164  106.4666 C   0  0  0  0  0  0
   19.7424   16.4776  105.5470 C   0  0  0  0  0  0
   21.0515   16.0157  105.4558 C   0  0  0  0  0  0
   21.4524   14.9406  106.2393 C   0  0  0  0  0  0
   20.5760   14.3978  107.1789 C   0  0  0  0  0  0
   17.5850   16.3621  106.4842 F   0  0  0  0  0  0
   16.7176   14.3621  104.6213 N   0  0  0  0  0  0
   16.6592   12.4680  105.4777 H   0  0  0  0  0  0
   14.9637   13.5174  107.3916 H   0  0  0  0  0  0
   15.8519   14.9520  107.0242 H   0  0  0  0  0  0
   14.9034   11.3421  106.0293 H   0  0  0  0  0  0
   19.5911   12.8043  109.3116 H   0  0  0  0  0  0
   20.1826   14.3621  109.7637 H   0  0  0  0  0  0
   17.4229   11.9332  110.5584 H   0  0  0  0  0  0
   16.7014   11.5631  112.8879 H   0  0  0  0  0  0
   17.6109   12.9863  114.6957 H   0  0  0  0  0  0
   19.1874   14.8225  114.1562 H   0  0  0  0  0  0
   19.8603   15.2350  111.8497 H   0  0  0  0  0  0
   15.8391   14.5533  109.8178 H   0  0  0  0  0  0
   14.7577   16.4202  110.9579 H   0  0  0  0  0  0
   15.9038   18.5984  111.1504 H   0  0  0  0  0  0
   18.1316   18.9206  110.1401 H   0  0  0  0  0  0
   19.2028   17.0915  108.9280 H   0  0  0  0  0  0
   19.4097   17.2762  104.9019 H   0  0  0  0  0  0
   21.7338   16.4507  104.7398 H   0  0  0  0  0  0
   22.4508   14.5405  106.1367 H   0  0  0  0  0  0
   20.9574   13.5870  107.7791 H   0  0  0  0  0  0
   16.8528   15.2260  105.1318 H   0  0  0  0  0  0
   17.6537   14.0009  104.4275 H   0  0  0  0  0  0
  1  2  1  0  0  0
  1  4  2  0  0  0
  1  5  1  0  0  0
  2  3  1  0  0  0
  2 28  1  0  0  0
  2 29  1  0  0  0
  3  6  1  0  0  0
  3 30  1  0  0  0
  3 31  1  0  0  0
  5 32  1  0  0  0
  6  7  1  0  0  0
  7  8  1  0  0  0
  7 15  1  0  0  0
  7 21  1  0  0  0
  8  9  1  0  0  0
  8 33  1  0  0  0
  8 34  1  0  0  0
  9 10  1  0  0  0
  9 14  2  0  0  0
 10 11  2  0  0  0
 10 35  1  0  0  0
 11 12  1  0  0  0
 11 36  1  0  0  0
 12 13  2  0  0  0
 12 37  1  0  0  0
 13 14  1  0  0  0
 13 38  1  0  0  0
 14 39  1  0  0  0
 15 16  1  0  0  0
 15 20  2  0  0  0
 16 17  2  0  0  0
 16 40  1  0  0  0
 17 18  1  0  0  0
 17 41  1  0  0  0
 18 19  2  0  0  0
 18 42  1  0  0  0
 19 20  1  0  0  0
 19 43  1  0  0  0
 20 44  1  0  0  0
 21 22  1  0  0  0
 21 26  2  0  0  0
 22 23  2  0  0  0
 22 27  1  0  0  0
 23 24  1  0  0  0
 23 45  1  0  0  0
 24 25  2  0  0  0
 24 46  1  0  0  0
 25 26  1  0  0  0
 25 47  1  0  0  0
 26 48  1  0  0  0
 28 49  1  0  0  0
 28 50  1  0  0  0
M  END
> <s_m_entry_id>
279

> <s_m_entry_name>
dock_pv.278

> <s_m_Source_Path>
/home/csk/Desktop/cluster/DUD-E-result/kif11

> <s_m_Source_File>
dock_pv.maegz

> <i_m_Source_File_Index>
278

> <chembl_id>
CHEMBL2043396

> <chembl_pref_name>
None

> <i_lp_mmshare_version>
53161

> <i_f3d_flags>
0

> <r_lp_tautomer_probability>
1

> <s_lp_Force_Field>
OPLS_2005

> <r_lp_Energy>
25.065972

> <b_lp_Chiralities_Consistent>
1

> <s_lp_Variant>
CHEMBL4581_lig606-1

> <s_i_glide_gridfile>
glide-grid_3cjo

> <i_i_glide_lignum>
936

> <i_i_glide_rotatable_bonds>
9

> <r_i_docking_score>
-7.75127938180742

> <r_i_glide_ligand_efficiency>
-0.276831406493122

> <r_i_glide_ligand_efficiency_sa>
-0.840623195092134

> <r_i_glide_ligand_efficiency_ln>
-1.7892228687731

> <r_i_glide_gscore>
-7.75127938180742

> <r_i_glide_lipo>
-4.51961203790967

> <r_i_glide_hbond>
-0.152

> <r_i_glide_metal>
0

> <r_i_glide_rewards>
-0.916089891854576

> <r_i_glide_evdw>
-41.2011871337891

> <r_i_glide_ecoul>
-7.35808181762695

> <r_i_glide_erotb>
1.00019417729032

> <r_i_glide_esite>
0

> <r_i_glide_emodel>
-66.0939183082708

> <r_i_glide_energy>
-48.559268951416

> <r_i_glide_einternal>
6.70400953292847

> <i_i_glide_confnum>
32

> <i_i_glide_posenum>
152

> <r_i_glide_eff_state_penalty>
0

> <s_user_duplicate_titles>
CHEMBL4581_lig606

> <s_m_subgroup_title>
dock_pv

> <s_m_subgroupid>
dock_pv

> <b_m_subgroup_collapsed>
1

$$$$
CHEMBL4581_lig881
                    3D
 Schrodinger Suite 2021-1.
 50 52  0  0  1  0            999 V2000
   17.8537   15.2881  109.1865 C   0  0  0  0  0  0
   18.0416   14.4864  110.5203 C   0  0  0  0  0  0
   19.1237   15.1486  108.2815 C   0  0  0  0  0  0
   17.3907   13.2588  110.7463 C   0  0  0  0  0  0
   17.5199   12.5873  111.9590 C   0  0  0  0  0  0
   18.3206   13.1250  112.9622 C   0  0  0  0  0  0
   19.0069   14.3172  112.7513 C   0  0  0  0  0  0
   18.8740   14.9863  111.5372 C   0  0  0  0  0  0
   20.0283   14.0875  108.4257 C   0  0  0  0  0  0
   21.1182   13.9588  107.5670 C   0  0  0  0  0  0
   21.3670   14.8925  106.5590 C   0  0  0  0  0  0
   20.5063   15.9883  106.4276 C   0  0  0  0  0  0
   19.3962   16.0900  107.2706 C   0  0  0  0  0  0
   16.5676   14.8483  108.3984 C   0  0  0  0  0  0
   16.6150   14.4422  107.0484 C   0  0  0  0  0  0
   15.4739   14.0039  106.3844 C   0  0  0  0  0  0
   14.2558   13.9639  107.0542 C   0  0  0  0  0  0
   14.1736   14.3601  108.3828 C   0  0  0  0  0  0
   15.3196   14.7872  109.0457 C   0  0  0  0  0  0
   17.7033   17.1044  109.5924 S   0  0  0  0  0  0
   16.4364   17.3151  110.8758 C   0  0  0  0  0  0
   15.1485   17.9479  110.3315 C   0  0  0  0  0  0
   14.1277   17.9616  111.3589 N   0  0  0  0  0  0
   20.7755   17.0995  105.4236 C   0  0  0  0  0  0
   22.5804   14.7101  105.6566 C   0  0  0  0  0  0
   16.7793   12.8009  109.9826 H   0  0  0  0  0  0
   17.0007   11.6515  112.1157 H   0  0  0  0  0  0
   18.4218   12.6043  113.9040 H   0  0  0  0  0  0
   19.6421   14.7213  113.5255 H   0  0  0  0  0  0
   19.4195   15.9081  111.3935 H   0  0  0  0  0  0
   19.8787   13.3242  109.1751 H   0  0  0  0  0  0
   21.7802   13.1141  107.6917 H   0  0  0  0  0  0
   18.7253   16.9213  107.1312 H   0  0  0  0  0  0
   17.5351   14.4291  106.4837 H   0  0  0  0  0  0
   15.5378   13.6898  105.3524 H   0  0  0  0  0  0
   13.3704   13.6210  106.5394 H   0  0  0  0  0  0
   13.2290   14.3197  108.9041 H   0  0  0  0  0  0
   15.2222   15.0448  110.0854 H   0  0  0  0  0  0
   16.2394   16.3625  111.3613 H   0  0  0  0  0  0
   16.8524   17.9537  111.6582 H   0  0  0  0  0  0
   15.3438   18.9682  109.9968 H   0  0  0  0  0  0
   14.7744   17.3999  109.4670 H   0  0  0  0  0  0
   14.4851   18.4441  112.1764 H   0  0  0  0  0  0
   13.3320   18.4973  111.0401 H   0  0  0  0  0  0
   21.8071   17.4422  105.5058 H   0  0  0  0  0  0
   20.6185   16.7644  104.4012 H   0  0  0  0  0  0
   20.1389   17.9616  105.6097 H   0  0  0  0  0  0
   23.0078   13.7094  105.7475 H   0  0  0  0  0  0
   22.3044   14.8401  104.6095 H   0  0  0  0  0  0
   23.3496   15.4474  105.8926 H   0  0  0  0  0  0
  1  2  1  0  0  0
  1  3  1  0  0  0
  1 14  1  0  0  0
  1 20  1  0  0  0
  2  4  2  0  0  0
  2  8  1  0  0  0
  3  9  2  0  0  0
  3 13  1  0  0  0
  4  5  1  0  0  0
  4 26  1  0  0  0
  5  6  2  0  0  0
  5 27  1  0  0  0
  6  7  1  0  0  0
  6 28  1  0  0  0
  7  8  2  0  0  0
  7 29  1  0  0  0
  8 30  1  0  0  0
  9 10  1  0  0  0
  9 31  1  0  0  0
 10 11  2  0  0  0
 10 32  1  0  0  0
 11 12  1  0  0  0
 11 25  1  0  0  0
 12 13  2  0  0  0
 12 24  1  0  0  0
 13 33  1  0  0  0
 14 15  2  0  0  0
 14 19  1  0  0  0
 15 16  1  0  0  0
 15 34  1  0  0  0
 16 17  2  0  0  0
 16 35  1  0  0  0
 17 18  1  0  0  0
 17 36  1  0  0  0
 18 19  2  0  0  0
 18 37  1  0  0  0
 19 38  1  0  0  0
 20 21  1  0  0  0
 21 22  1  0  0  0
 21 39  1  0  0  0
 21 40  1  0  0  0
 22 23  1  0  0  0
 22 41  1  0  0  0
 22 42  1  0  0  0
 23 43  1  0  0  0
 23 44  1  0  0  0
 24 45  1  0  0  0
 24 46  1  0  0  0
 24 47  1  0  0  0
 25 48  1  0  0  0
 25 49  1  0  0  0
 25 50  1  0  0  0
M  END
> <s_m_entry_id>
280

> <s_m_entry_name>
dock_pv.279

> <s_m_Source_Path>
/home/csk/Desktop/cluster/DUD-E-result/kif11

> <s_m_Source_File>
dock_pv.maegz

> <i_m_Source_File_Index>
279

> <chembl_id>
CHEMBL2325411

> <chembl_pref_name>
None

> <i_lp_mmshare_version>
53161

> <i_f3d_flags>
0

> <r_lp_tautomer_probability>
1

> <s_lp_Force_Field>
OPLS_2005

> <r_lp_Energy>
25.77044

> <b_lp_Chiralities_Consistent>
1

> <s_lp_Variant>
CHEMBL4581_lig881-1

> <s_i_glide_gridfile>
glide-grid_3cjo

> <i_i_glide_lignum>
1273

> <i_i_glide_rotatable_bonds>
6

> <r_i_docking_score>
-7.75006312480152

> <r_i_glide_ligand_efficiency>
-0.310002524992061

> <r_i_glide_ligand_efficiency_sa>
-0.906452880994976

> <r_i_glide_ligand_efficiency_ln>
-1.83699721122833

> <r_i_glide_gscore>
-7.75006312480152

> <r_i_glide_lipo>
-4.87962081785209

> <r_i_glide_hbond>
-0.264521018037241

> <r_i_glide_metal>
0

> <r_i_glide_rewards>
-1.10621776637671

> <r_i_glide_evdw>
-42.0911712646484

> <r_i_glide_ecoul>
-1.21883320808411

> <r_i_glide_erotb>
0.787680021909562

> <r_i_glide_esite>
0

> <r_i_glide_emodel>
-58.9774418380516

> <r_i_glide_energy>
-43.3100044727325

> <r_i_glide_einternal>
8.45162868499756

> <i_i_glide_confnum>
76

> <i_i_glide_posenum>
116

> <r_i_glide_eff_state_penalty>
0

> <s_user_duplicate_titles>
CHEMBL4581_lig881

> <s_m_subgroup_title>
dock_pv

> <s_m_subgroupid>
dock_pv

> <b_m_subgroup_collapsed>
1

$$$$
CHEMBL4581_lig10
                    3D
 Schrodinger Suite 2021-1.
 49 50  0  0  1  0            999 V2000
   17.7811   15.1173  109.3933 C   0  0  0  0  0  0
   16.2747   14.6935  108.4004 S   0  0  0  0  0  0
   17.4717   16.5945  109.9434 C   0  0  2  0  0  0
   17.9256   14.1425  110.6296 C   0  0  0  0  0  0
   19.0104   15.0383  108.4180 C   0  0  0  0  0  0
   19.0246   14.2714  111.5016 C   0  0  0  0  0  0
   19.1059   13.5620  112.6938 C   0  0  0  0  0  0
   18.1538   12.5975  112.9829 C   0  0  0  0  0  0
   17.1180   12.3620  112.0918 C   0  0  0  0  0  0
   16.9830   13.1460  110.9477 C   0  0  0  0  0  0
   20.0283   14.0733  108.5726 C   0  0  0  0  0  0
   21.0741   13.9620  107.6594 C   0  0  0  0  0  0
   21.1180   14.8101  106.5590 C   0  0  0  0  0  0
   20.1232   15.7606  106.3667 C   0  0  0  0  0  0
   19.0772   15.8598  107.2793 C   0  0  0  0  0  0
   16.6620   13.1620  107.4967 C   0  0  0  0  0  0
   16.0866   13.1223  106.0569 C   0  0  1  0  0  0
   14.5431   13.2648  105.9751 C   0  0  0  0  0  0
   13.9180   12.2050  106.5590 O   0  0  0  0  0  0
   13.9641   14.2060  105.4301 O   0  0  0  0  0  0
   16.7180   14.1101  105.1614 N   0  0  0  0  0  0
   17.0685   17.6928  108.9116 C   0  0  0  0  0  0
   18.5440   17.1757  110.8975 C   0  0  0  0  0  0
   18.3910   18.6203  111.3590 C   0  0  0  0  0  0
   16.5800   16.4780  110.5637 H   0  0  0  0  0  0
   19.8219   14.9639  111.2813 H   0  0  0  0  0  0
   19.9180   13.7372  113.3809 H   0  0  0  0  0  0
   18.2272   12.0209  113.8937 H   0  0  0  0  0  0
   16.3805   11.6040  112.3146 H   0  0  0  0  0  0
   16.1154   12.9574  110.3375 H   0  0  0  0  0  0
   20.0152   13.3541  109.3752 H   0  0  0  0  0  0
   21.8365   13.2086  107.7941 H   0  0  0  0  0  0
   21.9197   14.7174  105.8408 H   0  0  0  0  0  0
   20.1457   16.4019  105.4980 H   0  0  0  0  0  0
   18.2886   16.5512  107.0437 H   0  0  0  0  0  0
   17.7345   12.9880  107.4602 H   0  0  0  0  0  0
   16.2622   12.3620  108.1063 H   0  0  0  0  0  0
   16.2967   12.1300  105.6537 H   0  0  0  0  0  0
   14.5267   11.5412  106.9168 H   0  0  0  0  0  0
   17.6421   13.7647  104.8878 H   0  0  0  0  0  0
   16.1898   14.1857  104.3044 H   0  0  0  0  0  0
   17.9422   18.1501  108.4479 H   0  0  0  0  0  0
   16.4072   17.3471  108.1195 H   0  0  0  0  0  0
   16.5290   18.5034  109.4024 H   0  0  0  0  0  0
   18.5458   16.6184  111.8240 H   0  0  0  0  0  0
   19.5180   17.0582  110.4440 H   0  0  0  0  0  0
   19.1180   18.8059  112.1492 H   0  0  0  0  0  0
   18.5904   19.3237  110.5590 H   0  0  0  0  0  0
   17.3957   18.8154  111.7590 H   0  0  0  0  0  0
  1  2  1  0  0  0
  1  4  1  0  0  0
  1  5  1  0  0  0
  1  3  1  0  0  0
  2 16  1  0  0  0
  3 22  1  0  0  0
  3 23  1  0  0  0
  3 25  1  0  0  0
  4 10  1  0  0  0
  4  6  2  0  0  0
  5 15  1  0  0  0
  5 11  2  0  0  0
  6  7  1  0  0  0
  6 26  1  0  0  0
  7  8  2  0  0  0
  7 27  1  0  0  0
  8  9  1  0  0  0
  8 28  1  0  0  0
  9 10  2  0  0  0
  9 29  1  0  0  0
 10 30  1  0  0  0
 11 12  1  0  0  0
 11 31  1  0  0  0
 12 13  2  0  0  0
 12 32  1  0  0  0
 13 14  1  0  0  0
 13 33  1  0  0  0
 14 15  2  0  0  0
 14 34  1  0  0  0
 15 35  1  0  0  0
 16 17  1  0  0  0
 16 36  1  0  0  0
 16 37  1  0  0  0
 17 18  1  0  0  0
 17 21  1  0  0  0
 17 38  1  0  0  0
 18 19  1  0  0  0
 18 20  2  0  0  0
 19 39  1  0  0  0
 21 40  1  0  0  0
 21 41  1  0  0  0
 22 42  1  0  0  0
 22 43  1  0  0  0
 22 44  1  0  0  0
 23 24  1  0  0  0
 23 45  1  0  0  0
 23 46  1  0  0  0
 24 47  1  0  0  0
 24 48  1  0  0  0
 24 49  1  0  0  0
M  END
> <s_m_entry_id>
281

> <s_m_entry_name>
dock_pv.280

> <s_m_Source_Path>
/home/csk/Desktop/cluster/DUD-E-result/kif11

> <s_m_Source_File>
dock_pv.maegz

> <i_m_Source_File_Index>
280

> <chembl_id>
CHEMBL1688930

> <chembl_pref_name>
None

> <i_lp_mmshare_version>
53161

> <i_f3d_flags>
0

> <r_lp_tautomer_probability>
1

> <s_lp_Force_Field>
OPLS_2005

> <r_lp_Energy>
26.145593

> <b_lp_Chiralities_Consistent>
1

> <s_lp_Variant>
CHEMBL4581_lig10-1

> <s_i_glide_gridfile>
glide-grid_3cjo

> <i_i_glide_lignum>
11

> <i_i_glide_rotatable_bonds>
9

> <r_i_docking_score>
-7.74069564875131

> <r_i_glide_ligand_efficiency>
-0.322528985364638

> <r_i_glide_ligand_efficiency_sa>
-0.930334580122116

> <r_i_glide_ligand_efficiency_ln>
-1.85270366612454

> <r_i_glide_gscore>
-7.74069564875131

> <r_i_glide_lipo>
-4.3936012855727

> <r_i_glide_hbond>
-0.152

> <r_i_glide_metal>
0

> <r_i_glide_rewards>
-1.14284274002942

> <r_i_glide_evdw>
-32.7723770141602

> <r_i_glide_ecoul>
-10.1933917999268

> <r_i_glide_erotb>
1.12584773026788

> <r_i_glide_esite>
-0.0104717327200527

> <r_i_glide_emodel>
-63.3663986771853

> <r_i_glide_energy>
-42.9657688140869

> <r_i_glide_einternal>
4.5886754989624

> <i_i_glide_confnum>
162

> <i_i_glide_posenum>
166

> <r_i_glide_eff_state_penalty>
0

> <s_user_duplicate_titles>
CHEMBL4581_lig10

> <s_m_subgroup_title>
dock_pv

> <s_m_subgroupid>
dock_pv

> <b_m_subgroup_collapsed>
1

$$$$
CHEMBL4581_lig891
                    3D
 Schrodinger Suite 2021-1.
 53 55  0  0  1  0            999 V2000
   17.6979   14.5685  109.2175 C   0  0  1  0  0  0
   17.9304   13.9801  110.6425 C   0  0  0  0  0  0
   17.1637   16.0144  109.4718 C   0  0  0  0  0  0
   18.8749   14.5881  111.4877 C   0  0  0  0  0  0
   19.1176   14.0929  112.7595 C   0  0  0  0  0  0
   18.4241   12.9709  113.1976 C   0  0  0  0  0  0
   17.4723   12.3643  112.3923 C   0  0  0  0  0  0
   17.2346   12.8547  111.1197 C   0  0  0  0  0  0
   18.0511   17.0957  109.6219 C   0  0  0  0  0  0
   17.5931   18.3618  109.9783 C   0  0  0  0  0  0
   16.2333   18.5869  110.1645 C   0  0  0  0  0  0
   15.3326   17.5394  110.0019 C   0  0  0  0  0  0
   15.7926   16.2695  109.6570 C   0  0  0  0  0  0
   19.0127   14.5233  108.3742 C   0  0  0  0  0  0
   20.0564   13.6348  108.6933 C   0  0  0  0  0  0
   21.2004   13.5621  107.9056 C   0  0  0  0  0  0
   21.3089   14.3636  106.7733 C   0  0  0  0  0  0
   20.3044   15.2700  106.4529 C   0  0  0  0  0  0
   19.1664   15.3496  107.2493 C   0  0  0  0  0  0
   16.6491   13.6902  108.4359 C   0  0  0  0  0  0
   16.2006   14.1251  107.0245 C   0  0  0  0  0  0
   14.7968   13.5623  106.6763 C   0  0  1  0  0  0
   13.7306   14.5778  106.7899 N   0  0  0  0  0  0
   13.9968   17.7480  110.2037 O   0  0  0  0  0  0
   18.6958   12.4025  114.5590 C   0  0  0  0  0  0
   14.7348   12.9080  105.2802 C   0  0  0  0  0  0
   14.9410   11.5621  105.3589 O   0  0  0  0  0  0
   14.5267   13.5386  104.2442 O   0  0  0  0  0  0
   19.4464   15.4415  111.1576 H   0  0  0  0  0  0
   19.8562   14.5669  113.3890 H   0  0  0  0  0  0
   16.9104   11.5144  112.7485 H   0  0  0  0  0  0
   16.5000   12.3213  110.5385 H   0  0  0  0  0  0
   19.1178   16.9592  109.5063 H   0  0  0  0  0  0
   18.3016   19.1616  110.1313 H   0  0  0  0  0  0
   15.8900   19.5704  110.4498 H   0  0  0  0  0  0
   15.0559   15.4881  109.5709 H   0  0  0  0  0  0
   19.9833   12.9605  109.5333 H   0  0  0  0  0  0
   21.9861   12.8648  108.1531 H   0  0  0  0  0  0
   22.1855   14.2912  106.1464 H   0  0  0  0  0  0
   20.4016   15.8988  105.5805 H   0  0  0  0  0  0
   18.3932   16.0513  106.9752 H   0  0  0  0  0  0
   17.0388   12.6741  108.3430 H   0  0  0  0  0  0
   15.7489   13.5845  109.0399 H   0  0  0  0  0  0
   16.1897   15.2129  106.9472 H   0  0  0  0  0  0
   16.9562   13.7940  106.3084 H   0  0  0  0  0  0
   14.5513   12.7614  107.3745 H   0  0  0  0  0  0
   13.9931   15.4319  106.3162 H   0  0  0  0  0  0
   12.8685   14.2612  106.3662 H   0  0  0  0  0  0
   13.8000   18.6603  110.4256 H   0  0  0  0  0  0
   17.7652   12.0676  115.0197 H   0  0  0  0  0  0
   19.3856   11.5621  114.5144 H   0  0  0  0  0  0
   19.1181   13.1616  115.2102 H   0  0  0  0  0  0
   15.1181   11.2354  106.2560 H   0  0  0  0  0  0
  1  2  1  0  0  0
  1  3  1  0  0  0
  1 14  1  0  0  0
  1 20  1  0  0  0
  2  4  2  0  0  0
  2  8  1  0  0  0
  3  9  2  0  0  0
  3 13  1  0  0  0
  4  5  1  0  0  0
  4 29  1  0  0  0
  5  6  2  0  0  0
  5 30  1  0  0  0
  6  7  1  0  0  0
  6 25  1  0  0  0
  7  8  2  0  0  0
  7 31  1  0  0  0
  8 32  1  0  0  0
  9 10  1  0  0  0
  9 33  1  0  0  0
 10 11  2  0  0  0
 10 34  1  0  0  0
 11 12  1  0  0  0
 11 35  1  0  0  0
 12 13  2  0  0  0
 12 24  1  0  0  0
 13 36  1  0  0  0
 14 15  2  0  0  0
 14 19  1  0  0  0
 15 16  1  0  0  0
 15 37  1  0  0  0
 16 17  2  0  0  0
 16 38  1  0  0  0
 17 18  1  0  0  0
 17 39  1  0  0  0
 18 19  2  0  0  0
 18 40  1  0  0  0
 19 41  1  0  0  0
 20 21  1  0  0  0
 20 42  1  0  0  0
 20 43  1  0  0  0
 21 22  1  0  0  0
 21 44  1  0  0  0
 21 45  1  0  0  0
 22 23  1  0  0  0
 22 26  1  0  0  0
 22 46  1  0  0  0
 23 47  1  0  0  0
 23 48  1  0  0  0
 24 49  1  0  0  0
 25 50  1  0  0  0
 25 51  1  0  0  0
 25 52  1  0  0  0
 26 27  1  0  0  0
 26 28  2  0  0  0
 27 53  1  0  0  0
M  END
> <s_m_entry_id>
282

> <s_m_entry_name>
dock_pv.281

> <s_m_Source_Path>
/home/csk/Desktop/cluster/DUD-E-result/kif11

> <s_m_Source_File>
dock_pv.maegz

> <i_m_Source_File_Index>
281

> <chembl_id>
CHEMBL2325424

> <chembl_pref_name>
None

> <i_lp_mmshare_version>
53161

> <i_f3d_flags>
0

> <r_lp_tautomer_probability>
0.999999999997365

> <s_lp_Force_Field>
OPLS_2005

> <r_lp_Energy>
31.291222

> <b_lp_Chiralities_Consistent>
1

> <s_lp_Variant>
CHEMBL4581_lig891-4

> <s_i_glide_gridfile>
glide-grid_3cjo

> <i_i_glide_lignum>
1290

> <i_i_glide_rotatable_bonds>
9

> <r_i_docking_score>
-7.73459206435587

> <r_i_glide_ligand_efficiency>
-0.276235430869853

> <r_i_glide_ligand_efficiency_sa>
-0.838813462089017

> <r_i_glide_ligand_efficiency_ln>
-1.78537094594435

> <r_i_glide_gscore>
-7.73459206435587

> <r_i_glide_lipo>
-4.55390694766576

> <r_i_glide_hbond>
0

> <r_i_glide_metal>
0

> <r_i_glide_rewards>
-0.940801666666666

> <r_i_glide_evdw>
-39.2082366943359

> <r_i_glide_ecoul>
-8.2540283203125

> <r_i_glide_erotb>
0.960696146124403

> <r_i_glide_esite>
-0.00206351338417897

> <r_i_glide_emodel>
-66.9149184734171

> <r_i_glide_energy>
-47.4622650146484

> <r_i_glide_einternal>
5.18783378601074

> <i_i_glide_confnum>
200

> <i_i_glide_posenum>
273

> <r_i_glide_eff_state_penalty>
0

> <s_user_duplicate_titles>
CHEMBL4581_lig891

> <s_m_subgroup_title>
dock_pv

> <s_m_subgroupid>
dock_pv

> <b_m_subgroup_collapsed>
1

$$$$
CHEMBL4581_lig857
                    3D
 Schrodinger Suite 2021-1.
 54 56  0  0  1  0            999 V2000
   14.1395   14.0954  106.6588 C   0  0  0  0  0  0
   14.3162   12.7610  106.1146 N   0  0  0  0  0  0
   15.4075   14.5490  107.3946 C   0  0  0  0  0  0
   15.7370   13.6577  108.9508 S   0  0  0  0  0  0
   17.0645   14.5893  109.8620 C   0  0  0  0  0  0
   18.3320   14.4860  108.9774 C   0  0  0  0  0  0
   16.6403   16.0741  110.1092 C   0  0  0  0  0  0
   17.3508   13.9190  111.2459 C   0  0  0  0  0  0
   19.3759   13.6119  109.3107 C   0  0  0  0  0  0
   20.5298   13.5777  108.5590 C   0  0  0  0  0  0
   20.6468   14.3620  107.4098 C   0  0  0  0  0  0
   19.5959   15.2041  107.0381 C   0  0  0  0  0  0
   18.4710   15.2945  107.8407 C   0  0  0  0  0  0
   18.2166   14.5597  112.1493 C   0  0  0  0  0  0
   18.5558   13.9736  113.3595 C   0  0  0  0  0  0
   17.9853   12.7616  113.7240 C   0  0  0  0  0  0
   17.1311   12.1010  112.8487 C   0  0  0  0  0  0
   16.8599   12.6478  111.5982 C   0  0  0  0  0  0
   15.2935   16.4467  110.2392 C   0  0  0  0  0  0
   14.9304   17.7708  110.4655 C   0  0  0  0  0  0
   15.9151   18.7478  110.5579 C   0  0  0  0  0  0
   17.2562   18.4077  110.4193 C   0  0  0  0  0  0
   17.6124   17.0873  110.1866 C   0  0  0  0  0  0
   21.8626   14.1603  106.5525 C   0  0  0  0  0  0
   22.3795   15.1842  105.8216 N   0  0  0  0  0  0
   22.3564   13.0336  106.5588 O   0  0  0  0  0  0
   23.5116   14.9542  104.9375 C   0  0  0  0  0  0
   22.0681   16.6138  105.9600 C   0  0  0  0  0  0
   13.2791   14.1107  107.3298 H   0  0  0  0  0  0
   13.9166   14.7782  105.8376 H   0  0  0  0  0  0
   15.0908   12.7507  105.4658 H   0  0  0  0  0  0
   14.5789   12.1142  106.8534 H   0  0  0  0  0  0
   15.3332   15.6147  107.6056 H   0  0  0  0  0  0
   16.2575   14.4200  106.7254 H   0  0  0  0  0  0
   19.3240   12.9412  110.1542 H   0  0  0  0  0  0
   21.3131   12.8942  108.8486 H   0  0  0  0  0  0
   19.6231   15.7804  106.1259 H   0  0  0  0  0  0
   17.6942   15.9883  107.5577 H   0  0  0  0  0  0
   18.6770   15.5040  111.9085 H   0  0  0  0  0  0
   19.2504   14.4681  114.0215 H   0  0  0  0  0  0
   18.2185   12.3277  114.6860 H   0  0  0  0  0  0
   16.6830   11.1623  113.1343 H   0  0  0  0  0  0
   16.2299   12.0685  110.9421 H   0  0  0  0  0  0
   14.5090   15.7147  110.1586 H   0  0  0  0  0  0
   13.8893   18.0391  110.5684 H   0  0  0  0  0  0
   15.6350   19.7752  110.7412 H   0  0  0  0  0  0
   18.0242   19.1620  110.4962 H   0  0  0  0  0  0
   18.6634   16.8595  110.0857 H   0  0  0  0  0  0
   23.8488   13.9175  104.8985 H   0  0  0  0  0  0
   24.3180   15.5615  105.3396 H   0  0  0  0  0  0
   23.2737   15.2634  103.9211 H   0  0  0  0  0  0
   21.6068   16.9933  105.0476 H   0  0  0  0  0  0
   21.4213   16.8480  106.8030 H   0  0  0  0  0  0
   22.9836   17.1815  106.1294 H   0  0  0  0  0  0
  1  3  1  0  0  0
  1  2  1  0  0  0
  1 29  1  0  0  0
  1 30  1  0  0  0
  2 31  1  0  0  0
  2 32  1  0  0  0
  3  4  1  0  0  0
  3 33  1  0  0  0
  3 34  1  0  0  0
  4  5  1  0  0  0
  5  8  1  0  0  0
  5  6  1  0  0  0
  5  7  1  0  0  0
  6  9  2  0  0  0
  6 13  1  0  0  0
  7 19  2  0  0  0
  7 23  1  0  0  0
  8 14  2  0  0  0
  8 18  1  0  0  0
  9 10  1  0  0  0
  9 35  1  0  0  0
 10 11  2  0  0  0
 10 36  1  0  0  0
 11 12  1  0  0  0
 11 24  1  0  0  0
 12 13  2  0  0  0
 12 37  1  0  0  0
 13 38  1  0  0  0
 14 15  1  0  0  0
 14 39  1  0  0  0
 15 16  2  0  0  0
 15 40  1  0  0  0
 16 17  1  0  0  0
 16 41  1  0  0  0
 17 18  2  0  0  0
 17 42  1  0  0  0
 18 43  1  0  0  0
 19 20  1  0  0  0
 19 44  1  0  0  0
 20 21  2  0  0  0
 20 45  1  0  0  0
 21 22  1  0  0  0
 21 46  1  0  0  0
 22 23  2  0  0  0
 22 47  1  0  0  0
 23 48  1  0  0  0
 24 25  1  0  0  0
 24 26  2  0  0  0
 25 27  1  0  0  0
 25 28  1  0  0  0
 27 49  1  0  0  0
 27 50  1  0  0  0
 27 51  1  0  0  0
 28 52  1  0  0  0
 28 53  1  0  0  0
 28 54  1  0  0  0
M  END
> <s_m_entry_id>
283

> <s_m_entry_name>
dock_pv.282

> <s_m_Source_Path>
/home/csk/Desktop/cluster/DUD-E-result/kif11

> <s_m_Source_File>
dock_pv.maegz

> <i_m_Source_File_Index>
282

> <chembl_id>
CHEMBL2024135

> <chembl_pref_name>
None

> <i_lp_mmshare_version>
53161

> <i_f3d_flags>
0

> <r_lp_tautomer_probability>
1

> <s_lp_Force_Field>
OPLS_2005

> <r_lp_Energy>
39.411506

> <b_lp_Chiralities_Consistent>
1

> <s_lp_Variant>
CHEMBL4581_lig857-1

> <s_i_glide_gridfile>
glide-grid_3cjo

> <i_i_glide_lignum>
1244

> <i_i_glide_rotatable_bonds>
8

> <r_i_docking_score>
-7.73035632037602

> <r_i_glide_ligand_efficiency>
-0.276084154299144

> <r_i_glide_ligand_efficiency_sa>
-0.838354097323209

> <r_i_glide_ligand_efficiency_ln>
-1.78439321186695

> <r_i_glide_gscore>
-7.73035632037602

> <r_i_glide_lipo>
-4.56011963411474

> <r_i_glide_hbond>
-0.281697554516095

> <r_i_glide_metal>
0

> <r_i_glide_rewards>
-1.1173090139504

> <r_i_glide_evdw>
-43.306282043457

> <r_i_glide_ecoul>
-2.48820233345032

> <r_i_glide_erotb>
0.767314334395614

> <r_i_glide_esite>
0

> <r_i_glide_emodel>
-60.5618306473078

> <r_i_glide_energy>
-45.7944843769073

> <r_i_glide_einternal>
10.2895498275757

> <i_i_glide_confnum>
129

> <i_i_glide_posenum>
249

> <r_i_glide_eff_state_penalty>
0

> <s_user_duplicate_titles>
CHEMBL4581_lig857

> <s_m_subgroup_title>
dock_pv

> <s_m_subgroupid>
dock_pv

> <b_m_subgroup_collapsed>
1

$$$$
CHEMBL4581_lig756
                    3D
 Schrodinger Suite 2021-1.
 52 54  0  0  1  0            999 V2000
   14.8606   13.9863  106.4051 C   0  0  1  0  0  0
   14.1648   12.7627  106.8414 N   0  0  0  0  0  0
   15.4638   14.8383  107.5580 C   0  0  0  0  0  0
   16.2659   14.0906  108.6713 C   0  0  0  0  0  0
   17.3734   14.9111  109.4599 C   0  0  0  0  0  0
   18.6267   14.9322  108.5169 C   0  0  0  0  0  0
   16.7651   16.2989  109.8539 C   0  0  0  0  0  0
   17.7449   14.2359  110.8242 C   0  0  0  0  0  0
   19.6694   14.0000  108.6902 C   0  0  0  0  0  0
   20.7647   13.9628  107.8312 C   0  0  0  0  0  0
   20.8418   14.8506  106.7623 C   0  0  0  0  0  0
   19.8277   15.7842  106.5569 C   0  0  0  0  0  0
   18.7317   15.8122  107.4228 C   0  0  0  0  0  0
   18.6408   14.8951  111.6846 C   0  0  0  0  0  0
   18.9670   14.3619  112.9291 C   0  0  0  0  0  0
   18.3911   13.1645  113.3381 C   0  0  0  0  0  0
   17.5184   12.4843  112.4969 C   0  0  0  0  0  0
   17.2122   13.0022  111.2415 C   0  0  0  0  0  0
   15.5473   16.3005  110.5469 C   0  0  0  0  0  0
   14.8960   17.4785  110.8936 C   0  0  0  0  0  0
   15.4731   18.6926  110.5580 C   0  0  0  0  0  0
   16.6995   18.7239  109.9093 C   0  0  0  0  0  0
   17.3620   17.5415  109.5829 C   0  0  0  0  0  0
   19.9038   16.7584  105.3946 C   0  0  0  0  0  0
   15.8579   13.5979  105.2889 C   0  0  0  0  0  0
   15.5171   13.4731  104.1141 O   0  0  0  0  0  0
   17.1180   13.4063  105.7590 O   0  0  0  0  0  0
   14.1316   14.6276  105.9073 H   0  0  0  0  0  0
   13.8127   12.2428  106.0495 H   0  0  0  0  0  0
   14.7927   12.1311  107.3326 H   0  0  0  0  0  0
   14.6374   15.3673  108.0345 H   0  0  0  0  0  0
   16.0520   15.6372  107.1166 H   0  0  0  0  0  0
   16.7123   13.1789  108.2705 H   0  0  0  0  0  0
   15.4969   13.7293  109.3529 H   0  0  0  0  0  0
   19.6385   13.2669  109.4829 H   0  0  0  0  0  0
   21.5465   13.2333  107.9846 H   0  0  0  0  0  0
   21.6906   14.8077  106.0950 H   0  0  0  0  0  0
   17.9583   16.5354  107.2235 H   0  0  0  0  0  0
   19.0819   15.8357  111.3871 H   0  0  0  0  0  0
   19.6553   14.8806  113.5797 H   0  0  0  0  0  0
   18.6275   12.7575  114.3113 H   0  0  0  0  0  0
   17.0659   11.5618  112.8223 H   0  0  0  0  0  0
   16.5458   12.4223  110.6231 H   0  0  0  0  0  0
   15.1181   15.3552  110.8222 H   0  0  0  0  0  0
   13.9513   17.4543  111.4150 H   0  0  0  0  0  0
   14.9764   19.6170  110.8149 H   0  0  0  0  0  0
   17.1179   19.6804  109.6686 H   0  0  0  0  0  0
   18.3323   17.6233  109.1198 H   0  0  0  0  0  0
   20.7937   16.6038  104.7836 H   0  0  0  0  0  0
   19.0241   16.6541  104.7595 H   0  0  0  0  0  0
   19.9196   17.7838  105.7599 H   0  0  0  0  0  0
   17.7587   13.1621  105.0640 H   0  0  0  0  0  0
  1  3  1  0  0  0
  1  2  1  0  0  0
  1 25  1  0  0  0
  1 28  1  0  0  0
  2 29  1  0  0  0
  2 30  1  0  0  0
  3  4  1  0  0  0
  3 31  1  0  0  0
  3 32  1  0  0  0
  4  5  1  0  0  0
  4 33  1  0  0  0
  4 34  1  0  0  0
  5  7  1  0  0  0
  5  8  1  0  0  0
  5  6  1  0  0  0
  6  9  2  0  0  0
  6 13  1  0  0  0
  7 19  2  0  0  0
  7 23  1  0  0  0
  8 14  2  0  0  0
  8 18  1  0  0  0
  9 10  1  0  0  0
  9 35  1  0  0  0
 10 11  2  0  0  0
 10 36  1  0  0  0
 11 12  1  0  0  0
 11 37  1  0  0  0
 12 24  1  0  0  0
 12 13  2  0  0  0
 13 38  1  0  0  0
 14 15  1  0  0  0
 14 39  1  0  0  0
 15 16  2  0  0  0
 15 40  1  0  0  0
 16 17  1  0  0  0
 16 41  1  0  0  0
 17 18  2  0  0  0
 17 42  1  0  0  0
 18 43  1  0  0  0
 19 20  1  0  0  0
 19 44  1  0  0  0
 20 21  2  0  0  0
 20 45  1  0  0  0
 21 22  1  0  0  0
 21 46  1  0  0  0
 22 23  2  0  0  0
 22 47  1  0  0  0
 23 48  1  0  0  0
 24 49  1  0  0  0
 24 50  1  0  0  0
 24 51  1  0  0  0
 25 26  2  0  0  0
 25 27  1  0  0  0
 27 52  1  0  0  0
M  END
> <s_m_entry_id>
284

> <s_m_entry_name>
dock_pv.283

> <s_m_Source_Path>
/home/csk/Desktop/cluster/DUD-E-result/kif11

> <s_m_Source_File>
dock_pv.maegz

> <i_m_Source_File_Index>
283

> <chembl_id>
CHEMBL2022994

> <chembl_pref_name>
None

> <i_lp_mmshare_version>
53161

> <i_f3d_flags>
0

> <r_lp_tautomer_probability>
1

> <s_lp_Force_Field>
OPLS_2005

> <r_lp_Energy>
31.40777

> <b_lp_Chiralities_Consistent>
1

> <s_lp_Variant>
CHEMBL4581_lig756-1

> <s_i_glide_gridfile>
glide-grid_3cjo

> <i_i_glide_lignum>
1117

> <i_i_glide_rotatable_bonds>
8

> <r_i_docking_score>
-7.73003378002696

> <r_i_glide_ligand_efficiency>
-0.286297547408406

> <r_i_glide_ligand_efficiency_sa>
-0.858892641281627

> <r_i_glide_ligand_efficiency_ln>
-1.79942442442347

> <r_i_glide_gscore>
-7.73003378002696

> <r_i_glide_lipo>
-4.26751483534654

> <r_i_glide_hbond>
-0.304

> <r_i_glide_metal>
0

> <r_i_glide_rewards>
-1.04433025551398

> <r_i_glide_evdw>
-36.7275466918945

> <r_i_glide_ecoul>
-8.64795684814453

> <r_i_glide_erotb>
1.03839867053893

> <r_i_glide_esite>
-0.0190164978889592

> <r_i_glide_emodel>
-59.7873587075447

> <r_i_glide_energy>
-45.3755035400391

> <r_i_glide_einternal>
13.8450145721436

> <i_i_glide_confnum>
54

> <i_i_glide_posenum>
43

> <r_i_glide_eff_state_penalty>
0

> <s_user_duplicate_titles>
CHEMBL4581_lig756,CHEMBL4581_lig832

> <s_m_subgroup_title>
dock_pv

> <s_m_subgroupid>
dock_pv

> <b_m_subgroup_collapsed>
1

$$$$
CHEMBL4581_lig353
                    3D
 Schrodinger Suite 2021-1.
 50 53  0  0  1  0            999 V2000
   21.1928   15.4105  106.5287 C   0  0  0  0  0  0
   21.6025   14.1368  106.9590 C   0  0  0  0  0  0
   21.0595   13.5622  108.0934 C   0  0  0  0  0  0
   20.1105   16.0084  107.1857 C   0  0  0  0  0  0
   19.5169   15.4284  108.3069 C   0  0  0  0  0  0
   20.0348   14.2064  108.7684 C   0  0  0  0  0  0
   19.5196   13.5612  109.8936 N   0  0  0  0  0  0
   18.2650   14.0164  110.4663 C   0  0  2  0  0  0
   18.3475   16.1032  109.0057 C   0  0  2  0  0  0
   18.1968   15.5740  110.4540 C   0  0  1  0  0  0
   16.9036   16.1690  111.0560 C   0  0  0  0  0  0
   15.6867   15.9421  110.1425 C   0  0  0  0  0  0
   15.9904   16.4223  108.7112 C   0  0  0  0  0  0
   17.1817   15.8003  108.2354 O   0  0  0  0  0  0
   18.0751   13.3911  111.8342 C   0  0  0  0  0  0
   18.8854   13.7288  112.9239 C   0  0  0  0  0  0
   18.7169   13.1916  114.1578 N   0  0  0  0  0  0
   17.6662   12.3621  114.3494 C   0  0  0  0  0  0
   16.8293   11.9618  113.3152 C   0  0  0  0  0  0
   17.0812   12.4364  112.0301 C   0  0  0  0  0  0
   21.9363   16.1586  105.3975 C   0  0  0  0  0  0
   22.7176   15.1551  104.5295 C   0  0  0  0  0  0
   22.9762   17.1305  105.9611 C   0  0  0  0  0  0
   20.9502   17.0094  104.5588 C   0  0  0  0  0  0
   19.0382   15.9668  111.0285 H   0  0  0  0  0  0
   18.5114   17.1837  109.0268 H   0  0  0  0  0  0
   22.4071   13.5990  106.4841 H   0  0  0  0  0  0
   21.4313   12.6085  108.4307 H   0  0  0  0  0  0
   19.7476   16.9747  106.8680 H   0  0  0  0  0  0
   19.6873   12.5728  110.0180 H   0  0  0  0  0  0
   17.4699   13.6290  109.8257 H   0  0  0  0  0  0
   17.0365   17.2405  111.2188 H   0  0  0  0  0  0
   16.7181   15.7387  112.0350 H   0  0  0  0  0  0
   14.8144   16.4640  110.5373 H   0  0  0  0  0  0
   15.4299   14.8822  110.1227 H   0  0  0  0  0  0
   16.0921   17.5088  108.6748 H   0  0  0  0  0  0
   15.1682   16.1628  108.0438 H   0  0  0  0  0  0
   19.6981   14.4317  112.8138 H   0  0  0  0  0  0
   17.5177   11.9941  115.3552 H   0  0  0  0  0  0
   16.0165   11.2730  113.4984 H   0  0  0  0  0  0
   16.4478   12.1189  111.2136 H   0  0  0  0  0  0
   22.0638   14.3619  104.2232 H   0  0  0  0  0  0
   23.1172   15.5621  103.6212 H   0  0  0  0  0  0
   23.5636   14.7082  105.0524 H   0  0  0  0  0  0
   22.4847   17.8868  106.5590 H   0  0  0  0  0  0
   23.7124   16.6027  106.5587 H   0  0  0  0  0  0
   23.5163   17.6598  105.1764 H   0  0  0  0  0  0
   20.7296   17.9607  105.0416 H   0  0  0  0  0  0
   21.3461   17.2449  103.5701 H   0  0  0  0  0  0
   19.9840   16.5199  104.4533 H   0  0  0  0  0  0
  1  2  2  0  0  0
  1 21  1  0  0  0
  1  4  1  0  0  0
  2  3  1  0  0  0
  2 27  1  0  0  0
  3  6  2  0  0  0
  3 28  1  0  0  0
  4  5  2  0  0  0
  4 29  1  0  0  0
  5  9  1  0  0  0
  5  6  1  0  0  0
  6  7  1  0  0  0
  7  8  1  0  0  0
  7 30  1  0  0  0
  8 10  1  0  0  0
  8 15  1  0  0  0
  8 31  1  0  0  0
  9 14  1  0  0  0
  9 10  1  0  0  0
  9 26  1  0  0  0
 10 11  1  0  0  0
 10 25  1  0  0  0
 11 12  1  0  0  0
 11 32  1  0  0  0
 11 33  1  0  0  0
 12 13  1  0  0  0
 12 34  1  0  0  0
 12 35  1  0  0  0
 13 14  1  0  0  0
 13 36  1  0  0  0
 13 37  1  0  0  0
 15 16  2  0  0  0
 15 20  1  0  0  0
 16 17  1  0  0  0
 16 38  1  0  0  0
 17 18  2  0  0  0
 18 19  1  0  0  0
 18 39  1  0  0  0
 19 20  2  0  0  0
 19 40  1  0  0  0
 20 41  1  0  0  0
 21 22  1  0  0  0
 21 23  1  0  0  0
 21 24  1  0  0  0
 22 42  1  0  0  0
 22 43  1  0  0  0
 22 44  1  0  0  0
 23 45  1  0  0  0
 23 46  1  0  0  0
 23 47  1  0  0  0
 24 48  1  0  0  0
 24 49  1  0  0  0
 24 50  1  0  0  0
M  END
> <s_m_entry_id>
286

> <s_m_entry_name>
dock_pv.285

> <s_m_Source_Path>
/home/csk/Desktop/cluster/DUD-E-result/kif11

> <s_m_Source_File>
dock_pv.maegz

> <i_m_Source_File_Index>
285

> <chembl_id>
CHEMBL1084392

> <chembl_pref_name>
None

> <i_lp_mmshare_version>
53161

> <i_f3d_flags>
0

> <r_lp_tautomer_probability>
1

> <s_lp_Force_Field>
OPLS_2005

> <r_lp_Energy>
27.913382

> <b_lp_Chiralities_Consistent>
1

> <s_lp_Variant>
CHEMBL4581_lig353-1

> <s_i_glide_gridfile>
glide-grid_3cjo

> <i_i_glide_lignum>
506

> <i_i_glide_rotatable_bonds>
2

> <r_i_docking_score>
-7.72805864606548

> <r_i_glide_ligand_efficiency>
-0.322002443586062

> <r_i_glide_ligand_efficiency_sa>
-0.928815770815924

> <r_i_glide_ligand_efficiency_ln>
-1.84967905150755

> <r_i_glide_gscore>
-7.72805864606548

> <r_i_glide_lipo>
-5.08575261977658

> <r_i_glide_hbond>
-0.00683189757219624

> <r_i_glide_metal>
0

> <r_i_glide_rewards>
-1.31894283333333

> <r_i_glide_evdw>
-25.3444709777832

> <r_i_glide_ecoul>
-1.52780759334564

> <r_i_glide_erotb>
0.179863392507633

> <r_i_glide_esite>
0

> <r_i_glide_emodel>
-25.8416776058726

> <r_i_glide_energy>
-26.8722785711288

> <r_i_glide_einternal>
4.98503398895264

> <i_i_glide_confnum>
2

> <i_i_glide_posenum>
86

> <r_i_glide_eff_state_penalty>
0

> <s_user_duplicate_titles>
CHEMBL4581_lig353

> <s_m_subgroup_title>
dock_pv

> <s_m_subgroupid>
dock_pv

> <b_m_subgroup_collapsed>
1

$$$$
CHEMBL4581_lig373
                    3D
 Schrodinger Suite 2021-1.
 57 60  0  0  1  0            999 V2000
   21.2338   16.1643  105.5436 C   0  0  0  0  0  0
   21.8129   14.9493  105.8884 C   0  0  0  0  0  0
   21.3079   14.2294  106.9682 C   0  0  0  0  0  0
   20.1350   16.6362  106.2429 C   0  0  0  0  0  0
   19.6366   15.9621  107.3582 C   0  0  0  0  0  0
   20.2357   14.7383  107.7248 C   0  0  0  0  0  0
   19.8043   14.0399  108.8764 N   0  0  0  0  0  0
   18.5185   14.3822  109.5003 C   0  0  2  0  0  0
   18.4326   16.5163  108.1043 C   0  0  2  0  0  0
   18.3328   15.9286  109.5251 C   0  0  1  0  0  0
   17.0136   16.4264  110.1622 C   0  0  0  0  0  0
   15.7980   16.1074  109.2778 C   0  0  0  0  0  0
   16.0168   16.5537  107.8094 C   0  0  1  0  0  0
   17.2990   16.1535  107.3233 O   0  0  0  0  0  0
   18.3345   13.7622  110.8869 C   0  0  0  0  0  0
   17.3382   12.8039  111.0991 C   0  0  0  0  0  0
   17.1204   12.2999  112.3788 C   0  0  0  0  0  0
   17.8952   12.7535  113.4446 C   0  0  0  0  0  0
   18.8952   13.6993  113.2412 C   0  0  0  0  0  0
   19.1179   14.2001  111.9622 C   0  0  0  0  0  0
   14.8938   16.0740  106.8580 C   0  0  0  0  0  0
   14.9164   14.6294  106.6262 N   0  0  1  0  0  0
   19.1457   16.3671  110.1049 H   0  0  0  0  0  0
   18.4989   17.6037  108.1695 H   0  0  0  0  0  0
   21.9177   13.0719  107.3225 F   0  0  0  0  0  0
   21.9180   17.1988  104.1129 Br  0  0  0  0  0  0
   15.7595   14.2638  105.4857 C   0  0  0  0  0  0
   15.9333   12.7350  105.3593 C   0  0  0  0  0  0
   14.6900   11.9617  105.3589 N   0  0  0  0  0  0
   13.7705   11.9839  104.3819 C   0  0  0  0  0  0
   12.5479   11.0996  104.5760 C   0  0  0  0  0  0
   13.8826   12.6532  103.3554 O   0  0  0  0  0  0
   22.6556   14.5682  105.3305 H   0  0  0  0  0  0
   19.6838   17.5635  105.9323 H   0  0  0  0  0  0
   20.0841   13.0775  109.0040 H   0  0  0  0  0  0
   17.7446   13.9520  108.8616 H   0  0  0  0  0  0
   17.0702   17.5063  110.3131 H   0  0  0  0  0  0
   16.8656   15.9963  111.1533 H   0  0  0  0  0  0
   14.9125   16.5974  109.6849 H   0  0  0  0  0  0
   15.5877   15.0381  109.3180 H   0  0  0  0  0  0
   15.9854   17.6450  107.7821 H   0  0  0  0  0  0
   16.7270   12.4538  110.2795 H   0  0  0  0  0  0
   16.3491   11.5616  112.5466 H   0  0  0  0  0  0
   17.7238   12.3640  114.4380 H   0  0  0  0  0  0
   19.5007   14.0370  114.0693 H   0  0  0  0  0  0
   19.8918   14.9378  111.8088 H   0  0  0  0  0  0
   14.9400   16.6145  105.9104 H   0  0  0  0  0  0
   13.9300   16.3273  107.3011 H   0  0  0  0  0  0
   15.2694   14.1606  107.4481 H   0  0  0  0  0  0
   16.7523   14.7063  105.5604 H   0  0  0  0  0  0
   15.3160   14.6520  104.5670 H   0  0  0  0  0  0
   16.5633   12.3771  106.1751 H   0  0  0  0  0  0
   16.5032   12.5119  104.4564 H   0  0  0  0  0  0
   14.5458   11.3665  106.1657 H   0  0  0  0  0  0
   12.7183   10.3618  105.3586 H   0  0  0  0  0  0
   11.6845   11.7036  104.8545 H   0  0  0  0  0  0
   12.3135   10.5659  103.6552 H   0  0  0  0  0  0
  1  4  1  0  0  0
  1 26  1  0  0  0
  1  2  2  0  0  0
  2  3  1  0  0  0
  2 33  1  0  0  0
  3 25  1  0  0  0
  3  6  2  0  0  0
  4  5  2  0  0  0
  4 34  1  0  0  0
  5  9  1  0  0  0
  5  6  1  0  0  0
  6  7  1  0  0  0
  7  8  1  0  0  0
  7 35  1  0  0  0
  8 10  1  0  0  0
  8 15  1  0  0  0
  8 36  1  0  0  0
  9 10  1  0  0  0
  9 24  1  0  0  0
  9 14  1  0  0  0
 10 23  1  0  0  0
 10 11  1  0  0  0
 11 12  1  0  0  0
 11 37  1  0  0  0
 11 38  1  0  0  0
 12 13  1  0  0  0
 12 39  1  0  0  0
 12 40  1  0  0  0
 13 21  1  0  0  0
 13 14  1  0  0  0
 13 41  1  0  0  0
 15 16  2  0  0  0
 15 20  1  0  0  0
 16 17  1  0  0  0
 16 42  1  0  0  0
 17 18  2  0  0  0
 17 43  1  0  0  0
 18 19  1  0  0  0
 18 44  1  0  0  0
 19 20  2  0  0  0
 19 45  1  0  0  0
 20 46  1  0  0  0
 21 22  1  0  0  0
 21 47  1  0  0  0
 21 48  1  0  0  0
 22 27  1  0  0  0
 22 49  1  0  0  0
 27 28  1  0  0  0
 27 50  1  0  0  0
 27 51  1  0  0  0
 28 29  1  0  0  0
 28 52  1  0  0  0
 28 53  1  0  0  0
 29 30  1  0  0  0
 29 54  1  0  0  0
 30 31  1  0  0  0
 30 32  2  0  0  0
 31 55  1  0  0  0
 31 56  1  0  0  0
 31 57  1  0  0  0
M  END
> <s_m_entry_id>
287

> <s_m_entry_name>
dock_pv.286

> <s_m_Source_Path>
/home/csk/Desktop/cluster/DUD-E-result/kif11

> <s_m_Source_File>
dock_pv.maegz

> <i_m_Source_File_Index>
286

> <chembl_id>
CHEMBL1082249

> <chembl_pref_name>
None

> <i_lp_mmshare_version>
53161

> <i_f3d_flags>
0

> <r_lp_tautomer_probability>
1

> <s_lp_Force_Field>
OPLS_2005

> <r_lp_Energy>
27.238305

> <b_lp_Chiralities_Consistent>
1

> <s_lp_Variant>
CHEMBL4581_lig373-1

> <s_i_glide_gridfile>
glide-grid_3cjo

> <i_i_glide_lignum>
526

> <i_i_glide_rotatable_bonds>
7

> <r_i_docking_score>
-7.72617074954365

> <r_i_glide_ligand_efficiency>
-0.257539024984788

> <r_i_glide_ligand_efficiency_sa>
-0.800233629077146

> <r_i_glide_ligand_efficiency_ln>
-1.75547017766919

> <r_i_glide_gscore>
-7.72617074954365

> <r_i_glide_lipo>
-4.43160663737526

> <r_i_glide_hbond>
-0.261157572224394

> <r_i_glide_metal>
0

> <r_i_glide_rewards>
-0.735518509678384

> <r_i_glide_evdw>
-43.115306854248

> <r_i_glide_ecoul>
-4.33807897567749

> <r_i_glide_erotb>
0.535367425618816

> <r_i_glide_esite>
-0.0267782668204034

> <r_i_glide_emodel>
-68.4258412124427

> <r_i_glide_energy>
-47.4533858299255

> <r_i_glide_einternal>
3.56339073181152

> <i_i_glide_confnum>
46

> <i_i_glide_posenum>
218

> <r_i_glide_eff_state_penalty>
0

> <s_user_duplicate_titles>
CHEMBL4581_lig373,615883

> <s_m_subgroup_title>
dock_pv

> <s_m_subgroupid>
dock_pv

> <b_m_subgroup_collapsed>
1

$$$$
CHEMBL4581_lig192
                    3D
 Schrodinger Suite 2021-1.
 48 50  0  0  1  0            999 V2000
   13.9185   12.4307  106.5602 N   0  0  0  0  0  0
   14.4766   13.7893  106.7725 C   0  0  1  0  0  0
   14.9564   14.0493  108.2375 C   0  0  0  0  0  0
   16.6646   13.4692  108.6268 S   0  0  0  0  0  0
   15.5609   14.0639  105.6948 C   0  0  0  0  0  0
   15.7207   15.1992  105.2513 O   0  0  0  0  0  0
   17.7283   14.7746  109.4353 C   0  0  0  0  0  0
   16.9723   16.1556  109.4548 C   0  0  0  0  0  0
   18.0892   14.3247  110.8974 C   0  0  0  0  0  0
   19.0477   14.7365  108.5769 C   0  0  0  0  0  0
   19.1195   15.0020  111.5722 C   0  0  0  0  0  0
   19.5156   14.6266  112.8535 C   0  0  0  0  0  0
   18.8767   13.5614  113.4822 C   0  0  0  0  0  0
   17.8552   12.8726  112.8401 C   0  0  0  0  0  0
   17.4638   13.2514  111.5599 C   0  0  0  0  0  0
   16.5728   16.7887  108.2652 C   0  0  0  0  0  0
   15.9095   18.0120  108.2751 C   0  0  0  0  0  0
   15.6247   18.6352  109.4827 C   0  0  0  0  0  0
   15.9794   18.0268  110.6788 C   0  0  0  0  0  0
   16.6340   16.7989  110.6621 C   0  0  0  0  0  0
   19.9678   13.6868  108.7812 C   0  0  0  0  0  0
   21.1179   13.5620  108.0046 C   0  0  0  0  0  0
   21.3373   14.4455  106.9585 C   0  0  0  0  0  0
   20.4964   15.5355  106.7797 C   0  0  0  0  0  0
   19.3834   15.6951  107.6014 C   0  0  0  0  0  0
   16.3193   13.0325  105.3216 N   0  0  0  0  0  0
   13.7912   12.2093  105.5824 H   0  0  0  0  0  0
   14.5029   11.7025  106.9726 H   0  0  0  0  0  0
   13.6718   14.4987  106.5721 H   0  0  0  0  0  0
   14.2791   13.5589  108.9324 H   0  0  0  0  0  0
   14.8063   15.0959  108.4763 H   0  0  0  0  0  0
   19.6268   15.8273  111.0907 H   0  0  0  0  0  0
   20.3134   15.1585  113.3526 H   0  0  0  0  0  0
   19.1761   13.2580  114.4746 H   0  0  0  0  0  0
   17.3655   12.0423  113.3294 H   0  0  0  0  0  0
   16.6634   12.6850  111.1088 H   0  0  0  0  0  0
   16.7431   16.3126  107.3128 H   0  0  0  0  0  0
   15.6059   18.4744  107.3496 H   0  0  0  0  0  0
   15.1142   19.5872  109.4910 H   0  0  0  0  0  0
   15.7448   18.5064  111.6180 H   0  0  0  0  0  0
   16.8641   16.3643  111.6213 H   0  0  0  0  0  0
   19.7771   12.9280  109.5255 H   0  0  0  0  0  0
   21.7976   12.7383  108.1641 H   0  0  0  0  0  0
   22.2007   14.3194  106.3220 H   0  0  0  0  0  0
   20.7081   16.2642  106.0115 H   0  0  0  0  0  0
   18.8136   16.5860  107.4230 H   0  0  0  0  0  0
   17.1308   13.1621  104.7198 H   0  0  0  0  0  0
   16.1862   12.1398  105.7701 H   0  0  0  0  0  0
  1  2  1  0  0  0
  1 27  1  0  0  0
  1 28  1  0  0  0
  2  5  1  0  0  0
  2  3  1  0  0  0
  2 29  1  0  0  0
  3  4  1  0  0  0
  3 30  1  0  0  0
  3 31  1  0  0  0
  4  7  1  0  0  0
  5  6  2  0  0  0
  5 26  1  0  0  0
  7  8  1  0  0  0
  7  9  1  0  0  0
  7 10  1  0  0  0
  8 16  2  0  0  0
  8 20  1  0  0  0
  9 15  1  0  0  0
  9 11  2  0  0  0
 10 21  2  0  0  0
 10 25  1  0  0  0
 11 12  1  0  0  0
 11 32  1  0  0  0
 12 13  2  0  0  0
 12 33  1  0  0  0
 13 14  1  0  0  0
 13 34  1  0  0  0
 14 15  2  0  0  0
 14 35  1  0  0  0
 15 36  1  0  0  0
 16 17  1  0  0  0
 16 37  1  0  0  0
 17 18  2  0  0  0
 17 38  1  0  0  0
 18 19  1  0  0  0
 18 39  1  0  0  0
 19 20  2  0  0  0
 19 40  1  0  0  0
 20 41  1  0  0  0
 21 22  1  0  0  0
 21 42  1  0  0  0
 22 23  2  0  0  0
 22 43  1  0  0  0
 23 24  1  0  0  0
 23 44  1  0  0  0
 24 25  2  0  0  0
 24 45  1  0  0  0
 25 46  1  0  0  0
 26 47  1  0  0  0
 26 48  1  0  0  0
M  END
> <s_m_entry_id>
288

> <s_m_entry_name>
dock_pv.287

> <s_m_Source_Path>
/home/csk/Desktop/cluster/DUD-E-result/kif11

> <s_m_Source_File>
dock_pv.maegz

> <i_m_Source_File_Index>
287

> <chembl_id>
CHEMBL232121

> <chembl_pref_name>
None

> <i_lp_mmshare_version>
53161

> <i_f3d_flags>
0

> <r_lp_tautomer_probability>
1

> <s_lp_Force_Field>
OPLS_2005

> <r_lp_Energy>
22.058284

> <b_lp_Chiralities_Consistent>
1

> <s_lp_Variant>
CHEMBL4581_lig192-1

> <s_i_glide_gridfile>
glide-grid_3cjo

> <i_i_glide_lignum>
288

> <i_i_glide_rotatable_bonds>
7

> <r_i_docking_score>
-7.72108684892817

> <r_i_glide_ligand_efficiency>
-0.29696487880493

> <r_i_glide_ligand_efficiency_sa>
-0.87975728495923

> <r_i_glide_ligand_efficiency_ln>
-1.81327191151842

> <r_i_glide_gscore>
-7.72108684892817

> <r_i_glide_lipo>
-4.23277476151353

> <r_i_glide_hbond>
-0.456

> <r_i_glide_metal>
0

> <r_i_glide_rewards>
-1.01707413061174

> <r_i_glide_evdw>
-37.3719596862793

> <r_i_glide_ecoul>
-6.56513452529907

> <r_i_glide_erotb>
0.876842014778561

> <r_i_glide_esite>
-0.0387118084726314

> <r_i_glide_emodel>
-60.2282744967949

> <r_i_glide_energy>
-43.9370942115784

> <r_i_glide_einternal>
11.2217416763306

> <i_i_glide_confnum>
70

> <i_i_glide_posenum>
350

> <r_i_glide_eff_state_penalty>
0

> <s_user_duplicate_titles>
CHEMBL4581_lig192

> <s_m_subgroup_title>
dock_pv

> <s_m_subgroupid>
dock_pv

> <b_m_subgroup_collapsed>
1

$$$$
CHEMBL4581_lig95
                    3D
 Schrodinger Suite 2021-1.
 62 64  0  0  1  0            999 V2000
   22.4330   14.1158  106.1583 C   0  0  0  0  0  0
   22.7264   15.1948  105.3295 C   0  0  0  0  0  0
   21.9112   16.3233  105.3454 C   0  0  0  0  0  0
   20.7843   16.3589  106.1613 C   0  0  0  0  0  0
   20.4658   15.2734  106.9931 C   0  0  0  0  0  0
   21.3302   14.1622  107.0106 C   0  0  0  0  0  0
   21.1890   13.1660  107.9154 F   0  0  0  0  0  0
   22.2018   17.3795  104.5571 F   0  0  0  0  0  0
   19.2878   15.3783  107.8741 C   0  0  0  0  0  0
   18.8613   16.4608  108.3705 N   0  0  0  0  0  0
   17.7475   16.2716  109.1151 N   0  0  0  0  0  0
   17.3742   14.8263  109.2009 C   0  0  1  0  0  0
   18.4137   14.2145  108.2382 C   0  0  0  0  0  0
   17.5527   14.2236  110.6335 C   0  0  0  0  0  0
   18.1677   14.9386  111.6801 C   0  0  0  0  0  0
   18.3359   14.3675  112.9428 C   0  0  0  0  0  0
   17.8904   13.0747  113.1822 C   0  0  0  0  0  0
   17.3067   12.3422  112.1564 C   0  0  0  0  0  0
   17.1726   12.8985  110.8891 C   0  0  0  0  0  0
   17.0111   17.3608  109.4921 C   0  0  0  0  0  0
   16.2012   17.1533  110.5489 N   0  0  0  0  0  0
   17.1162   18.4685  108.9590 O   0  0  0  0  0  0
   15.0578   17.9779  110.9471 C   0  0  0  0  0  0
   15.9066   14.6965  108.6246 C   0  0  0  0  0  0
   15.3765   19.4615  111.1842 C   0  0  0  0  0  0
   15.3692   13.3227  108.1821 C   0  0  0  0  0  0
   14.0783   13.3694  107.3296 C   0  0  0  0  0  0
   14.1143   14.1013  105.9532 C   0  0  0  0  0  0
   14.6994   13.3114  104.7702 N   0  3  0  0  0  0
   14.5389   14.0503  103.6468 O   0  5  0  0  0  0
   16.1777   13.0427  104.9649 C   0  0  0  0  0  0
   13.9771   11.9879  104.5896 C   0  0  0  0  0  0
   23.0785   13.2508  106.1631 H   0  0  0  0  0  0
   23.5852   15.1603  104.6773 H   0  0  0  0  0  0
   20.1667   17.2470  106.1475 H   0  0  0  0  0  0
   18.9816   13.4189  108.7196 H   0  0  0  0  0  0
   17.9800   13.8105  107.3251 H   0  0  0  0  0  0
   18.5408   15.9408  111.5295 H   0  0  0  0  0  0
   18.8013   14.9275  113.7433 H   0  0  0  0  0  0
   18.0037   12.6370  114.1641 H   0  0  0  0  0  0
   16.9535   11.3398  112.3379 H   0  0  0  0  0  0
   16.8002   12.2596  110.1079 H   0  0  0  0  0  0
   16.2892   16.2661  111.0224 H   0  0  0  0  0  0
   14.2789   17.8852  110.1880 H   0  0  0  0  0  0
   14.6399   17.5527  111.8596 H   0  0  0  0  0  0
   15.8454   15.3528  107.7572 H   0  0  0  0  0  0
   15.1872   15.1015  109.3360 H   0  0  0  0  0  0
   14.5703   19.9607  111.7220 H   0  0  0  0  0  0
   16.2937   19.5618  111.7599 H   0  0  0  0  0  0
   15.5109   20.0017  110.2472 H   0  0  0  0  0  0
   15.1182   12.7624  109.0764 H   0  0  0  0  0  0
   16.1431   12.7491  107.6907 H   0  0  0  0  0  0
   13.3244   13.8755  107.9342 H   0  0  0  0  0  0
   13.6827   12.3627  107.2166 H   0  0  0  0  0  0
   14.6448   15.0519  105.9826 H   0  0  0  0  0  0
   13.0932   14.3350  105.6463 H   0  0  0  0  0  0
   16.3168   12.2223  105.6658 H   0  0  0  0  0  0
   16.6556   13.9602  105.3086 H   0  0  0  0  0  0
   16.5905   12.7627  103.9957 H   0  0  0  0  0  0
   14.2259   11.3141  105.4094 H   0  0  0  0  0  0
   12.9056   12.1871  104.5512 H   0  0  0  0  0  0
   14.3109   11.5624  103.6443 H   0  0  0  0  0  0
  1  6  1  0  0  0
  1  2  2  0  0  0
  1 33  1  0  0  0
  2  3  1  0  0  0
  2 34  1  0  0  0
  3  4  2  0  0  0
  3  8  1  0  0  0
  4  5  1  0  0  0
  4 35  1  0  0  0
  5  9  1  0  0  0
  5  6  2  0  0  0
  6  7  1  0  0  0
  9 10  2  0  0  0
  9 13  1  0  0  0
 10 11  1  0  0  0
 11 20  1  0  0  0
 11 12  1  0  0  0
 12 24  1  0  0  0
 12 13  1  0  0  0
 12 14  1  0  0  0
 13 36  1  0  0  0
 13 37  1  0  0  0
 14 19  1  0  0  0
 14 15  2  0  0  0
 15 16  1  0  0  0
 15 38  1  0  0  0
 16 17  2  0  0  0
 16 39  1  0  0  0
 17 18  1  0  0  0
 17 40  1  0  0  0
 18 19  2  0  0  0
 18 41  1  0  0  0
 19 42  1  0  0  0
 20 21  1  0  0  0
 20 22  2  0  0  0
 21 23  1  0  0  0
 21 43  1  0  0  0
 23 25  1  0  0  0
 23 44  1  0  0  0
 23 45  1  0  0  0
 24 26  1  0  0  0
 24 46  1  0  0  0
 24 47  1  0  0  0
 25 48  1  0  0  0
 25 49  1  0  0  0
 25 50  1  0  0  0
 26 27  1  0  0  0
 26 51  1  0  0  0
 26 52  1  0  0  0
 27 28  1  0  0  0
 27 53  1  0  0  0
 27 54  1  0  0  0
 28 29  1  0  0  0
 28 55  1  0  0  0
 28 56  1  0  0  0
 29 30  1  0  0  0
 29 31  1  0  0  0
 29 32  1  0  0  0
 31 57  1  0  0  0
 31 58  1  0  0  0
 31 59  1  0  0  0
 32 60  1  0  0  0
 32 61  1  0  0  0
 32 62  1  0  0  0
M  CHG  2  29   1  30  -1
M  END
> <s_m_entry_id>
289

> <s_m_entry_name>
dock_pv.288

> <s_m_Source_Path>
/home/csk/Desktop/cluster/DUD-E-result/kif11

> <s_m_Source_File>
dock_pv.maegz

> <i_m_Source_File_Index>
288

> <chembl_id>
CHEMBL378184

> <chembl_pref_name>
None

> <i_lp_mmshare_version>
53161

> <i_f3d_flags>
0

> <r_lp_tautomer_probability>
1

> <s_lp_Force_Field>
OPLS_2005

> <r_lp_Energy>
38.76954

> <b_lp_Chiralities_Consistent>
1

> <s_lp_Variant>
CHEMBL4581_lig95-2

> <s_i_glide_gridfile>
glide-grid_3cjo

> <i_i_glide_lignum>
157

> <i_i_glide_rotatable_bonds>
10

> <r_i_docking_score>
-7.71752032487436

> <r_i_glide_ligand_efficiency>
-0.241172510152324

> <r_i_glide_ligand_efficiency_sa>
-0.765674991758678

> <r_i_glide_ligand_efficiency_ln>
-1.72816317239808

> <r_i_glide_gscore>
-7.71752032487436

> <r_i_glide_lipo>
-3.96468927983946

> <r_i_glide_hbond>
0

> <r_i_glide_metal>
0

> <r_i_glide_rewards>
-2.00217874449951

> <r_i_glide_evdw>
-46.0175285339355

> <r_i_glide_ecoul>
-1.73022937774658

> <r_i_glide_erotb>
0.809758532823369

> <r_i_glide_esite>
0

> <r_i_glide_emodel>
-66.9304126603747

> <r_i_glide_energy>
-47.7477579116821

> <r_i_glide_einternal>
4.74347162246704

> <i_i_glide_confnum>
56

> <i_i_glide_posenum>
287

> <r_i_glide_eff_state_penalty>
0

> <s_user_duplicate_titles>
CHEMBL4581_lig95,348374

> <s_m_subgroup_title>
dock_pv

> <s_m_subgroupid>
dock_pv

> <b_m_subgroup_collapsed>
1

$$$$
CHEMBL4581_lig246
                    3D
 Schrodinger Suite 2021-1.
 39 42  0  0  1  0            999 V2000
   21.1165   13.6358  107.9819 C   0  0  0  0  0  0
   20.0467   13.5628  108.8734 C   0  0  0  0  0  0
   18.9628   14.4566  108.7949 C   0  0  0  0  0  0
   18.9859   15.4791  107.8150 C   0  0  0  0  0  0
   17.8453   16.4942  107.7456 C   0  0  0  0  0  0
   16.5758   15.9769  108.2632 N   0  0  1  0  0  0
   16.7630   15.5135  109.6382 C   0  0  0  0  0  0
   17.7076   14.2809  109.6727 C   0  0  2  0  0  0
   15.5352   16.9994  108.1928 C   0  0  0  0  0  0
   17.9866   13.8462  111.1138 C   0  0  0  0  0  0
   18.8928   14.5615  111.9044 C   0  0  0  0  0  0
   19.1139   14.1841  113.2268 C   0  0  0  0  0  0
   18.4228   13.0961  113.7592 C   0  0  0  0  0  0
   17.5189   12.3804  112.9771 C   0  0  0  0  0  0
   17.3078   12.7481  111.6519 C   0  0  0  0  0  0
   20.0847   15.5693  106.9504 C   0  0  0  0  0  0
   21.1071   14.6427  107.0231 C   0  0  0  0  0  0
   22.0874   14.8297  106.0831 O   0  0  0  0  0  0
   21.8231   16.0794  105.4427 C   0  0  0  0  0  0
   20.3925   16.4954  105.8111 C   0  0  0  0  0  0
   21.9257   12.9204  108.0361 H   0  0  0  0  0  0
   20.0335   12.7679  109.6045 H   0  0  0  0  0  0
   17.6794   16.7612  106.7006 H   0  0  0  0  0  0
   18.1446   17.4082  108.2643 H   0  0  0  0  0  0
   15.7962   15.2064  110.0408 H   0  0  0  0  0  0
   17.1126   16.3264  110.2790 H   0  0  0  0  0  0
   17.1681   13.4543  109.2032 H   0  0  0  0  0  0
   15.3908   17.3336  107.1638 H   0  0  0  0  0  0
   14.5817   16.6027  108.5451 H   0  0  0  0  0  0
   15.7816   17.8719  108.8006 H   0  0  0  0  0  0
   19.4194   15.4111  111.4919 H   0  0  0  0  0  0
   19.8154   14.7340  113.8380 H   0  0  0  0  0  0
   18.5862   12.8052  114.7880 H   0  0  0  0  0  0
   16.9663   11.5569  113.4018 H   0  0  0  0  0  0
   16.6004   12.1907  111.0534 H   0  0  0  0  0  0
   22.5174   16.8116  105.8610 H   0  0  0  0  0  0
   21.9959   16.0422  104.3665 H   0  0  0  0  0  0
   19.7286   16.3193  104.9642 H   0  0  0  0  0  0
   20.3450   17.5583  106.0609 H   0  0  0  0  0  0
  1  2  1  0  0  0
  1 17  2  0  0  0
  1 21  1  0  0  0
  2  3  2  0  0  0
  2 22  1  0  0  0
  3  4  1  0  0  0
  3  8  1  0  0  0
  4 16  2  0  0  0
  4  5  1  0  0  0
  5  6  1  0  0  0
  5 23  1  0  0  0
  5 24  1  0  0  0
  6  9  1  0  0  0
  6  7  1  0  0  0
  7  8  1  0  0  0
  7 25  1  0  0  0
  7 26  1  0  0  0
  8 10  1  0  0  0
  8 27  1  0  0  0
  9 28  1  0  0  0
  9 29  1  0  0  0
  9 30  1  0  0  0
 10 11  2  0  0  0
 10 15  1  0  0  0
 11 12  1  0  0  0
 11 31  1  0  0  0
 12 13  2  0  0  0
 12 32  1  0  0  0
 13 14  1  0  0  0
 13 33  1  0  0  0
 14 15  2  0  0  0
 14 34  1  0  0  0
 15 35  1  0  0  0
 16 17  1  0  0  0
 16 20  1  0  0  0
 17 18  1  0  0  0
 18 19  1  0  0  0
 19 20  1  0  0  0
 19 36  1  0  0  0
 19 37  1  0  0  0
 20 38  1  0  0  0
 20 39  1  0  0  0
M  END
> <s_m_entry_id>
290

> <s_m_entry_name>
dock_pv.289

> <s_m_Source_Path>
/home/csk/Desktop/cluster/DUD-E-result/kif11

> <s_m_Source_File>
dock_pv.maegz

> <i_m_Source_File_Index>
289

> <chembl_id>
CHEMBL252141

> <chembl_pref_name>
None

> <i_lp_mmshare_version>
53161

> <i_f3d_flags>
0

> <r_lp_tautomer_probability>
1

> <s_lp_Force_Field>
OPLS_2005

> <r_lp_Energy>
40.749645

> <b_lp_Chiralities_Consistent>
1

> <s_lp_Variant>
CHEMBL4581_lig246-1

> <s_i_glide_gridfile>
glide-grid_3cjo

> <i_i_glide_lignum>
370

> <i_i_glide_rotatable_bonds>
1

> <r_i_docking_score>
-7.70548831557501

> <r_i_glide_ligand_efficiency>
-0.385274415778751

> <r_i_glide_ligand_efficiency_sa>
-1.04579566036884

> <r_i_glide_ligand_efficiency_ln>
-1.92842958137468

> <r_i_glide_gscore>
-7.70548831557501

> <r_i_glide_lipo>
-4.45567765908455

> <r_i_glide_hbond>
0

> <r_i_glide_metal>
0

> <r_i_glide_rewards>
-1.71655603030303

> <r_i_glide_evdw>
-33.1007614135742

> <r_i_glide_ecoul>
-0.872908473014832

> <r_i_glide_erotb>
0.252719715443509

> <r_i_glide_esite>
0

> <r_i_glide_emodel>
-48.6334648371038

> <r_i_glide_energy>
-33.9736698865891

> <r_i_glide_einternal>
0.19348618388176

> <i_i_glide_confnum>
1

> <i_i_glide_posenum>
244

> <r_i_glide_eff_state_penalty>
0

> <s_user_duplicate_titles>
CHEMBL4581_lig246

> <s_m_subgroup_title>
dock_pv

> <s_m_subgroupid>
dock_pv

> <b_m_subgroup_collapsed>
1

$$$$
CHEMBL4581_lig74
                    3D
 Schrodinger Suite 2021-1.
 47 50  0  0  1  0            999 V2000
   19.8229   16.3123  105.7528 C   0  0  0  0  0  0
   18.6550   16.0864  106.4782 C   0  0  0  0  0  0
   18.5961   15.1294  107.4992 C   0  0  0  0  0  0
   19.7438   14.3623  107.7917 C   0  0  0  0  0  0
   19.7592   13.3691  108.9601 C   0  0  0  0  0  0
   18.5376   13.4292  109.7897 N   0  0  0  0  0  0
   17.2829   13.5815  109.0337 C   0  0  0  0  0  0
   17.3211   14.9628  108.3323 C   0  0  1  0  0  0
   17.0602   16.1349  109.2905 C   0  0  0  0  0  0
   15.7516   16.3993  109.7113 C   0  0  0  0  0  0
   15.4834   17.4835  110.5459 C   0  0  0  0  0  0
   16.5175   18.3203  110.9589 C   0  0  0  0  0  0
   17.8263   18.0623  110.5585 C   0  0  0  0  0  0
   18.0956   16.9738  109.7326 C   0  0  0  0  0  0
   18.6207   13.6731  111.1263 C   0  0  0  0  0  0
   19.5181   14.3866  111.5761 O   0  0  0  0  0  0
   17.7254   13.0694  111.9616 N   0  0  0  0  0  0
   16.8214   11.9710  111.5954 C   0  0  0  0  0  0
   17.7229   13.3571  113.4022 C   0  0  0  0  0  0
   14.2035   17.7283  110.9588 O   0  0  0  0  0  0
   20.8566   14.5241  106.9590 C   0  0  0  0  0  0
   20.9197   15.4903  105.9742 C   0  0  0  0  0  0
   22.2894   15.4722  105.3806 C   0  0  0  0  0  0
   22.8786   14.1987  105.9938 C   0  0  0  0  0  0
   22.0028   13.7753  107.0425 O   0  0  0  0  0  0
   19.8506   17.0935  105.0074 H   0  0  0  0  0  0
   17.7843   16.6929  106.2782 H   0  0  0  0  0  0
   20.6646   13.5113  109.5532 H   0  0  0  0  0  0
   19.8339   12.3622  108.5591 H   0  0  0  0  0  0
   16.3834   13.4315  109.6270 H   0  0  0  0  0  0
   17.2454   12.7803  108.2933 H   0  0  0  0  0  0
   16.4904   14.9859  107.6244 H   0  0  0  0  0  0
   14.9379   15.7682  109.3866 H   0  0  0  0  0  0
   16.3185   19.1631  111.6044 H   0  0  0  0  0  0
   18.6306   18.7051  110.8881 H   0  0  0  0  0  0
   19.1179   16.7920  109.4374 H   0  0  0  0  0  0
   17.1498   11.4303  110.7083 H   0  0  0  0  0  0
   16.7223   11.2450  112.4029 H   0  0  0  0  0  0
   15.8284   12.3621  111.3854 H   0  0  0  0  0  0
   18.3282   14.2255  113.6673 H   0  0  0  0  0  0
   16.7180   13.5488  113.7647 H   0  0  0  0  0  0
   18.1150   12.5015  113.9536 H   0  0  0  0  0  0
   14.1486   18.5164  111.5042 H   0  0  0  0  0  0
   22.3177   15.4306  104.2914 H   0  0  0  0  0  0
   22.8686   16.3406  105.6962 H   0  0  0  0  0  0
   23.8992   14.3621  106.3394 H   0  0  0  0  0  0
   22.8990   13.4133  105.2381 H   0  0  0  0  0  0
  1  2  1  0  0  0
  1 22  2  0  0  0
  1 26  1  0  0  0
  2  3  2  0  0  0
  2 27  1  0  0  0
  3  4  1  0  0  0
  3  8  1  0  0  0
  4  5  1  0  0  0
  4 21  2  0  0  0
  5  6  1  0  0  0
  5 28  1  0  0  0
  5 29  1  0  0  0
  6 15  1  0  0  0
  6  7  1  0  0  0
  7  8  1  0  0  0
  7 30  1  0  0  0
  7 31  1  0  0  0
  8  9  1  0  0  0
  8 32  1  0  0  0
  9 14  1  0  0  0
  9 10  2  0  0  0
 10 11  1  0  0  0
 10 33  1  0  0  0
 11 12  2  0  0  0
 11 20  1  0  0  0
 12 13  1  0  0  0
 12 34  1  0  0  0
 13 14  2  0  0  0
 13 35  1  0  0  0
 14 36  1  0  0  0
 15 16  2  0  0  0
 15 17  1  0  0  0
 17 18  1  0  0  0
 17 19  1  0  0  0
 18 37  1  0  0  0
 18 38  1  0  0  0
 18 39  1  0  0  0
 19 40  1  0  0  0
 19 41  1  0  0  0
 19 42  1  0  0  0
 20 43  1  0  0  0
 21 22  1  0  0  0
 21 25  1  0  0  0
 22 23  1  0  0  0
 23 24  1  0  0  0
 23 44  1  0  0  0
 23 45  1  0  0  0
 24 25  1  0  0  0
 24 46  1  0  0  0
 24 47  1  0  0  0
M  END
> <s_m_entry_id>
291

> <s_m_entry_name>
dock_pv.290

> <s_m_Source_Path>
/home/csk/Desktop/cluster/DUD-E-result/kif11

> <s_m_Source_File>
dock_pv.maegz

> <i_m_Source_File_Index>
290

> <chembl_id>
CHEMBL381794

> <chembl_pref_name>
None

> <i_lp_mmshare_version>
53161

> <i_f3d_flags>
0

> <r_lp_tautomer_probability>
0.999999999997365

> <s_lp_Force_Field>
OPLS_2005

> <r_lp_Energy>
61.230269

> <b_lp_Chiralities_Consistent>
1

> <s_lp_Variant>
CHEMBL4581_lig74-2

> <s_i_glide_gridfile>
glide-grid_3cjo

> <i_i_glide_lignum>
114

> <i_i_glide_rotatable_bonds>
4

> <r_i_docking_score>
-7.70419216843354

> <r_i_glide_ligand_efficiency>
-0.308167686737342

> <r_i_glide_ligand_efficiency_sa>
-0.901087781397183

> <r_i_glide_ligand_efficiency_ln>
-1.82612441992749

> <r_i_glide_gscore>
-7.70419216843354

> <r_i_glide_lipo>
-4.05072799474614

> <r_i_glide_hbond>
0

> <r_i_glide_metal>
0

> <r_i_glide_rewards>
-1.59420793145114

> <r_i_glide_evdw>
-39.4231109619141

> <r_i_glide_ecoul>
-2.78926682472229

> <r_i_glide_erotb>
0.330289329567785

> <r_i_glide_esite>
0

> <r_i_glide_emodel>
-58.2915745928956

> <r_i_glide_energy>
-42.2123777866364

> <r_i_glide_einternal>
1.49840366840363

> <i_i_glide_confnum>
17

> <i_i_glide_posenum>
138

> <r_i_glide_eff_state_penalty>
0

> <s_user_duplicate_titles>
CHEMBL4581_lig74

> <s_m_subgroup_title>
dock_pv

> <s_m_subgroupid>
dock_pv

> <b_m_subgroup_collapsed>
1

$$$$
CHEMBL4581_lig308
                    3D
 Schrodinger Suite 2021-1.
 46 49  0  0  1  0            999 V2000
   19.5621   13.8500  108.5555 N   0  0  0  0  0  0
   18.7265   15.9062  108.1921 C   0  0  0  0  0  0
   18.5335   14.7032  108.8519 C   0  0  0  0  0  0
   17.3365   14.3497  109.7368 C   0  0  2  0  0  0
   16.4081   15.5170  109.7092 N   0  0  0  0  0  0
   17.0474   16.8540  109.7625 C   0  0  0  0  0  0
   17.7780   17.0767  108.4107 C   0  0  0  0  0  0
   20.3888   14.4243  107.6128 C   0  0  0  0  0  0
   19.8732   15.7301  107.3481 C   0  0  0  0  0  0
   20.5270   16.5329  106.4000 C   0  0  0  0  0  0
   21.6591   16.0412  105.7591 C   0  0  0  0  0  0
   22.1363   14.7617  106.0278 C   0  0  0  0  0  0
   21.5189   13.9247  106.9591 C   0  0  0  0  0  0
   17.7512   13.8877  111.1315 C   0  0  0  0  0  0
   17.1178   12.7957  111.7344 C   0  0  0  0  0  0
   17.4900   12.3867  113.0159 C   0  0  0  0  0  0
   18.5065   13.0531  113.6987 C   0  0  0  0  0  0
   19.1502   14.1302  113.0923 C   0  0  0  0  0  0
   18.7672   14.5540  111.8255 C   0  0  0  0  0  0
   15.1106   15.4399  109.3036 C   0  0  0  0  0  0
   14.4273   16.4514  109.1185 O   0  0  0  0  0  0
   14.4161   14.0639  109.1909 C   0  0  0  0  0  0
   12.9060   14.1234  108.8421 C   0  0  0  0  0  0
   12.7066   14.5570  107.4711 N   0  0  0  0  0  0
   20.1881   14.7620  113.7154 O   0  0  0  0  0  0
   22.3011   16.8199  104.8614 F   0  0  0  0  0  0
   19.6192   12.9199  108.9460 H   0  0  0  0  0  0
   16.8615   13.4831  109.2796 H   0  0  0  0  0  0
   17.7563   16.8652  110.5903 H   0  0  0  0  0  0
   16.3494   17.6466  110.0380 H   0  0  0  0  0  0
   17.0600   17.1622  107.5942 H   0  0  0  0  0  0
   18.3182   18.0218  108.4497 H   0  0  0  0  0  0
   20.1686   17.5267  106.1719 H   0  0  0  0  0  0
   23.0094   14.4104  105.4976 H   0  0  0  0  0  0
   21.9018   12.9327  107.1517 H   0  0  0  0  0  0
   16.3295   12.2624  111.2218 H   0  0  0  0  0  0
   16.9763   11.5614  113.4832 H   0  0  0  0  0  0
   18.7925   12.7232  114.6872 H   0  0  0  0  0  0
   19.2819   15.3916  111.3783 H   0  0  0  0  0  0
   14.5430   13.5483  110.1421 H   0  0  0  0  0  0
   14.9194   13.4696  108.4278 H   0  0  0  0  0  0
   12.3716   14.8002  109.5119 H   0  0  0  0  0  0
   12.4398   13.1482  108.9582 H   0  0  0  0  0  0
   11.7202   14.6484  107.2713 H   0  0  0  0  0  0
   13.1008   15.4849  107.3750 H   0  0  0  0  0  0
   20.4047   14.3720  114.5618 H   0  0  0  0  0  0
  1  8  1  0  0  0
  1  3  1  0  0  0
  1 27  1  0  0  0
  2  7  1  0  0  0
  2  9  1  0  0  0
  2  3  2  0  0  0
  3  4  1  0  0  0
  4  5  1  0  0  0
  4 14  1  0  0  0
  4 28  1  0  0  0
  5  6  1  0  0  0
  5 20  1  0  0  0
  6  7  1  0  0  0
  6 29  1  0  0  0
  6 30  1  0  0  0
  7 31  1  0  0  0
  7 32  1  0  0  0
  8 13  1  0  0  0
  8  9  2  0  0  0
  9 10  1  0  0  0
 10 11  2  0  0  0
 10 33  1  0  0  0
 11 12  1  0  0  0
 11 26  1  0  0  0
 12 13  2  0  0  0
 12 34  1  0  0  0
 13 35  1  0  0  0
 14 15  2  0  0  0
 14 19  1  0  0  0
 15 16  1  0  0  0
 15 36  1  0  0  0
 16 17  2  0  0  0
 16 37  1  0  0  0
 17 18  1  0  0  0
 17 38  1  0  0  0
 18 19  2  0  0  0
 18 25  1  0  0  0
 19 39  1  0  0  0
 20 21  2  0  0  0
 20 22  1  0  0  0
 22 23  1  0  0  0
 22 40  1  0  0  0
 22 41  1  0  0  0
 23 24  1  0  0  0
 23 42  1  0  0  0
 23 43  1  0  0  0
 24 44  1  0  0  0
 24 45  1  0  0  0
 25 46  1  0  0  0
M  END
> <s_m_entry_id>
292

> <s_m_entry_name>
dock_pv.291

> <s_m_Source_Path>
/home/csk/Desktop/cluster/DUD-E-result/kif11

> <s_m_Source_File>
dock_pv.maegz

> <i_m_Source_File_Index>
291

> <chembl_id>
CHEMBL589879

> <chembl_pref_name>
None

> <i_lp_mmshare_version>
53161

> <i_f3d_flags>
0

> <r_lp_tautomer_probability>
0.999999999997365

> <s_lp_Force_Field>
OPLS_2005

> <r_lp_Energy>
21.139142

> <b_lp_Chiralities_Consistent>
1

> <s_lp_Variant>
CHEMBL4581_lig308-1

> <s_i_glide_gridfile>
glide-grid_3cjo

> <i_i_glide_lignum>
454

> <i_i_glide_rotatable_bonds>
5

> <r_i_docking_score>
-7.70345736498009

> <r_i_glide_ligand_efficiency>
-0.296286821730003

> <r_i_glide_ligand_efficiency_sa>
-0.877748543542787

> <r_i_glide_ligand_efficiency_ln>
-1.80913168506027

> <r_i_glide_gscore>
-7.70345736498009

> <r_i_glide_lipo>
-4.44060261886787

> <r_i_glide_hbond>
0

> <r_i_glide_metal>
0

> <r_i_glide_rewards>
-1.7335003223962

> <r_i_glide_evdw>
-39.2373046875

> <r_i_glide_ecoul>
-0.174821197986603

> <r_i_glide_erotb>
0.458733990356973

> <r_i_glide_esite>
0

> <r_i_glide_emodel>
-55.2556749653882

> <r_i_glide_energy>
-39.4121258854866

> <r_i_glide_einternal>
4.04321813583374

> <i_i_glide_confnum>
4

> <i_i_glide_posenum>
291

> <r_i_glide_eff_state_penalty>
0

> <s_user_duplicate_titles>
CHEMBL4581_lig308,590997

> <s_m_subgroup_title>
dock_pv

> <s_m_subgroupid>
dock_pv

> <b_m_subgroup_collapsed>
1

$$$$
CHEMBL4581_lig822
                    3D
 Schrodinger Suite 2021-1.
 53 55  0  0  1  0            999 V2000
   14.6256   14.0692  106.6860 C   0  0  0  0  0  0
   14.7034   12.7622  106.0608 N   0  0  0  0  0  0
   15.9785   14.4548  107.3012 C   0  0  0  0  0  0
   16.4122   13.5270  108.8124 S   0  0  0  0  0  0
   17.6855   14.5327  109.7165 C   0  0  0  0  0  0
   17.1584   15.9796  109.9681 C   0  0  0  0  0  0
   17.9680   13.9291  111.1330 C   0  0  0  0  0  0
   18.9389   14.4846  108.7822 C   0  0  0  0  0  0
   18.0495   17.0610  109.9972 C   0  0  0  0  0  0
   17.5986   18.3618  110.1612 C   0  0  0  0  0  0
   16.2383   18.6214  110.2844 C   0  0  0  0  0  0
   15.3213   17.5694  110.2972 C   0  0  0  0  0  0
   15.7919   16.2570  110.1566 C   0  0  0  0  0  0
   20.0087   13.6045  109.0212 C   0  0  0  0  0  0
   21.1037   13.5620  108.1591 C   0  0  0  0  0  0
   21.1181   14.3632  107.0218 C   0  0  0  0  0  0
   20.0923   15.2659  106.7800 C   0  0  0  0  0  0
   19.0198   15.3313  107.6615 C   0  0  0  0  0  0
   18.9069   14.5628  111.9669 C   0  0  0  0  0  0
   19.1347   14.1191  113.2660 C   0  0  0  0  0  0
   18.4323   13.0244  113.7551 C   0  0  0  0  0  0
   17.5179   12.3622  112.9451 C   0  0  0  0  0  0
   17.2940   12.8025  111.6440 C   0  0  0  0  0  0
   13.8230   17.8447  110.4052 C   0  0  0  0  0  0
   13.3589   18.4396  111.7538 C   0  0  0  0  0  0
   13.5233   19.9628  111.8957 C   0  0  0  0  0  0
   13.8456   14.0744  107.4478 H   0  0  0  0  0  0
   14.3352   14.7964  105.9275 H   0  0  0  0  0  0
   15.0986   12.0821  106.7090 H   0  0  0  0  0  0
   13.7818   12.4246  105.8235 H   0  0  0  0  0  0
   15.9670   15.5206  107.5218 H   0  0  0  0  0  0
   16.7664   14.3013  106.5621 H   0  0  0  0  0  0
   19.1118   16.9077  109.8855 H   0  0  0  0  0  0
   18.3185   19.1622  110.1765 H   0  0  0  0  0  0
   15.9077   19.6445  110.3655 H   0  0  0  0  0  0
   15.0779   15.4480  110.1602 H   0  0  0  0  0  0
   19.9915   12.9270  109.8617 H   0  0  0  0  0  0
   21.9159   12.8745  108.3420 H   0  0  0  0  0  0
   21.9493   14.3008  106.3334 H   0  0  0  0  0  0
   20.1221   15.9049  105.9099 H   0  0  0  0  0  0
   18.2318   16.0376  107.4484 H   0  0  0  0  0  0
   19.4639   15.4174  111.6134 H   0  0  0  0  0  0
   19.8533   14.6267  113.8919 H   0  0  0  0  0  0
   18.6021   12.6823  114.7659 H   0  0  0  0  0  0
   16.9650   11.5192  113.3291 H   0  0  0  0  0  0
   16.5638   12.2564  111.0676 H   0  0  0  0  0  0
   13.2835   16.9113  110.2344 H   0  0  0  0  0  0
   13.5205   18.4928  109.5818 H   0  0  0  0  0  0
   13.8749   17.9491  112.5764 H   0  0  0  0  0  0
   12.3013   18.2090  111.8837 H   0  0  0  0  0  0
   13.0419   20.3155  112.8092 H   0  0  0  0  0  0
   13.0658   20.4935  111.0587 H   0  0  0  0  0  0
   14.5681   20.2612  111.9544 H   0  0  0  0  0  0
  1  3  1  0  0  0
  1  2  1  0  0  0
  1 27  1  0  0  0
  1 28  1  0  0  0
  2 29  1  0  0  0
  2 30  1  0  0  0
  3  4  1  0  0  0
  3 31  1  0  0  0
  3 32  1  0  0  0
  4  5  1  0  0  0
  5  7  1  0  0  0
  5  8  1  0  0  0
  5  6  1  0  0  0
  6 13  1  0  0  0
  6  9  2  0  0  0
  7 19  2  0  0  0
  7 23  1  0  0  0
  8 14  2  0  0  0
  8 18  1  0  0  0
  9 10  1  0  0  0
  9 33  1  0  0  0
 10 11  2  0  0  0
 10 34  1  0  0  0
 11 12  1  0  0  0
 11 35  1  0  0  0
 12 24  1  0  0  0
 12 13  2  0  0  0
 13 36  1  0  0  0
 14 15  1  0  0  0
 14 37  1  0  0  0
 15 16  2  0  0  0
 15 38  1  0  0  0
 16 17  1  0  0  0
 16 39  1  0  0  0
 17 18  2  0  0  0
 17 40  1  0  0  0
 18 41  1  0  0  0
 19 20  1  0  0  0
 19 42  1  0  0  0
 20 21  2  0  0  0
 20 43  1  0  0  0
 21 22  1  0  0  0
 21 44  1  0  0  0
 22 23  2  0  0  0
 22 45  1  0  0  0
 23 46  1  0  0  0
 24 25  1  0  0  0
 24 47  1  0  0  0
 24 48  1  0  0  0
 25 26  1  0  0  0
 25 49  1  0  0  0
 25 50  1  0  0  0
 26 51  1  0  0  0
 26 52  1  0  0  0
 26 53  1  0  0  0
M  END
> <s_m_entry_id>
293

> <s_m_entry_name>
dock_pv.292

> <s_m_Source_Path>
/home/csk/Desktop/cluster/DUD-E-result/kif11

> <s_m_Source_File>
dock_pv.maegz

> <i_m_Source_File_Index>
292

> <chembl_id>
CHEMBL2022984

> <chembl_pref_name>
None

> <i_lp_mmshare_version>
53161

> <i_f3d_flags>
0

> <r_lp_tautomer_probability>
1

> <s_lp_Force_Field>
OPLS_2005

> <r_lp_Energy>
25.912579

> <b_lp_Chiralities_Consistent>
1

> <s_lp_Variant>
CHEMBL4581_lig822-1

> <s_i_glide_gridfile>
glide-grid_3cjo

> <i_i_glide_lignum>
1209

> <i_i_glide_rotatable_bonds>
8

> <r_i_docking_score>
-7.70197660755687

> <r_i_glide_ligand_efficiency>
-0.296229869521418

> <r_i_glide_ligand_efficiency_sa>
-0.87757982284895

> <r_i_glide_ligand_efficiency_ln>
-1.80878393403819

> <r_i_glide_gscore>
-7.70197660755687

> <r_i_glide_lipo>
-4.78515341670239

> <r_i_glide_hbond>
-0.32

> <r_i_glide_metal>
0

> <r_i_glide_rewards>
-1.06068566666667

> <r_i_glide_evdw>
-42.8455772399902

> <r_i_glide_ecoul>
-1.83195042610168

> <r_i_glide_erotb>
0.880933901726942

> <r_i_glide_esite>
0

> <r_i_glide_emodel>
-61.2406047451257

> <r_i_glide_energy>
-44.6775276660919

> <r_i_glide_einternal>
8.10079574584961

> <i_i_glide_confnum>
84

> <i_i_glide_posenum>
319

> <r_i_glide_eff_state_penalty>
0

> <s_user_duplicate_titles>
CHEMBL4581_lig822

> <s_m_subgroup_title>
dock_pv

> <s_m_subgroupid>
dock_pv

> <b_m_subgroup_collapsed>
1

$$$$
CHEMBL4581_lig585
                    3D
 Schrodinger Suite 2021-1.
 47 49  0  0  1  0            999 V2000
   19.5805   15.3210  107.7312 C   0  0  0  0  0  0
   18.2113   15.4841  108.4733 C   0  0  0  0  0  0
   18.0848   14.5548  109.7244 C   0  0  0  0  0  0
   19.0041   14.7238  110.7739 C   0  0  0  0  0  0
   18.9165   13.9646  111.9359 C   0  0  0  0  0  0
   17.9185   13.0049  112.0570 C   0  0  0  0  0  0
   17.0037   12.8085  111.0298 C   0  0  0  0  0  0
   17.0702   13.5936  109.8824 C   0  0  0  0  0  0
   16.9499   15.1569  107.1640 S   0  0  0  0  0  0
   17.3135   13.4835  106.5563 C   0  0  0  0  0  0
   16.3458   12.9746  105.4757 C   0  0  0  0  0  0
   18.0093   16.9628  108.9846 C   0  0  0  0  0  0
   16.7066   17.3811  109.7039 C   0  0  0  0  0  0
   16.7162   18.6035  110.3779 C   0  0  0  0  0  0
   15.5540   19.1115  110.9581 C   0  0  0  0  0  0
   14.3695   18.3909  110.8755 C   0  0  0  0  0  0
   14.3434   17.1609  110.2290 C   0  0  0  0  0  0
   15.5092   16.6514  109.6638 C   0  0  0  0  0  0
   15.0227   12.7621  106.0351 N   0  0  0  0  0  0
   19.9932   16.2705  106.7789 C   0  0  0  0  0  0
   21.1344   16.0715  106.0056 C   0  0  0  0  0  0
   21.5164   13.9620  107.1075 C   0  0  0  0  0  0
   20.3854   14.1786  107.9006 C   0  0  0  0  0  0
   21.8842   14.9105  106.1590 C   0  0  0  0  0  0
   22.9826   14.7135  105.3971 F   0  0  0  0  0  0
   17.8353   12.2634  113.1823 F   0  0  0  0  0  0
   19.7932   15.4569  110.6928 H   0  0  0  0  0  0
   19.6217   14.1123  112.7388 H   0  0  0  0  0  0
   16.2317   12.0627  111.1352 H   0  0  0  0  0  0
   16.3084   13.4388  109.1351 H   0  0  0  0  0  0
   18.3193   13.5341  106.1590 H   0  0  0  0  0  0
   17.3712   12.7653  107.3706 H   0  0  0  0  0  0
   16.2922   13.6884  104.6530 H   0  0  0  0  0  0
   16.7169   12.0355  105.0590 H   0  0  0  0  0  0
   18.8428   17.2246  109.6373 H   0  0  0  0  0  0
   18.0868   17.6638  108.1585 H   0  0  0  0  0  0
   17.6366   19.1624  110.4383 H   0  0  0  0  0  0
   15.5619   20.0600  111.4752 H   0  0  0  0  0  0
   13.4677   18.7876  111.3168 H   0  0  0  0  0  0
   13.4211   16.6047  110.1601 H   0  0  0  0  0  0
   15.4329   15.6922  109.1843 H   0  0  0  0  0  0
   14.3937   12.4267  105.3206 H   0  0  0  0  0  0
   15.0918   12.0127  106.7186 H   0  0  0  0  0  0
   19.4184   17.1610  106.5898 H   0  0  0  0  0  0
   21.4285   16.8070  105.2723 H   0  0  0  0  0  0
   22.1014   13.0619  107.2244 H   0  0  0  0  0  0
   20.1084   13.4056  108.6012 H   0  0  0  0  0  0
  1 20  2  0  0  0
  1  2  1  0  0  0
  1 23  1  0  0  0
  2  9  1  0  0  0
  2  3  1  0  0  0
  2 12  1  0  0  0
  3  4  2  0  0  0
  3  8  1  0  0  0
  4  5  1  0  0  0
  4 27  1  0  0  0
  5  6  2  0  0  0
  5 28  1  0  0  0
  6  7  1  0  0  0
  6 26  1  0  0  0
  7  8  2  0  0  0
  7 29  1  0  0  0
  8 30  1  0  0  0
  9 10  1  0  0  0
 10 11  1  0  0  0
 10 31  1  0  0  0
 10 32  1  0  0  0
 11 19  1  0  0  0
 11 33  1  0  0  0
 11 34  1  0  0  0
 12 13  1  0  0  0
 12 35  1  0  0  0
 12 36  1  0  0  0
 13 14  2  0  0  0
 13 18  1  0  0  0
 14 15  1  0  0  0
 14 37  1  0  0  0
 15 16  2  0  0  0
 15 38  1  0  0  0
 16 17  1  0  0  0
 16 39  1  0  0  0
 17 18  2  0  0  0
 17 40  1  0  0  0
 18 41  1  0  0  0
 19 42  1  0  0  0
 19 43  1  0  0  0
 20 21  1  0  0  0
 20 44  1  0  0  0
 21 24  2  0  0  0
 21 45  1  0  0  0
 22 24  1  0  0  0
 22 23  2  0  0  0
 22 46  1  0  0  0
 23 47  1  0  0  0
 24 25  1  0  0  0
M  END
> <s_m_entry_id>
294

> <s_m_entry_name>
dock_pv.293

> <s_m_Source_Path>
/home/csk/Desktop/cluster/DUD-E-result/kif11

> <s_m_Source_File>
dock_pv.maegz

> <i_m_Source_File_Index>
293

> <chembl_id>
CHEMBL2043417

> <chembl_pref_name>
None

> <i_lp_mmshare_version>
53161

> <i_f3d_flags>
0

> <r_lp_tautomer_probability>
1

> <s_lp_Force_Field>
OPLS_2005

> <r_lp_Energy>
23.662229

> <b_lp_Chiralities_Consistent>
1

> <s_lp_Variant>
CHEMBL4581_lig585-1

> <s_i_glide_gridfile>
glide-grid_3cjo

> <i_i_glide_lignum>
898

> <i_i_glide_rotatable_bonds>
7

> <r_i_docking_score>
-7.69650357330902

> <r_i_glide_ligand_efficiency>
-0.296019368204193

> <r_i_glide_ligand_efficiency_sa>
-0.876956213524953

> <r_i_glide_ligand_efficiency_ln>
-1.80749860990357

> <r_i_glide_gscore>
-7.69650357330902

> <r_i_glide_lipo>
-4.06594179664649

> <r_i_glide_hbond>
-0.32

> <r_i_glide_metal>
0

> <r_i_glide_rewards>
-1.830389958073

> <r_i_glide_evdw>
-37.9475784301758

> <r_i_glide_ecoul>
-2.86845207214355

> <r_i_glide_erotb>
0.847474913740791

> <r_i_glide_esite>
0

> <r_i_glide_emodel>
-57.8984883023736

> <r_i_glide_energy>
-40.8160305023193

> <r_i_glide_einternal>
5.97179269790649

> <i_i_glide_confnum>
12

> <i_i_glide_posenum>
72

> <r_i_glide_eff_state_penalty>
0

> <s_user_duplicate_titles>
CHEMBL4581_lig585

> <s_m_subgroup_title>
dock_pv

> <s_m_subgroupid>
dock_pv

> <b_m_subgroup_collapsed>
1

$$$$
CHEMBL4581_lig211
                    3D
 Schrodinger Suite 2021-1.
 61 65  0  0  1  0            999 V2000
   14.3350   13.9637  105.5826 N   0  0  1  0  0  0
   14.1928   12.6260  106.1741 C   0  0  0  0  0  0
   13.2595   11.9070  105.1783 C   0  0  2  0  0  0
   13.4365   13.9591  104.4172 C   0  0  1  0  0  0
   13.6833   12.5592  103.8701 C   0  0  0  0  0  0
   11.8148   12.4285  105.3432 C   0  0  0  0  0  0
   11.9422   13.8769  104.8297 C   0  0  0  0  0  0
   22.6347   15.4448  105.3101 C   0  0  0  0  0  0
   21.7516   16.5220  105.2813 C   0  0  0  0  0  0
   20.6159   16.5177  106.0892 C   0  0  0  0  0  0
   20.3463   15.4312  106.9337 C   0  0  0  0  0  0
   21.2554   14.3603  106.9647 C   0  0  0  0  0  0
   22.3819   14.3621  106.1452 C   0  0  0  0  0  0
   21.9825   17.5616  104.4511 F   0  0  0  0  0  0
   21.1260   13.3480  107.8528 F   0  0  0  0  0  0
   19.1692   15.4710  107.8136 C   0  0  0  0  0  0
   18.7107   16.5122  108.3741 N   0  0  0  0  0  0
   17.6087   16.2180  109.1192 N   0  0  0  0  0  0
   17.2781   14.7683  109.0837 C   0  0  1  0  0  0
   18.3405   14.2509  108.1055 C   0  0  0  0  0  0
   16.9581   17.1726  109.8458 C   0  0  0  0  0  0
   16.0152   16.9102  110.5945 O   0  0  0  0  0  0
   17.4727   14.0622  110.4606 C   0  0  0  0  0  0
   15.8427   14.5381  108.4715 C   0  0  0  0  0  0
   16.9129   12.7978  110.6851 C   0  0  0  0  0  0
   17.1183   12.1375  111.8918 C   0  0  0  0  0  0
   17.8828   12.7286  112.8934 C   0  0  0  0  0  0
   18.4562   13.9779  112.6892 C   0  0  0  0  0  0
   18.2581   14.6354  111.4782 C   0  0  0  0  0  0
   15.4762   15.4341  107.2524 C   0  0  0  0  0  0
   14.1714   15.0927  106.5028 C   0  0  0  0  0  0
   17.3973   18.6352  109.7312 C   0  0  0  0  0  0
   15.1609   12.1236  106.1580 H   0  0  0  0  0  0
   13.7661   12.6173  107.1779 H   0  0  0  0  0  0
   13.3401   10.8189  105.2068 H   0  0  0  0  0  0
   13.6561   14.7646  103.7144 H   0  0  0  0  0  0
   13.0476   12.3011  103.0206 H   0  0  0  0  0  0
   14.7249   12.3699  103.6000 H   0  0  0  0  0  0
   11.1155   11.8517  104.7346 H   0  0  0  0  0  0
   11.4656   12.3896  106.3750 H   0  0  0  0  0  0
   11.6615   14.6171  105.5792 H   0  0  0  0  0  0
   11.2978   14.0336  103.9643 H   0  0  0  0  0  0
   23.5123   15.4418  104.6823 H   0  0  0  0  0  0
   19.9501   17.3690  106.0528 H   0  0  0  0  0  0
   23.0736   13.5337  106.1771 H   0  0  0  0  0  0
   17.9192   13.8531  107.1806 H   0  0  0  0  0  0
   18.9323   13.4573  108.5591 H   0  0  0  0  0  0
   15.7484   13.4953  108.1788 H   0  0  0  0  0  0
   15.0912   14.6933  109.2464 H   0  0  0  0  0  0
   16.3299   12.3022  109.9239 H   0  0  0  0  0  0
   16.6763   11.1661  112.0441 H   0  0  0  0  0  0
   18.0361   12.2149  113.8312 H   0  0  0  0  0  0
   19.0610   14.4306  113.4613 H   0  0  0  0  0  0
   18.7393   15.5914  111.3404 H   0  0  0  0  0  0
   15.3955   16.4687  107.5857 H   0  0  0  0  0  0
   16.2973   15.4101  106.5349 H   0  0  0  0  0  0
   13.3748   14.8652  107.2134 H   0  0  0  0  0  0
   13.8454   15.9787  105.9536 H   0  0  0  0  0  0
   17.5146   18.9170  108.6859 H   0  0  0  0  0  0
   16.6493   19.2938  110.1727 H   0  0  0  0  0  0
   18.3447   18.7856  110.2488 H   0  0  0  0  0  0
  1  2  1  0  0  0
  1  4  1  0  0  0
  1 31  1  0  0  0
  2  3  1  0  0  0
  2 33  1  0  0  0
  2 34  1  0  0  0
  3  5  1  0  0  0
  3  6  1  0  0  0
  3 35  1  0  0  0
  4  7  1  0  0  0
  4  5  1  0  0  0
  4 36  1  0  0  0
  5 37  1  0  0  0
  5 38  1  0  0  0
  6  7  1  0  0  0
  6 39  1  0  0  0
  6 40  1  0  0  0
  7 41  1  0  0  0
  7 42  1  0  0  0
  8  9  2  0  0  0
  8 13  1  0  0  0
  8 43  1  0  0  0
  9 10  1  0  0  0
  9 14  1  0  0  0
 10 11  2  0  0  0
 10 44  1  0  0  0
 11 16  1  0  0  0
 11 12  1  0  0  0
 12 13  2  0  0  0
 12 15  1  0  0  0
 13 45  1  0  0  0
 16 17  2  0  0  0
 16 20  1  0  0  0
 17 18  1  0  0  0
 18 19  1  0  0  0
 18 21  1  0  0  0
 19 20  1  0  0  0
 19 23  1  0  0  0
 19 24  1  0  0  0
 20 46  1  0  0  0
 20 47  1  0  0  0
 21 22  2  0  0  0
 21 32  1  0  0  0
 23 25  2  0  0  0
 23 29  1  0  0  0
 24 30  1  0  0  0
 24 48  1  0  0  0
 24 49  1  0  0  0
 25 26  1  0  0  0
 25 50  1  0  0  0
 26 27  2  0  0  0
 26 51  1  0  0  0
 27 28  1  0  0  0
 27 52  1  0  0  0
 28 29  2  0  0  0
 28 53  1  0  0  0
 29 54  1  0  0  0
 30 31  1  0  0  0
 30 55  1  0  0  0
 30 56  1  0  0  0
 31 57  1  0  0  0
 31 58  1  0  0  0
 32 59  1  0  0  0
 32 60  1  0  0  0
 32 61  1  0  0  0
M  END
> <s_m_entry_id>
295

> <s_m_entry_name>
dock_pv.294

> <s_m_Source_Path>
/home/csk/Desktop/cluster/DUD-E-result/kif11

> <s_m_Source_File>
dock_pv.maegz

> <i_m_Source_File_Index>
294

> <chembl_id>
CHEMBL398396

> <chembl_pref_name>
None

> <i_lp_mmshare_version>
53161

> <i_f3d_flags>
0

> <r_lp_tautomer_probability>
1

> <s_lp_Force_Field>
OPLS_2005

> <r_lp_Energy>
83.237295

> <b_lp_Chiralities_Consistent>
1

> <s_lp_Variant>
CHEMBL4581_lig211-2

> <s_i_glide_gridfile>
glide-grid_3cjo

> <i_i_glide_lignum>
319

> <i_i_glide_rotatable_bonds>
7

> <r_i_docking_score>
-7.69392652513628

> <r_i_glide_ligand_efficiency>
-0.240435203910509

> <r_i_glide_ligand_efficiency_sa>
-0.763334190353622

> <r_i_glide_ligand_efficiency_ln>
-1.72287987749403

> <r_i_glide_gscore>
-7.69392652513628

> <r_i_glide_lipo>
-3.98654971587173

> <r_i_glide_hbond>
0

> <r_i_glide_metal>
0

> <r_i_glide_rewards>
-1.91954329541187

> <r_i_glide_evdw>
-43.5491905212402

> <r_i_glide_ecoul>
-0.875004887580872

> <r_i_glide_erotb>
0.520876745346463

> <r_i_glide_esite>
0

> <r_i_glide_emodel>
-58.6764997598704

> <r_i_glide_energy>
-44.4241954088211

> <r_i_glide_einternal>
6.01939535140991

> <i_i_glide_confnum>
23

> <i_i_glide_posenum>
384

> <r_i_glide_eff_state_penalty>
0

> <s_user_duplicate_titles>
CHEMBL4581_lig211,402124

> <s_m_subgroup_title>
dock_pv

> <s_m_subgroupid>
dock_pv

> <b_m_subgroup_collapsed>
1

$$$$
CHEMBL4581_lig457
                    3D
 Schrodinger Suite 2021-1.
 47 49  0  0  1  0            999 V2000
   17.7401   14.4801  109.5317 C   0  0  0  0  0  0
   16.7177   13.3249  108.4812 S   0  0  0  0  0  0
   17.9553   13.8857  110.9601 C   0  0  0  0  0  0
   17.0052   15.8354  109.7717 C   0  0  0  0  0  0
   19.0677   14.5915  108.7284 C   0  0  0  0  0  0
   17.7380   16.9940  110.0859 C   0  0  0  0  0  0
   17.0956   18.1879  110.4008 C   0  0  0  0  0  0
   15.7060   18.2456  110.3848 C   0  0  0  0  0  0
   14.9584   17.1208  110.0532 C   0  0  0  0  0  0
   15.6028   15.9234  109.7550 C   0  0  0  0  0  0
   17.1879   12.8219  111.4694 C   0  0  0  0  0  0
   17.3796   12.3619  112.7691 C   0  0  0  0  0  0
   18.3376   12.9531  113.5828 C   0  0  0  0  0  0
   19.1185   13.9959  113.0983 C   0  0  0  0  0  0
   18.9353   14.4493  111.7950 C   0  0  0  0  0  0
   19.2493   15.5950  107.7589 C   0  0  0  0  0  0
   20.3158   15.5381  106.8684 C   0  0  0  0  0  0
   21.2285   14.4939  106.9592 C   0  0  0  0  0  0
   21.1351   13.5619  107.9907 C   0  0  0  0  0  0
   20.0581   13.6070  108.8702 C   0  0  0  0  0  0
   16.8558   13.9185  106.7527 C   0  0  0  0  0  0
   15.9845   13.1397  105.7475 C   0  0  1  0  0  0
   14.4748   13.3814  105.9675 C   0  0  0  0  0  0
   13.9165   12.3621  106.6760 O   0  0  0  0  0  0
   13.8745   14.3759  105.5593 O   0  0  0  0  0  0
   16.3180   13.4875  104.3516 N   0  0  0  0  0  0
   14.7276   20.0264  110.8805 I   0  0  0  0  0  0
   18.8167   16.9699  110.1237 H   0  0  0  0  0  0
   17.6722   19.0582  110.6811 H   0  0  0  0  0  0
   13.8795   17.1711  110.0460 H   0  0  0  0  0  0
   14.9895   15.0618  109.5408 H   0  0  0  0  0  0
   16.4134   12.3438  110.8898 H   0  0  0  0  0  0
   16.7664   11.5582  113.1494 H   0  0  0  0  0  0
   18.4778   12.5989  114.5943 H   0  0  0  0  0  0
   19.8681   14.4490  113.7303 H   0  0  0  0  0  0
   19.5543   15.2593  111.4401 H   0  0  0  0  0  0
   18.5140   16.3727  107.6167 H   0  0  0  0  0  0
   20.4140   16.2810  106.0903 H   0  0  0  0  0  0
   22.0436   14.4314  106.2527 H   0  0  0  0  0  0
   21.8680   12.7727  108.0715 H   0  0  0  0  0  0
   19.9534   12.8189  109.6024 H   0  0  0  0  0  0
   16.6341   14.9863  106.7147 H   0  0  0  0  0  0
   17.8920   13.7913  106.4401 H   0  0  0  0  0  0
   16.1865   12.0754  105.8821 H   0  0  0  0  0  0
   14.5572   11.6942  106.9580 H   0  0  0  0  0  0
   17.2970   13.2370  104.1655 H   0  0  0  0  0  0
   15.7634   12.9457  103.7064 H   0  0  0  0  0  0
  1  4  1  0  0  0
  1  5  1  0  0  0
  1  3  1  0  0  0
  1  2  1  0  0  0
  2 21  1  0  0  0
  3 15  1  0  0  0
  3 11  2  0  0  0
  4 10  1  0  0  0
  4  6  2  0  0  0
  5 16  2  0  0  0
  5 20  1  0  0  0
  6  7  1  0  0  0
  6 28  1  0  0  0
  7  8  2  0  0  0
  7 29  1  0  0  0
  8  9  1  0  0  0
  8 27  1  0  0  0
  9 10  2  0  0  0
  9 30  1  0  0  0
 10 31  1  0  0  0
 11 12  1  0  0  0
 11 32  1  0  0  0
 12 13  2  0  0  0
 12 33  1  0  0  0
 13 14  1  0  0  0
 13 34  1  0  0  0
 14 15  2  0  0  0
 14 35  1  0  0  0
 15 36  1  0  0  0
 16 17  1  0  0  0
 16 37  1  0  0  0
 17 18  2  0  0  0
 17 38  1  0  0  0
 18 19  1  0  0  0
 18 39  1  0  0  0
 19 20  2  0  0  0
 19 40  1  0  0  0
 20 41  1  0  0  0
 21 22  1  0  0  0
 21 42  1  0  0  0
 21 43  1  0  0  0
 22 23  1  0  0  0
 22 26  1  0  0  0
 22 44  1  0  0  0
 23 24  1  0  0  0
 23 25  2  0  0  0
 24 45  1  0  0  0
 26 46  1  0  0  0
 26 47  1  0  0  0
M  END
> <s_m_entry_id>
296

> <s_m_entry_name>
dock_pv.295

> <s_m_Source_Path>
/home/csk/Desktop/cluster/DUD-E-result/kif11

> <s_m_Source_File>
dock_pv.maegz

> <i_m_Source_File_Index>
295

> <chembl_id>
CHEMBL1688928

> <chembl_pref_name>
None

> <i_lp_mmshare_version>
53161

> <i_f3d_flags>
0

> <r_lp_tautomer_probability>
1

> <s_lp_Force_Field>
OPLS_2005

> <r_lp_Energy>
22.785272

> <b_lp_Chiralities_Consistent>
1

> <s_lp_Variant>
CHEMBL4581_lig457-1

> <s_i_glide_gridfile>
glide-grid_3cjo

> <i_i_glide_lignum>
680

> <i_i_glide_rotatable_bonds>
8

> <r_i_docking_score>
-7.69327839993783

> <r_i_glide_ligand_efficiency>
-0.284936237034734

> <r_i_glide_ligand_efficiency_sa>
-0.8548087101651

> <r_i_glide_ligand_efficiency_ln>
-1.79086837789852

> <r_i_glide_gscore>
-7.69327839993783

> <r_i_glide_lipo>
-4.54538891598556

> <r_i_glide_hbond>
-0.152

> <r_i_glide_metal>
0

> <r_i_glide_rewards>
-0.139142780303029

> <r_i_glide_evdw>
-41.5864372253418

> <r_i_glide_ecoul>
-9.0903902053833

> <r_i_glide_erotb>
0.594618586778639

> <r_i_glide_esite>
-0.00848489835328904

> <r_i_glide_emodel>
-71.0295593193479

> <r_i_glide_energy>
-50.6768274307251

> <r_i_glide_einternal>
6.49427127838135

> <i_i_glide_confnum>
182

> <i_i_glide_posenum>
390

> <r_i_glide_eff_state_penalty>
0

> <s_user_duplicate_titles>
CHEMBL4581_lig457

> <s_m_subgroup_title>
dock_pv

> <s_m_subgroupid>
dock_pv

> <b_m_subgroup_collapsed>
1

$$$$
CHEMBL4581_lig596
                    3D
 Schrodinger Suite 2021-1.
 48 50  0  0  1  0            999 V2000
   17.1662   14.4950  107.3949 C   0  0  0  0  0  0
   17.8427   14.6263  108.7943 C   0  0  2  0  0  0
   17.4060   15.9570  109.4792 C   0  0  0  0  0  0
   18.3179   16.9077  109.9593 C   0  0  0  0  0  0
   17.8822   18.0841  110.5592 C   0  0  0  0  0  0
   16.5193   18.3244  110.6932 C   0  0  0  0  0  0
   15.5905   17.3921  110.2391 C   0  0  0  0  0  0
   16.0345   16.2187  109.6370 C   0  0  0  0  0  0
   19.6691   14.4382  108.5472 S   0  0  0  0  0  0
   20.1975   15.7096  107.3526 C   0  0  0  0  0  0
   20.5863   15.1664  105.9772 C   0  0  0  0  0  0
   17.4054   13.4357  109.7263 C   0  0  0  0  0  0
   17.8017   13.3817  111.2066 C   0  0  0  0  0  0
   18.8137   14.1673  111.7751 C   0  0  0  0  0  0
   19.1178   14.0548  113.1267 C   0  0  0  0  0  0
   18.4171   13.1490  113.9124 C   0  0  0  0  0  0
   17.4133   12.3619  113.3623 C   0  0  0  0  0  0
   17.1180   12.4645  112.0082 C   0  0  0  0  0  0
   21.7928   14.3620  106.0878 N   0  0  0  0  0  0
   16.6772   13.2646  106.9254 C   0  0  0  0  0  0
   15.8059   14.2905  104.9262 C   0  0  0  0  0  0
   16.3041   15.5200  105.3497 C   0  0  0  0  0  0
   16.9597   15.6219  106.5771 C   0  0  0  0  0  0
   15.9794   13.1643  105.7251 C   0  0  0  0  0  0
   15.4401   11.9621  105.3590 O   0  0  0  0  0  0
   19.3777   16.7410  109.8949 H   0  0  0  0  0  0
   18.5981   18.8038  110.9312 H   0  0  0  0  0  0
   16.1773   19.2309  111.1675 H   0  0  0  0  0  0
   14.5332   17.5835  110.3529 H   0  0  0  0  0  0
   15.3020   15.5086  109.2830 H   0  0  0  0  0  0
   19.4300   16.4724  107.2526 H   0  0  0  0  0  0
   21.0583   16.2329  107.7521 H   0  0  0  0  0  0
   19.7691   14.5714  105.5706 H   0  0  0  0  0  0
   20.7716   15.9872  105.2824 H   0  0  0  0  0  0
   16.3162   13.3563  109.6943 H   0  0  0  0  0  0
   17.7835   12.4970  109.3218 H   0  0  0  0  0  0
   19.3854   14.8635  111.1894 H   0  0  0  0  0  0
   19.9012   14.6599  113.5605 H   0  0  0  0  0  0
   18.6560   13.0471  114.9591 H   0  0  0  0  0  0
   16.8578   11.6696  113.9775 H   0  0  0  0  0  0
   16.3285   11.8498  111.5925 H   0  0  0  0  0  0
   21.6491   13.6660  106.8063 H   0  0  0  0  0  0
   21.9203   13.8420  105.2264 H   0  0  0  0  0  0
   16.7943   12.3616  107.4997 H   0  0  0  0  0  0
   15.2723   14.2134  103.9899 H   0  0  0  0  0  0
   16.1583   16.4028  104.7436 H   0  0  0  0  0  0
   17.2872   16.5989  106.8982 H   0  0  0  0  0  0
   15.5184   11.2997  106.0601 H   0  0  0  0  0  0
  1 20  2  0  0  0
  1  2  1  0  0  0
  1 23  1  0  0  0
  2  9  1  0  0  0
  2  3  1  0  0  0
  2 12  1  0  0  0
  3  4  2  0  0  0
  3  8  1  0  0  0
  4  5  1  0  0  0
  4 26  1  0  0  0
  5  6  2  0  0  0
  5 27  1  0  0  0
  6  7  1  0  0  0
  6 28  1  0  0  0
  7  8  2  0  0  0
  7 29  1  0  0  0
  8 30  1  0  0  0
  9 10  1  0  0  0
 10 11  1  0  0  0
 10 31  1  0  0  0
 10 32  1  0  0  0
 11 19  1  0  0  0
 11 33  1  0  0  0
 11 34  1  0  0  0
 12 13  1  0  0  0
 12 35  1  0  0  0
 12 36  1  0  0  0
 13 14  2  0  0  0
 13 18  1  0  0  0
 14 15  1  0  0  0
 14 37  1  0  0  0
 15 16  2  0  0  0
 15 38  1  0  0  0
 16 17  1  0  0  0
 16 39  1  0  0  0
 17 18  2  0  0  0
 17 40  1  0  0  0
 18 41  1  0  0  0
 19 42  1  0  0  0
 19 43  1  0  0  0
 20 24  1  0  0  0
 20 44  1  0  0  0
 21 24  2  0  0  0
 21 22  1  0  0  0
 21 45  1  0  0  0
 22 23  2  0  0  0
 22 46  1  0  0  0
 23 47  1  0  0  0
 24 25  1  0  0  0
 25 48  1  0  0  0
M  END
> <s_m_entry_id>
297

> <s_m_entry_name>
dock_pv.296

> <s_m_Source_Path>
/home/csk/Desktop/cluster/DUD-E-result/kif11

> <s_m_Source_File>
dock_pv.maegz

> <i_m_Source_File_Index>
296

> <chembl_id>
CHEMBL2043406

> <chembl_pref_name>
None

> <i_lp_mmshare_version>
53161

> <i_f3d_flags>
0

> <r_lp_tautomer_probability>
0.999999999997365

> <s_lp_Force_Field>
OPLS_2005

> <r_lp_Energy>
22.440988

> <b_lp_Chiralities_Consistent>
1

> <s_lp_Variant>
CHEMBL4581_lig596-2

> <s_i_glide_gridfile>
glide-grid_3cjo

> <i_i_glide_lignum>
917

> <i_i_glide_rotatable_bonds>
8

> <r_i_docking_score>
-7.69028636925327

> <r_i_glide_ligand_efficiency>
-0.307611454770131

> <r_i_glide_ligand_efficiency_sa>
-0.899461349260242

> <r_i_glide_ligand_efficiency_ln>
-1.82282832879859

> <r_i_glide_gscore>
-7.69028636925327

> <r_i_glide_lipo>
-4.10858294965446

> <r_i_glide_hbond>
-0.391379623563496

> <r_i_glide_metal>
0

> <r_i_glide_rewards>
-1.13453706060606

> <r_i_glide_evdw>
-39.0189208984375

> <r_i_glide_ecoul>
-6.93730640411377

> <r_i_glide_erotb>
0.935755270109689

> <r_i_glide_esite>
0

> <r_i_glide_emodel>
-65.1679428991018

> <r_i_glide_energy>
-45.9562273025513

> <r_i_glide_einternal>
6.14119863510132

> <i_i_glide_confnum>
76

> <i_i_glide_posenum>
383

> <r_i_glide_eff_state_penalty>
0

> <s_user_duplicate_titles>
CHEMBL4581_lig596

> <s_m_subgroup_title>
dock_pv

> <s_m_subgroupid>
dock_pv

> <b_m_subgroup_collapsed>
1

$$$$
CHEMBL4581_lig596
                    3D
 Schrodinger Suite 2021-1.
 48 50  0  0  1  0            999 V2000
   17.2603   14.8413  107.8418 C   0  0  0  0  0  0
   18.6007   15.0072  108.6337 C   0  0  1  0  0  0
   19.6891   15.2663  107.5378 C   0  0  0  0  0  0
   20.7207   14.3614  107.2298 C   0  0  0  0  0  0
   21.6649   14.6416  106.2427 C   0  0  0  0  0  0
   21.6121   15.8495  105.5588 C   0  0  0  0  0  0
   20.5939   16.7549  105.8251 C   0  0  0  0  0  0
   19.6419   16.4494  106.7930 C   0  0  0  0  0  0
   18.5730   16.5035  109.7477 S   0  0  0  0  0  0
   17.0202   16.4497  110.7207 C   0  0  0  0  0  0
   16.4640   17.8240  111.1348 C   0  0  0  0  0  0
   19.0234   13.7574  109.5084 C   0  0  0  0  0  0
   18.4789   13.5423  110.9217 C   0  0  0  0  0  0
   19.1178   14.1458  112.0142 C   0  0  0  0  0  0
   18.7566   13.8191  113.3178 C   0  0  0  0  0  0
   17.7592   12.8757  113.5315 C   0  0  0  0  0  0
   17.1180   12.2761  112.4516 C   0  0  0  0  0  0
   17.4609   12.6167  111.1463 C   0  0  0  0  0  0
   16.1165   18.6277  109.9770 N   0  0  0  0  0  0
   16.8902   13.6149  107.2535 C   0  0  0  0  0  0
   15.0043   14.6550  106.1450 C   0  0  0  0  0  0
   15.3287   15.8680  106.7362 C   0  0  0  0  0  0
   16.4478   15.9582  107.5579 C   0  0  0  0  0  0
   15.7850   13.5331  106.3950 C   0  0  0  0  0  0
   15.4546   12.3620  105.7685 O   0  0  0  0  0  0
   20.8184   13.4143  107.7343 H   0  0  0  0  0  0
   22.4410   13.9251  106.0167 H   0  0  0  0  0  0
   22.3487   16.0734  104.8010 H   0  0  0  0  0  0
   20.5388   17.6885  105.2860 H   0  0  0  0  0  0
   18.8636   17.1612  106.9950 H   0  0  0  0  0  0
   16.2572   15.8706  110.2035 H   0  0  0  0  0  0
   17.2156   15.9064  111.6422 H   0  0  0  0  0  0
   15.5745   17.6974  111.7537 H   0  0  0  0  0  0
   17.1939   18.3637  111.7415 H   0  0  0  0  0  0
   18.9329   12.8225  108.9568 H   0  0  0  0  0  0
   20.0953   13.8300  109.6966 H   0  0  0  0  0  0
   19.9188   14.8516  111.8526 H   0  0  0  0  0  0
   19.2679   14.2702  114.1562 H   0  0  0  0  0  0
   17.4830   12.6037  114.5403 H   0  0  0  0  0  0
   16.3389   11.5498  112.6296 H   0  0  0  0  0  0
   16.9751   12.1214  110.3171 H   0  0  0  0  0  0
   15.7747   19.5309  110.2782 H   0  0  0  0  0  0
   16.9566   18.8085  109.4442 H   0  0  0  0  0  0
   17.4918   12.7312  107.3900 H   0  0  0  0  0  0
   14.1507   14.5860  105.4866 H   0  0  0  0  0  0
   14.7319   16.7456  106.5369 H   0  0  0  0  0  0
   16.6875   16.9373  107.9382 H   0  0  0  0  0  0
   15.6253   11.5947  106.3326 H   0  0  0  0  0  0
  1 20  2  0  0  0
  1  2  1  0  0  0
  1 23  1  0  0  0
  2  9  1  0  0  0
  2  3  1  0  0  0
  2 12  1  0  0  0
  3  4  2  0  0  0
  3  8  1  0  0  0
  4  5  1  0  0  0
  4 26  1  0  0  0
  5  6  2  0  0  0
  5 27  1  0  0  0
  6  7  1  0  0  0
  6 28  1  0  0  0
  7  8  2  0  0  0
  7 29  1  0  0  0
  8 30  1  0  0  0
  9 10  1  0  0  0
 10 11  1  0  0  0
 10 31  1  0  0  0
 10 32  1  0  0  0
 11 19  1  0  0  0
 11 33  1  0  0  0
 11 34  1  0  0  0
 12 13  1  0  0  0
 12 35  1  0  0  0
 12 36  1  0  0  0
 13 14  2  0  0  0
 13 18  1  0  0  0
 14 15  1  0  0  0
 14 37  1  0  0  0
 15 16  2  0  0  0
 15 38  1  0  0  0
 16 17  1  0  0  0
 16 39  1  0  0  0
 17 18  2  0  0  0
 17 40  1  0  0  0
 18 41  1  0  0  0
 19 42  1  0  0  0
 19 43  1  0  0  0
 20 24  1  0  0  0
 20 44  1  0  0  0
 21 24  2  0  0  0
 21 22  1  0  0  0
 21 45  1  0  0  0
 22 23  2  0  0  0
 22 46  1  0  0  0
 23 47  1  0  0  0
 24 25  1  0  0  0
 25 48  1  0  0  0
M  END
> <s_m_entry_id>
298

> <s_m_entry_name>
dock_pv.297

> <s_m_Source_Path>
/home/csk/Desktop/cluster/DUD-E-result/kif11

> <s_m_Source_File>
dock_pv.maegz

> <i_m_Source_File_Index>
297

> <chembl_id>
CHEMBL2043406

> <chembl_pref_name>
None

> <i_lp_mmshare_version>
53161

> <i_f3d_flags>
0

> <r_lp_tautomer_probability>
0.999999999997365

> <s_lp_Force_Field>
OPLS_2005

> <r_lp_Energy>
23.45484

> <b_lp_Chiralities_Consistent>
1

> <s_lp_Variant>
CHEMBL4581_lig596-1

> <s_i_glide_gridfile>
glide-grid_3cjo

> <i_i_glide_lignum>
916

> <i_i_glide_rotatable_bonds>
8

> <r_i_docking_score>
-7.68876765882859

> <r_i_glide_ligand_efficiency>
-0.307550706353144

> <r_i_glide_ligand_efficiency_sa>
-0.899283719811594

> <r_i_glide_ligand_efficiency_ln>
-1.82246834891586

> <r_i_glide_gscore>
-7.68876765882859

> <r_i_glide_lipo>
-4.41937739232921

> <r_i_glide_hbond>
-0.32

> <r_i_glide_metal>
0

> <r_i_glide_rewards>
-1.09287039393939

> <r_i_glide_evdw>
-38.033878326416

> <r_i_glide_ecoul>
-5.93720817565918

> <r_i_glide_erotb>
0.935755270109689

> <r_i_glide_esite>
0

> <r_i_glide_emodel>
-59.5900273839824

> <r_i_glide_energy>
-43.9710865020752

> <r_i_glide_einternal>
9.24653148651123

> <i_i_glide_confnum>
97

> <i_i_glide_posenum>
180

> <r_i_glide_eff_state_penalty>
0

> <s_user_duplicate_titles>
CHEMBL4581_lig596

> <s_m_subgroup_title>
dock_pv

> <s_m_subgroupid>
dock_pv

> <b_m_subgroup_collapsed>
1

$$$$
CHEMBL4581_lig205
                    3D
 Schrodinger Suite 2021-1.
 64 67  0  0  1  0            999 V2000
   22.5941   15.0296  105.4105 C   0  0  0  0  0  0
   21.7592   16.1429  105.3593 C   0  0  0  0  0  0
   20.6266   16.2033  106.1648 C   0  0  0  0  0  0
   20.3283   15.1681  107.0644 C   0  0  0  0  0  0
   21.2192   14.0821  107.1667 C   0  0  0  0  0  0
   22.3184   13.9984  106.3079 C   0  0  0  0  0  0
   22.0331   17.1616  104.5162 F   0  0  0  0  0  0
   21.1155   13.1623  108.1564 F   0  0  0  0  0  0
   19.1655   15.3284  107.9498 C   0  0  0  0  0  0
   18.8509   16.4184  108.5039 N   0  0  0  0  0  0
   17.7745   16.2898  109.3134 N   0  0  0  0  0  0
   17.2513   14.8905  109.3026 C   0  0  1  0  0  0
   18.1785   14.2417  108.2486 C   0  0  0  0  0  0
   17.3486   17.3901  110.0128 C   0  0  0  0  0  0
   17.9177   18.4810  109.9631 O   0  0  0  0  0  0
   17.4372   14.1516  110.6661 C   0  0  0  0  0  0
   15.7642   14.9677  108.7745 C   0  0  0  0  0  0
   18.1390   14.7253  111.7452 C   0  0  0  0  0  0
   18.3070   14.0375  112.9433 C   0  0  0  0  0  0
   17.7802   12.7597  113.0830 C   0  0  0  0  0  0
   17.1239   12.1565  112.0156 C   0  0  0  0  0  0
   16.9871   12.8328  110.8102 C   0  0  0  0  0  0
   14.9790   13.6864  108.4164 C   0  0  0  0  0  0
   13.5870   13.9527  107.7854 C   0  0  0  0  0  0
   13.5060   14.1251  106.3302 N   0  0  0  0  0  0
   16.1278   17.3213  110.9328 C   0  0  0  0  0  0
   14.3287   15.1935  105.7688 C   0  0  0  0  0  0
   13.9478   15.4958  104.3023 C   0  0  0  0  0  0
   13.8438   14.2452  103.5111 N   0  0  0  0  0  0
   13.2297   13.0407  104.1221 C   0  0  0  0  0  0
   13.7018   12.8824  105.5875 C   0  0  0  0  0  0
   13.8743   14.3762  102.1568 C   0  0  0  0  0  0
   13.6399   13.1499  101.2706 C   0  0  0  0  0  0
   14.1931   15.4212  101.5862 O   0  0  0  0  0  0
   23.4601   14.9747  104.7681 H   0  0  0  0  0  0
   19.9941   17.0785  106.0985 H   0  0  0  0  0  0
   22.9886   13.1563  106.3766 H   0  0  0  0  0  0
   17.6564   13.9632  107.3313 H   0  0  0  0  0  0
   18.6820   13.3512  108.6283 H   0  0  0  0  0  0
   15.1363   15.4832  109.4938 H   0  0  0  0  0  0
   15.7709   15.6191  107.9030 H   0  0  0  0  0  0
   18.5852   15.7050  111.6768 H   0  0  0  0  0  0
   18.8455   14.4959  113.7590 H   0  0  0  0  0  0
   17.8959   12.2286  114.0169 H   0  0  0  0  0  0
   16.7182   11.1630  112.1097 H   0  0  0  0  0  0
   16.5476   12.2971  109.9855 H   0  0  0  0  0  0
   15.5786   13.0438  107.7712 H   0  0  0  0  0  0
   14.7806   13.1621  109.3450 H   0  0  0  0  0  0
   12.8871   13.1720  108.0902 H   0  0  0  0  0  0
   13.1846   14.8708  108.2168 H   0  0  0  0  0  0
   15.9658   16.3363  111.3592 H   0  0  0  0  0  0
   16.2583   18.0193  111.7590 H   0  0  0  0  0  0
   15.2338   17.6260  110.3891 H   0  0  0  0  0  0
   14.2317   16.1011  106.3655 H   0  0  0  0  0  0
   15.3687   14.8638  105.8033 H   0  0  0  0  0  0
   12.9670   15.9717  104.3475 H   0  0  0  0  0  0
   14.7124   16.1740  103.9201 H   0  0  0  0  0  0
   13.5193   12.1134  103.6278 H   0  0  0  0  0  0
   12.1465   13.1604  104.1715 H   0  0  0  0  0  0
   14.7664   12.6388  105.6038 H   0  0  0  0  0  0
   13.1701   12.0579  106.0637 H   0  0  0  0  0  0
   14.3178   12.3426  101.5335 H   0  0  0  0  0  0
   12.6139   12.7977  101.3718 H   0  0  0  0  0  0
   13.8057   13.3984  100.2226 H   0  0  0  0  0  0
  1  6  1  0  0  0
  1  2  2  0  0  0
  1 35  1  0  0  0
  2  3  1  0  0  0
  2  7  1  0  0  0
  3  4  2  0  0  0
  3 36  1  0  0  0
  4  9  1  0  0  0
  4  5  1  0  0  0
  5  8  1  0  0  0
  5  6  2  0  0  0
  6 37  1  0  0  0
  9 10  2  0  0  0
  9 13  1  0  0  0
 10 11  1  0  0  0
 11 12  1  0  0  0
 11 14  1  0  0  0
 12 17  1  0  0  0
 12 13  1  0  0  0
 12 16  1  0  0  0
 13 38  1  0  0  0
 13 39  1  0  0  0
 14 26  1  0  0  0
 14 15  2  0  0  0
 16 18  2  0  0  0
 16 22  1  0  0  0
 17 23  1  0  0  0
 17 40  1  0  0  0
 17 41  1  0  0  0
 18 19  1  0  0  0
 18 42  1  0  0  0
 19 20  2  0  0  0
 19 43  1  0  0  0
 20 21  1  0  0  0
 20 44  1  0  0  0
 21 22  2  0  0  0
 21 45  1  0  0  0
 22 46  1  0  0  0
 23 24  1  0  0  0
 23 47  1  0  0  0
 23 48  1  0  0  0
 24 25  1  0  0  0
 24 49  1  0  0  0
 24 50  1  0  0  0
 25 27  1  0  0  0
 25 31  1  0  0  0
 26 51  1  0  0  0
 26 52  1  0  0  0
 26 53  1  0  0  0
 27 28  1  0  0  0
 27 54  1  0  0  0
 27 55  1  0  0  0
 28 29  1  0  0  0
 28 56  1  0  0  0
 28 57  1  0  0  0
 29 30  1  0  0  0
 29 32  1  0  0  0
 30 31  1  0  0  0
 30 58  1  0  0  0
 30 59  1  0  0  0
 31 60  1  0  0  0
 31 61  1  0  0  0
 32 33  1  0  0  0
 32 34  2  0  0  0
 33 62  1  0  0  0
 33 63  1  0  0  0
 33 64  1  0  0  0
M  END
> <s_m_entry_id>
299

> <s_m_entry_name>
dock_pv.298

> <s_m_Source_Path>
/home/csk/Desktop/cluster/DUD-E-result/kif11

> <s_m_Source_File>
dock_pv.maegz

> <i_m_Source_File_Index>
298

> <chembl_id>
CHEMBL239414

> <chembl_pref_name>
None

> <i_lp_mmshare_version>
53161

> <i_f3d_flags>
0

> <r_lp_tautomer_probability>
1

> <s_lp_Force_Field>
OPLS_2005

> <r_lp_Energy>
59.627779

> <b_lp_Chiralities_Consistent>
1

> <s_lp_Variant>
CHEMBL4581_lig205-1

> <s_i_glide_gridfile>
glide-grid_3cjo

> <i_i_glide_lignum>
312

> <i_i_glide_rotatable_bonds>
8

> <r_i_docking_score>
-7.68711961462014

> <r_i_glide_ligand_efficiency>
-0.226091753371181

> <r_i_glide_ligand_efficiency_sa>
-0.732449511531834

> <r_i_glide_ligand_efficiency_ln>
-1.69830033927136

> <r_i_glide_gscore>
-7.68711961462014

> <r_i_glide_lipo>
-4.00887860362441

> <r_i_glide_hbond>
0

> <r_i_glide_metal>
0

> <r_i_glide_rewards>
-1.94067868372643

> <r_i_glide_evdw>
-45.0945701599121

> <r_i_glide_ecoul>
-0.231145903468132

> <r_i_glide_erotb>
0.551838066246527

> <r_i_glide_esite>
0

> <r_i_glide_emodel>
-45.0377165711507

> <r_i_glide_energy>
-45.3257160633802

> <r_i_glide_einternal>
11.5721921920776

> <i_i_glide_confnum>
53

> <i_i_glide_posenum>
347

> <r_i_glide_eff_state_penalty>
0

> <s_user_duplicate_titles>
CHEMBL4581_lig205,402088

> <s_m_subgroup_title>
dock_pv

> <s_m_subgroupid>
dock_pv

> <b_m_subgroup_collapsed>
1

$$$$
CHEMBL4581_lig816
                    3D
 Schrodinger Suite 2021-1.
 47 49  0  0  1  0            999 V2000
   16.0076   13.1277  105.3613 C   0  0  1  0  0  0
   16.3180   13.5620  103.9827 N   0  0  0  0  0  0
   16.8642   13.9271  106.3612 C   0  0  0  0  0  0
   16.9406   13.1702  108.0177 S   0  0  0  0  0  0
   17.8726   14.3834  109.0681 C   0  0  0  0  0  0
   18.0199   13.8358  110.5176 C   0  0  0  0  0  0
   19.2399   14.5073  108.3225 C   0  0  0  0  0  0
   17.0904   15.7239  109.2264 C   0  0  0  0  0  0
   17.2336   12.7902  111.0434 C   0  0  0  0  0  0
   17.3923   12.3620  112.3625 C   0  0  0  0  0  0
   18.3276   12.9791  113.1895 C   0  0  0  0  0  0
   19.1180   14.0083  112.6820 C   0  0  0  0  0  0
   18.9676   14.4257  111.3647 C   0  0  0  0  0  0
   17.7801   16.9215  109.4866 C   0  0  0  0  0  0
   17.0968   18.1197  109.6677 C   0  0  0  0  0  0
   15.7087   18.1385  109.5888 C   0  0  0  0  0  0
   15.0010   16.9673  109.3374 C   0  0  0  0  0  0
   15.6868   15.7682  109.1629 C   0  0  0  0  0  0
   20.2739   13.5866  108.5664 C   0  0  0  0  0  0
   21.4091   13.5620  107.7590 C   0  0  0  0  0  0
   21.5180   14.4554  106.6969 C   0  0  0  0  0  0
   20.5589   15.4417  106.5030 C   0  0  0  0  0  0
   19.4345   15.4747  107.3198 C   0  0  0  0  0  0
   14.4874   13.2683  105.6332 C   0  0  0  0  0  0
   13.7715   14.1045  105.0815 O   0  0  0  0  0  0
   14.0539   12.3620  106.5590 O   0  0  0  0  0  0
   20.3180   14.7620  113.6560 Cl  0  0  0  0  0  0
   16.2656   12.0707  105.4514 H   0  0  0  0  0  0
   17.3060   13.3488  103.8181 H   0  0  0  0  0  0
   15.7920   13.0209  103.3135 H   0  0  0  0  0  0
   16.5221   14.9603  106.4368 H   0  0  0  0  0  0
   17.8807   13.9620  105.9743 H   0  0  0  0  0  0
   16.4785   12.2947  110.4526 H   0  0  0  0  0  0
   16.7737   11.5620  112.7449 H   0  0  0  0  0  0
   18.4481   12.6522  114.2129 H   0  0  0  0  0  0
   19.5936   15.2267  111.0003 H   0  0  0  0  0  0
   18.8568   16.9321  109.5655 H   0  0  0  0  0  0
   17.6415   19.0289  109.8758 H   0  0  0  0  0  0
   15.1771   19.0684  109.7305 H   0  0  0  0  0  0
   13.9224   16.9873  109.2838 H   0  0  0  0  0  0
   15.1064   14.8746  108.9902 H   0  0  0  0  0  0
   20.1670   12.8288  109.3292 H   0  0  0  0  0  0
   22.1762   12.8196  107.9222 H   0  0  0  0  0  0
   22.3796   14.4113  106.0466 H   0  0  0  0  0  0
   20.6684   16.1562  105.7003 H   0  0  0  0  0  0
   18.6709   16.2052  107.0979 H   0  0  0  0  0  0
   14.7429   11.7710  106.8962 H   0  0  0  0  0  0
  1  3  1  0  0  0
  1 24  1  0  0  0
  1  2  1  0  0  0
  1 28  1  0  0  0
  2 29  1  0  0  0
  2 30  1  0  0  0
  3  4  1  0  0  0
  3 31  1  0  0  0
  3 32  1  0  0  0
  4  5  1  0  0  0
  5  7  1  0  0  0
  5  8  1  0  0  0
  5  6  1  0  0  0
  6  9  2  0  0  0
  6 13  1  0  0  0
  7 19  2  0  0  0
  7 23  1  0  0  0
  8 14  2  0  0  0
  8 18  1  0  0  0
  9 10  1  0  0  0
  9 33  1  0  0  0
 10 11  2  0  0  0
 10 34  1  0  0  0
 11 12  1  0  0  0
 11 35  1  0  0  0
 12 13  2  0  0  0
 12 27  1  0  0  0
 13 36  1  0  0  0
 14 15  1  0  0  0
 14 37  1  0  0  0
 15 16  2  0  0  0
 15 38  1  0  0  0
 16 17  1  0  0  0
 16 39  1  0  0  0
 17 18  2  0  0  0
 17 40  1  0  0  0
 18 41  1  0  0  0
 19 20  1  0  0  0
 19 42  1  0  0  0
 20 21  2  0  0  0
 20 43  1  0  0  0
 21 22  1  0  0  0
 21 44  1  0  0  0
 22 23  2  0  0  0
 22 45  1  0  0  0
 23 46  1  0  0  0
 24 25  2  0  0  0
 24 26  1  0  0  0
 26 47  1  0  0  0
M  END
> <s_m_entry_id>
300

> <s_m_entry_name>
dock_pv.299

> <s_m_Source_Path>
/home/csk/Desktop/cluster/DUD-E-result/kif11

> <s_m_Source_File>
dock_pv.maegz

> <i_m_Source_File_Index>
299

> <chembl_id>
CHEMBL2022594

> <chembl_pref_name>
None

> <i_lp_mmshare_version>
53161

> <i_f3d_flags>
0

> <r_lp_tautomer_probability>
1

> <s_lp_Force_Field>
OPLS_2005

> <r_lp_Energy>
24.690726

> <b_lp_Chiralities_Consistent>
1

> <s_lp_Variant>
CHEMBL4581_lig816-1

> <s_i_glide_gridfile>
glide-grid_3cjo

> <i_i_glide_lignum>
1203

> <i_i_glide_rotatable_bonds>
8

> <r_i_docking_score>
-7.68649755017531

> <r_i_glide_ligand_efficiency>
-0.284685094450937

> <r_i_glide_ligand_efficiency_sa>
-0.854055282414537

> <r_i_glide_ligand_efficiency_ln>
-1.78928990786485

> <r_i_glide_gscore>
-7.68649755017531

> <r_i_glide_lipo>
-4.39489059441154

> <r_i_glide_hbond>
-0.152

> <r_i_glide_metal>
0

> <r_i_glide_rewards>
-0.82861867744751

> <r_i_glide_evdw>
-36.2712554931641

> <r_i_glide_ecoul>
-9.06092834472656

> <r_i_glide_erotb>
0.865589395740072

> <r_i_glide_esite>
-0.00387564768914626

> <r_i_glide_emodel>
-64.2203689463148

> <r_i_glide_energy>
-45.3321838378906

> <r_i_glide_einternal>
5.92769479751587

> <i_i_glide_confnum>
109

> <i_i_glide_posenum>
215

> <r_i_glide_eff_state_penalty>
0

> <s_user_duplicate_titles>
CHEMBL4581_lig816

> <s_m_subgroup_title>
dock_pv

> <s_m_subgroupid>
dock_pv

> <b_m_subgroup_collapsed>
1

$$$$
CHEMBL4581_lig887
                    3D
 Schrodinger Suite 2021-1.
 45 47  0  0  1  0            999 V2000
   17.8126   14.8716  109.0236 C   0  0  1  0  0  0
   19.1978   14.7879  108.3029 C   0  0  0  0  0  0
   16.6908   14.3343  108.0603 C   0  0  0  0  0  0
   19.5464   15.7182  107.3047 C   0  0  0  0  0  0
   20.7010   15.5621  106.5400 C   0  0  0  0  0  0
   21.5179   14.4510  106.7375 C   0  0  0  0  0  0
   21.2436   13.5627  107.7757 C   0  0  0  0  0  0
   20.1017   13.7381  108.5591 C   0  0  0  0  0  0
   15.3277   14.4166  108.4070 C   0  0  0  0  0  0
   14.3240   13.9630  107.5524 C   0  0  0  0  0  0
   14.6547   13.4177  106.3171 C   0  0  0  0  0  0
   15.9894   13.3177  105.9421 C   0  0  0  0  0  0
   16.9898   13.7620  106.8053 C   0  0  0  0  0  0
   17.8722   14.1208  110.3899 C   0  0  0  0  0  0
   17.1055   12.9728  110.6493 C   0  0  0  0  0  0
   17.1453   12.3618  111.8981 C   0  0  0  0  0  0
   17.9598   12.8756  112.9015 C   0  0  0  0  0  0
   18.7491   13.9949  112.6581 C   0  0  0  0  0  0
   18.7102   14.6069  111.4085 C   0  0  0  0  0  0
   17.4479   16.6677  109.3681 S   0  0  0  0  0  0
   16.2936   16.7178  110.7870 C   0  0  0  0  0  0
   15.1278   17.7130  110.6814 C   0  0  0  0  0  0
   15.5831   19.0701  110.9225 N   0  0  0  0  0  0
   16.3180   12.7922  104.7227 O   0  0  0  0  0  0
   21.1180   16.7517  105.3592 Cl  0  0  0  0  0  0
   18.8999   16.5544  107.0832 H   0  0  0  0  0  0
   22.3991   14.3109  106.1297 H   0  0  0  0  0  0
   21.9023   12.7261  107.9552 H   0  0  0  0  0  0
   19.8919   12.9927  109.3129 H   0  0  0  0  0  0
   15.0143   14.8261  109.3484 H   0  0  0  0  0  0
   13.2878   14.0382  107.8460 H   0  0  0  0  0  0
   13.8788   13.0697  105.6513 H   0  0  0  0  0  0
   18.0065   13.6466  106.4631 H   0  0  0  0  0  0
   16.4714   12.5326  109.8945 H   0  0  0  0  0  0
   16.5375   11.4904  112.0876 H   0  0  0  0  0  0
   17.9845   12.3979  113.8707 H   0  0  0  0  0  0
   19.3892   14.3891  113.4338 H   0  0  0  0  0  0
   19.3244   15.4792  111.2332 H   0  0  0  0  0  0
   15.8887   15.7284  110.9688 H   0  0  0  0  0  0
   16.8803   16.9420  111.6755 H   0  0  0  0  0  0
   14.6539   17.6429  109.7011 H   0  0  0  0  0  0
   14.3657   17.4741  111.4241 H   0  0  0  0  0  0
   14.8214   19.7265  110.8266 H   0  0  0  0  0  0
   15.9176   19.1606  111.8754 H   0  0  0  0  0  0
   17.2792   12.7621  104.5596 H   0  0  0  0  0  0
  1  2  1  0  0  0
  1  3  1  0  0  0
  1 14  1  0  0  0
  1 20  1  0  0  0
  2  4  2  0  0  0
  2  8  1  0  0  0
  3  9  2  0  0  0
  3 13  1  0  0  0
  4  5  1  0  0  0
  4 26  1  0  0  0
  5  6  2  0  0  0
  5 25  1  0  0  0
  6  7  1  0  0  0
  6 27  1  0  0  0
  7  8  2  0  0  0
  7 28  1  0  0  0
  8 29  1  0  0  0
  9 10  1  0  0  0
  9 30  1  0  0  0
 10 11  2  0  0  0
 10 31  1  0  0  0
 11 12  1  0  0  0
 11 32  1  0  0  0
 12 13  2  0  0  0
 12 24  1  0  0  0
 13 33  1  0  0  0
 14 15  2  0  0  0
 14 19  1  0  0  0
 15 16  1  0  0  0
 15 34  1  0  0  0
 16 17  2  0  0  0
 16 35  1  0  0  0
 17 18  1  0  0  0
 17 36  1  0  0  0
 18 19  2  0  0  0
 18 37  1  0  0  0
 19 38  1  0  0  0
 20 21  1  0  0  0
 21 22  1  0  0  0
 21 39  1  0  0  0
 21 40  1  0  0  0
 22 23  1  0  0  0
 22 41  1  0  0  0
 22 42  1  0  0  0
 23 43  1  0  0  0
 23 44  1  0  0  0
 24 45  1  0  0  0
M  END
> <s_m_entry_id>
301

> <s_m_entry_name>
dock_pv.300

> <s_m_Source_Path>
/home/csk/Desktop/cluster/DUD-E-result/kif11

> <s_m_Source_File>
dock_pv.maegz

> <i_m_Source_File_Index>
300

> <chembl_id>
CHEMBL2325420

> <chembl_pref_name>
None

> <i_lp_mmshare_version>
53161

> <i_f3d_flags>
0

> <r_lp_tautomer_probability>
0.999999999997365

> <s_lp_Force_Field>
OPLS_2005

> <r_lp_Energy>
23.155284

> <b_lp_Chiralities_Consistent>
1

> <s_lp_Variant>
CHEMBL4581_lig887-2

> <s_i_glide_gridfile>
glide-grid_3cjo

> <i_i_glide_lignum>
1280

> <i_i_glide_rotatable_bonds>
7

> <r_i_docking_score>
-7.68259381465974

> <r_i_glide_ligand_efficiency>
-0.307303752586389

> <r_i_glide_ligand_efficiency_sa>
-0.898561622617861

> <r_i_glide_ligand_efficiency_ln>
-1.82100496283266

> <r_i_glide_gscore>
-7.68259381465974

> <r_i_glide_lipo>
-4.24481334550996

> <r_i_glide_hbond>
-0.425512403244661

> <r_i_glide_metal>
0

> <r_i_glide_rewards>
-0.957355576706294

> <r_i_glide_evdw>
-39.8523826599121

> <r_i_glide_ecoul>
-5.11355543136597

> <r_i_glide_erotb>
0.704739958501683

> <r_i_glide_esite>
0

> <r_i_glide_emodel>
-64.0569291282601

> <r_i_glide_energy>
-44.9659380912781

> <r_i_glide_einternal>
4.29044818878174

> <i_i_glide_confnum>
184

> <i_i_glide_posenum>
8

> <r_i_glide_eff_state_penalty>
0

> <s_user_duplicate_titles>
CHEMBL4581_lig887

> <s_m_subgroup_title>
dock_pv

> <s_m_subgroupid>
dock_pv

> <b_m_subgroup_collapsed>
1

$$$$
CHEMBL4581_lig813
                    3D
 Schrodinger Suite 2021-1.
 46 48  0  0  1  0            999 V2000
   14.6671   14.0017  106.8843 C   0  0  0  0  0  0
   14.8444   12.7620  106.1580 N   0  0  0  0  0  0
   16.0104   14.5124  107.4350 C   0  0  0  0  0  0
   16.4952   13.8159  108.7413 C   0  0  0  0  0  0
   17.5988   14.5712  109.5947 C   0  0  0  0  0  0
   17.1248   16.0211  109.9320 C   0  0  0  0  0  0
   17.8263   13.9009  110.9899 C   0  0  0  0  0  0
   18.8955   14.5337  108.7223 C   0  0  0  0  0  0
   18.0442   17.0783  110.0322 C   0  0  0  0  0  0
   17.6173   18.3625  110.3491 C   0  0  0  0  0  0
   16.2644   18.6111  110.5595 C   0  0  0  0  0  0
   15.3389   17.5785  110.4866 C   0  0  0  0  0  0
   15.7685   16.2919  110.1840 C   0  0  0  0  0  0
   19.9363   13.6222  108.9826 C   0  0  0  0  0  0
   21.0577   13.5619  108.1590 C   0  0  0  0  0  0
   21.1189   14.3701  107.0276 C   0  0  0  0  0  0
   20.1227   15.3013  106.7646 C   0  0  0  0  0  0
   19.0286   15.3892  107.6151 C   0  0  0  0  0  0
   17.1207   12.7613  111.4137 C   0  0  0  0  0  0
   17.3072   12.2483  112.6950 C   0  0  0  0  0  0
   18.2142   12.8458  113.5632 C   0  0  0  0  0  0
   18.9432   13.9571  113.1575 C   0  0  0  0  0  0
   18.7530   14.4744  111.8811 C   0  0  0  0  0  0
   13.9354   13.8735  107.6843 H   0  0  0  0  0  0
   14.2513   14.7327  106.1906 H   0  0  0  0  0  0
   15.2205   12.0426  106.7706 H   0  0  0  0  0  0
   13.9547   12.4114  105.8366 H   0  0  0  0  0  0
   15.8926   15.5818  107.6067 H   0  0  0  0  0  0
   16.7681   14.4287  106.6561 H   0  0  0  0  0  0
   16.8528   12.8168  108.4820 H   0  0  0  0  0  0
   15.6119   13.6379  109.3530 H   0  0  0  0  0  0
   19.1051   16.9191  109.8782 H   0  0  0  0  0  0
   18.3378   19.1618  110.4329 H   0  0  0  0  0  0
   15.9226   19.6082  110.8034 H   0  0  0  0  0  0
   14.2926   17.7750  110.6700 H   0  0  0  0  0  0
   15.0257   15.5118  110.1538 H   0  0  0  0  0  0
   19.8816   12.9328  109.8113 H   0  0  0  0  0  0
   21.8479   12.8556  108.3602 H   0  0  0  0  0  0
   21.9648   14.2947  106.3589 H   0  0  0  0  0  0
   20.1904   15.9438  105.8975 H   0  0  0  0  0  0
   18.2598   16.1122  107.3885 H   0  0  0  0  0  0
   16.4118   12.2528  110.7781 H   0  0  0  0  0  0
   16.7339   11.3911  113.0175 H   0  0  0  0  0  0
   18.3550   12.4415  114.5570 H   0  0  0  0  0  0
   19.6560   14.4149  113.8294 H   0  0  0  0  0  0
   19.3348   15.3374  111.5885 H   0  0  0  0  0  0
  1  2  1  0  0  0
  1  3  1  0  0  0
  1 24  1  0  0  0
  1 25  1  0  0  0
  2 26  1  0  0  0
  2 27  1  0  0  0
  3  4  1  0  0  0
  3 28  1  0  0  0
  3 29  1  0  0  0
  4  5  1  0  0  0
  4 30  1  0  0  0
  4 31  1  0  0  0
  5  7  1  0  0  0
  5  8  1  0  0  0
  5  6  1  0  0  0
  6 13  1  0  0  0
  6  9  2  0  0  0
  7 19  2  0  0  0
  7 23  1  0  0  0
  8 14  2  0  0  0
  8 18  1  0  0  0
  9 10  1  0  0  0
  9 32  1  0  0  0
 10 11  2  0  0  0
 10 33  1  0  0  0
 11 12  1  0  0  0
 11 34  1  0  0  0
 12 13  2  0  0  0
 12 35  1  0  0  0
 13 36  1  0  0  0
 14 15  1  0  0  0
 14 37  1  0  0  0
 15 16  2  0  0  0
 15 38  1  0  0  0
 16 17  1  0  0  0
 16 39  1  0  0  0
 17 18  2  0  0  0
 17 40  1  0  0  0
 18 41  1  0  0  0
 19 20  1  0  0  0
 19 42  1  0  0  0
 20 21  2  0  0  0
 20 43  1  0  0  0
 21 22  1  0  0  0
 21 44  1  0  0  0
 22 23  2  0  0  0
 22 45  1  0  0  0
 23 46  1  0  0  0
M  END
> <s_m_entry_id>
302

> <s_m_entry_name>
dock_pv.301

> <s_m_Source_Path>
/home/csk/Desktop/cluster/DUD-E-result/kif11

> <s_m_Source_File>
dock_pv.maegz

> <i_m_Source_File_Index>
301

> <chembl_id>
CHEMBL2022591

> <chembl_pref_name>
None

> <i_lp_mmshare_version>
53161

> <i_f3d_flags>
0

> <r_lp_tautomer_probability>
1

> <s_lp_Force_Field>
OPLS_2005

> <r_lp_Energy>
29.943664

> <b_lp_Chiralities_Consistent>
1

> <s_lp_Variant>
CHEMBL4581_lig813-1

> <s_i_glide_gridfile>
glide-grid_3cjo

> <i_i_glide_lignum>
1200

> <i_i_glide_rotatable_bonds>
6

> <r_i_docking_score>
-7.68168706512527

> <r_i_glide_ligand_efficiency>
-0.333986394135881

> <r_i_glide_ligand_efficiency_sa>
-0.949812877010012

> <r_i_glide_ligand_efficiency_ln>
-1.85750158603459

> <r_i_glide_gscore>
-7.68168706512527

> <r_i_glide_lipo>
-4.69742778564382

> <r_i_glide_hbond>
-0.32

> <r_i_glide_metal>
0

> <r_i_glide_rewards>
-1.35392236363636

> <r_i_glide_evdw>
-37.7887344360352

> <r_i_glide_ecoul>
-2.88868308067322

> <r_i_glide_erotb>
1.01240226805766

> <r_i_glide_esite>
0

> <r_i_glide_emodel>
-58.6013043530839

> <r_i_glide_energy>
-40.6774175167084

> <r_i_glide_einternal>
2.12697148323059

> <i_i_glide_confnum>
47

> <i_i_glide_posenum>
321

> <r_i_glide_eff_state_penalty>
0

> <s_user_duplicate_titles>
CHEMBL4581_lig813

> <s_m_subgroup_title>
dock_pv

> <s_m_subgroupid>
dock_pv

> <b_m_subgroup_collapsed>
1

$$$$
CHEMBL4581_lig860
                    3D
 Schrodinger Suite 2021-1.
 48 50  0  0  1  0            999 V2000
   17.6422   14.9390  109.0113 C   0  0  2  0  0  0
   18.9744   14.9881  108.2021 C   0  0  0  0  0  0
   17.1672   16.3040  109.5881 C   0  0  0  0  0  0
   19.9877   14.0279  108.3784 C   0  0  0  0  0  0
   21.1138   14.0137  107.5584 C   0  0  0  0  0  0
   21.2543   14.9779  106.5591 C   0  0  0  0  0  0
   20.2790   15.9619  106.3965 C   0  0  0  0  0  0
   19.1467   15.9600  107.2059 C   0  0  0  0  0  0
   18.0523   17.3714  109.7959 C   0  0  0  0  0  0
   17.6114   18.5575  110.3742 C   0  0  0  0  0  0
   16.2713   18.7220  110.7194 C   0  0  0  0  0  0
   15.3762   17.6784  110.5215 C   0  0  0  0  0  0
   15.8244   16.4773  109.9797 C   0  0  0  0  0  0
   17.7511   14.0067  110.2530 C   0  0  0  0  0  0
   18.5819   14.4051  111.3174 C   0  0  0  0  0  0
   18.6599   13.6630  112.4901 C   0  0  0  0  0  0
   17.9177   12.4953  112.6069 C   0  0  0  0  0  0
   17.1178   12.0647  111.5530 C   0  0  0  0  0  0
   17.0242   12.8158  110.3867 C   0  0  0  0  0  0
   16.3369   14.4191  107.7895 S   0  0  0  0  0  0
   17.0223   13.0764  106.7674 C   0  0  0  0  0  0
   16.2372   12.7573  105.4808 C   0  0  0  0  0  0
   14.8681   12.3621  105.7591 N   0  0  0  0  0  0
   14.0606   17.8359  110.8657 O   0  0  0  0  0  0
   22.4864   14.9750  105.6726 C   0  0  0  0  0  0
   19.8966   13.2475  109.1193 H   0  0  0  0  0  0
   21.8664   13.2513  107.6940 H   0  0  0  0  0  0
   20.3844   16.7163  105.6309 H   0  0  0  0  0  0
   18.3819   16.7035  107.0392 H   0  0  0  0  0  0
   19.0998   17.2845  109.5515 H   0  0  0  0  0  0
   18.3206   19.3487  110.5590 H   0  0  0  0  0  0
   15.9182   19.6445  111.1557 H   0  0  0  0  0  0
   15.1192   15.6677  109.8657 H   0  0  0  0  0  0
   19.1631   15.3115  111.2450 H   0  0  0  0  0  0
   19.2898   13.9927  113.3043 H   0  0  0  0  0  0
   17.9681   11.9223  113.5206 H   0  0  0  0  0  0
   16.5385   11.1621  111.6470 H   0  0  0  0  0  0
   16.3694   12.4564  109.6088 H   0  0  0  0  0  0
   18.0287   13.3470  106.4616 H   0  0  0  0  0  0
   17.1181   12.1839  107.3841 H   0  0  0  0  0  0
   16.2365   13.6182  104.8119 H   0  0  0  0  0  0
   16.7316   11.9430  104.9558 H   0  0  0  0  0  0
   14.4307   11.9933  104.9283 H   0  0  0  0  0  0
   14.9043   11.5961  106.4300 H   0  0  0  0  0  0
   13.4988   17.1256  110.5542 H   0  0  0  0  0  0
   22.7407   15.9863  105.3511 H   0  0  0  0  0  0
   23.3546   14.5866  106.2033 H   0  0  0  0  0  0
   22.3175   14.3627  104.7872 H   0  0  0  0  0  0
  1  2  1  0  0  0
  1  3  1  0  0  0
  1 14  1  0  0  0
  1 20  1  0  0  0
  2  4  2  0  0  0
  2  8  1  0  0  0
  3  9  2  0  0  0
  3 13  1  0  0  0
  4  5  1  0  0  0
  4 26  1  0  0  0
  5  6  2  0  0  0
  5 27  1  0  0  0
  6  7  1  0  0  0
  6 25  1  0  0  0
  7  8  2  0  0  0
  7 28  1  0  0  0
  8 29  1  0  0  0
  9 10  1  0  0  0
  9 30  1  0  0  0
 10 11  2  0  0  0
 10 31  1  0  0  0
 11 12  1  0  0  0
 11 32  1  0  0  0
 12 13  2  0  0  0
 12 24  1  0  0  0
 13 33  1  0  0  0
 14 15  2  0  0  0
 14 19  1  0  0  0
 15 16  1  0  0  0
 15 34  1  0  0  0
 16 17  2  0  0  0
 16 35  1  0  0  0
 17 18  1  0  0  0
 17 36  1  0  0  0
 18 19  2  0  0  0
 18 37  1  0  0  0
 19 38  1  0  0  0
 20 21  1  0  0  0
 21 22  1  0  0  0
 21 39  1  0  0  0
 21 40  1  0  0  0
 22 23  1  0  0  0
 22 41  1  0  0  0
 22 42  1  0  0  0
 23 43  1  0  0  0
 23 44  1  0  0  0
 24 45  1  0  0  0
 25 46  1  0  0  0
 25 47  1  0  0  0
 25 48  1  0  0  0
M  END
> <s_m_entry_id>
303

> <s_m_entry_name>
dock_pv.302

> <s_m_Source_Path>
/home/csk/Desktop/cluster/DUD-E-result/kif11

> <s_m_Source_File>
dock_pv.maegz

> <i_m_Source_File_Index>
302

> <chembl_id>
CHEMBL2321913

> <chembl_pref_name>
None

> <i_lp_mmshare_version>
53161

> <i_f3d_flags>
0

> <r_lp_tautomer_probability>
0.999999999997365

> <s_lp_Force_Field>
OPLS_2005

> <r_lp_Energy>
24.80109

> <b_lp_Chiralities_Consistent>
1

> <s_lp_Variant>
CHEMBL4581_lig860-2

> <s_i_glide_gridfile>
glide-grid_3cjo

> <i_i_glide_lignum>
1249

> <i_i_glide_rotatable_bonds>
7

> <r_i_docking_score>
-7.67522893931577

> <r_i_glide_ligand_efficiency>
-0.307009157572631

> <r_i_glide_ligand_efficiency_sa>
-0.897700221572966

> <r_i_glide_ligand_efficiency_ln>
-1.81925926666864

> <r_i_glide_gscore>
-7.67522893931577

> <r_i_glide_lipo>
-4.60812004963521

> <r_i_glide_hbond>
-0.32

> <r_i_glide_metal>
0

> <r_i_glide_rewards>
-1.06831903015562

> <r_i_glide_evdw>
-39.5610466003418

> <r_i_glide_ecoul>
-3.20355725288391

> <r_i_glide_erotb>
0.779796058424741

> <r_i_glide_esite>
0

> <r_i_glide_emodel>
-60.2978123184338

> <r_i_glide_energy>
-42.7646038532257

> <r_i_glide_einternal>
4.2565450668335

> <i_i_glide_confnum>
17

> <i_i_glide_posenum>
224

> <r_i_glide_eff_state_penalty>
0

> <s_user_duplicate_titles>
CHEMBL4581_lig860

> <s_m_subgroup_title>
dock_pv

> <s_m_subgroupid>
dock_pv

> <b_m_subgroup_collapsed>
1

$$$$
CHEMBL4581_lig661
                    3D
 Schrodinger Suite 2021-1.
 32 34  0  0  1  0            999 V2000
   22.1446   14.1779  106.1594 N   0  0  0  0  0  0
   22.6131   15.0728  105.2884 C   0  0  0  0  0  0
   21.9084   16.4553  105.3593 C   0  0  0  0  0  0
   20.4112   16.3606  105.8012 C   0  0  0  0  0  0
   20.2243   15.4013  106.9729 C   0  0  0  0  0  0
   19.2061   15.5098  107.9276 C   0  0  0  0  0  0
   19.1159   14.5921  108.9807 C   0  0  0  0  0  0
   20.0671   13.5695  109.0919 C   0  0  0  0  0  0
   21.0912   13.4630  108.1602 C   0  0  0  0  0  0
   21.1344   14.3460  107.0912 C   0  0  0  0  0  0
   23.5180   14.7622  104.5277 O   0  0  0  0  0  0
   18.0701   14.7052  109.9056 N   0  0  0  0  0  0
   18.0187   14.0695  111.1480 C   0  0  0  0  0  0
   18.8933   14.4736  112.1564 C   0  0  0  0  0  0
   18.8843   13.8149  113.3790 C   0  0  0  0  0  0
   17.9937   12.7660  113.5943 C   0  0  0  0  0  0
   17.1181   12.3620  112.5883 C   0  0  0  0  0  0
   17.1286   13.0169  111.3585 C   0  0  0  0  0  0
   22.6498   13.3064  106.1354 H   0  0  0  0  0  0
   21.9947   16.9326  104.3825 H   0  0  0  0  0  0
   22.4732   17.0597  106.0698 H   0  0  0  0  0  0
   20.0306   17.3511  106.0555 H   0  0  0  0  0  0
   19.8076   16.0126  104.9626 H   0  0  0  0  0  0
   18.4837   16.3086  107.8443 H   0  0  0  0  0  0
   20.0115   12.8476  109.8922 H   0  0  0  0  0  0
   21.8189   12.6707  108.2441 H   0  0  0  0  0  0
   17.4350   15.4776  109.7716 H   0  0  0  0  0  0
   19.5860   15.2846  111.9867 H   0  0  0  0  0  0
   19.5665   14.1165  114.1587 H   0  0  0  0  0  0
   17.9844   12.2642  114.5513 H   0  0  0  0  0  0
   16.4232   11.5550  112.7638 H   0  0  0  0  0  0
   16.4606   12.6983  110.5715 H   0  0  0  0  0  0
  1  2  1  0  0  0
  1 10  1  0  0  0
  1 19  1  0  0  0
  2  3  1  0  0  0
  2 11  2  0  0  0
  3  4  1  0  0  0
  3 20  1  0  0  0
  3 21  1  0  0  0
  4  5  1  0  0  0
  4 22  1  0  0  0
  4 23  1  0  0  0
  5  6  1  0  0  0
  5 10  2  0  0  0
  6  7  2  0  0  0
  6 24  1  0  0  0
  7  8  1  0  0  0
  7 12  1  0  0  0
  8  9  2  0  0  0
  8 25  1  0  0  0
  9 10  1  0  0  0
  9 26  1  0  0  0
 12 13  1  0  0  0
 12 27  1  0  0  0
 13 14  1  0  0  0
 13 18  2  0  0  0
 14 15  2  0  0  0
 14 28  1  0  0  0
 15 16  1  0  0  0
 15 29  1  0  0  0
 16 17  2  0  0  0
 16 30  1  0  0  0
 17 18  1  0  0  0
 17 31  1  0  0  0
 18 32  1  0  0  0
M  END
> <s_m_entry_id>
304

> <s_m_entry_name>
dock_pv.303

> <s_m_Source_Path>
/home/csk/Desktop/cluster/DUD-E-result/kif11

> <s_m_Source_File>
dock_pv.maegz

> <i_m_Source_File_Index>
303

> <chembl_id>
CHEMBL3288980

> <chembl_pref_name>
None

> <i_lp_mmshare_version>
53161

> <i_f3d_flags>
0

> <r_lp_tautomer_probability>
1

> <s_lp_Force_Field>
OPLS_2005

> <r_lp_Energy>
22.73879

> <b_lp_Chiralities_Consistent>
1

> <s_lp_Variant>
CHEMBL4581_lig661-1

> <s_i_glide_gridfile>
glide-grid_3cjo

> <i_i_glide_lignum>
999

> <i_i_glide_rotatable_bonds>
2

> <r_i_docking_score>
-7.67508231501404

> <r_i_glide_ligand_efficiency>
-0.426393461945225

> <r_i_glide_ligand_efficiency_sa>
-1.11746699486325

> <r_i_glide_ligand_efficiency_ln>
-1.97284033317283

> <r_i_glide_gscore>
-7.67508231501404

> <r_i_glide_lipo>
-4.09061447298074

> <r_i_glide_hbond>
0

> <r_i_glide_metal>
0

> <r_i_glide_rewards>
-2.31775746969697

> <r_i_glide_evdw>
-35.9958229064941

> <r_i_glide_ecoul>
-0.498665779829025

> <r_i_glide_erotb>
0.607880639962724

> <r_i_glide_esite>
0

> <r_i_glide_emodel>
-49.351286499159

> <r_i_glide_energy>
-36.4944886863232

> <r_i_glide_einternal>
7.10452747344971

> <i_i_glide_confnum>
22

> <i_i_glide_posenum>
316

> <r_i_glide_eff_state_penalty>
0

> <s_user_duplicate_titles>
CHEMBL4581_lig661

> <s_m_subgroup_title>
dock_pv

> <s_m_subgroupid>
dock_pv

> <b_m_subgroup_collapsed>
1

$$$$
CHEMBL4581_lig130
                    3D
 Schrodinger Suite 2021-1.
 49 51  0  0  1  0            999 V2000
   19.4232   14.8364  107.8472 C   0  0  0  0  0  0
   19.9310   13.8043  108.6637 C   0  0  0  0  0  0
   21.4596   13.1643  108.1589 S   0  0  0  0  0  0
   19.3962   13.2730  109.8121 N   0  0  0  0  0  0
   19.1181   14.0475  110.8793 C   0  0  0  0  0  0
   18.1604   15.5317  108.0774 C   0  0  0  0  0  0
   18.1628   16.7621  108.1512 O   0  0  0  0  0  0
   19.4488   15.2310  111.0013 O   0  0  0  0  0  0
   20.3793   15.2104  106.8722 C   0  0  0  0  0  0
   21.4789   14.3324  106.8725 C   0  0  0  0  0  0
   22.6200   14.4361  105.9004 C   0  0  0  0  0  0
   22.8586   15.9208  105.6626 C   0  0  0  0  0  0
   21.6234   16.6463  105.1165 C   0  0  0  0  0  0
   20.2986   16.4179  105.9077 C   0  0  1  0  0  0
   18.4695   13.3472  111.9353 C   0  0  0  0  0  0
   17.4926   12.3597  111.8632 C   0  0  0  0  0  0
   17.0518   11.9621  113.1274 C   0  0  0  0  0  0
   17.6577   12.6568  114.1592 C   0  0  0  0  0  0
   18.8128   13.7913  113.5673 S   0  0  0  0  0  0
   17.0334   14.7858  108.2906 N   0  0  0  0  0  0
   15.8036   15.4401  108.7727 C   0  0  0  0  0  0
   16.8405   13.3996  107.8129 C   0  0  0  0  0  0
   16.6735   13.2803  106.2897 C   0  0  0  0  0  0
   14.9393   16.0621  107.6637 C   0  0  0  0  0  0
   19.0537   16.4322  104.9926 C   0  0  0  0  0  0
   19.2971   12.2670  109.8762 H   0  0  0  0  0  0
   23.5240   13.9616  106.2700 H   0  0  0  0  0  0
   22.3801   13.9381  104.9635 H   0  0  0  0  0  0
   23.2080   16.4217  106.5589 H   0  0  0  0  0  0
   23.6682   15.9619  104.9591 H   0  0  0  0  0  0
   21.8323   17.7153  105.0783 H   0  0  0  0  0  0
   21.5174   16.3618  104.0748 H   0  0  0  0  0  0
   20.1952   17.2850  106.5575 H   0  0  0  0  0  0
   17.1115   11.9421  110.9411 H   0  0  0  0  0  0
   16.3122   11.1915  113.2878 H   0  0  0  0  0  0
   17.5027   12.5365  115.2217 H   0  0  0  0  0  0
   15.2068   14.7186  109.3323 H   0  0  0  0  0  0
   16.0633   16.2209  109.4900 H   0  0  0  0  0  0
   17.6641   12.7558  108.1085 H   0  0  0  0  0  0
   15.9626   12.9651  108.2932 H   0  0  0  0  0  0
   16.6132   12.2331  105.9932 H   0  0  0  0  0  0
   15.7632   13.7623  105.9380 H   0  0  0  0  0  0
   17.5163   13.7185  105.7590 H   0  0  0  0  0  0
   14.1046   16.6124  108.0976 H   0  0  0  0  0  0
   15.5126   16.7615  107.0538 H   0  0  0  0  0  0
   14.5099   15.3026  107.0124 H   0  0  0  0  0  0
   18.1575   16.7460  105.5259 H   0  0  0  0  0  0
   19.1768   17.1396  104.1724 H   0  0  0  0  0  0
   18.8439   15.4497  104.5718 H   0  0  0  0  0  0
  1  9  1  0  0  0
  1  2  2  0  0  0
  1  6  1  0  0  0
  2  3  1  0  0  0
  2  4  1  0  0  0
  3 10  1  0  0  0
  4  5  1  0  0  0
  4 26  1  0  0  0
  5  8  2  0  0  0
  5 15  1  0  0  0
  6  7  2  0  0  0
  6 20  1  0  0  0
  9 14  1  0  0  0
  9 10  2  0  0  0
 10 11  1  0  0  0
 11 12  1  0  0  0
 11 27  1  0  0  0
 11 28  1  0  0  0
 12 13  1  0  0  0
 12 29  1  0  0  0
 12 30  1  0  0  0
 13 14  1  0  0  0
 13 31  1  0  0  0
 13 32  1  0  0  0
 14 25  1  0  0  0
 14 33  1  0  0  0
 15 16  2  0  0  0
 15 19  1  0  0  0
 16 17  1  0  0  0
 16 34  1  0  0  0
 17 18  2  0  0  0
 17 35  1  0  0  0
 18 19  1  0  0  0
 18 36  1  0  0  0
 20 21  1  0  0  0
 20 22  1  0  0  0
 21 24  1  0  0  0
 21 37  1  0  0  0
 21 38  1  0  0  0
 22 23  1  0  0  0
 22 39  1  0  0  0
 22 40  1  0  0  0
 23 41  1  0  0  0
 23 42  1  0  0  0
 23 43  1  0  0  0
 24 44  1  0  0  0
 24 45  1  0  0  0
 24 46  1  0  0  0
 25 47  1  0  0  0
 25 48  1  0  0  0
 25 49  1  0  0  0
M  END
> <s_m_entry_id>
305

> <s_m_entry_name>
dock_pv.304

> <s_m_Source_Path>
/home/csk/Desktop/cluster/DUD-E-result/kif11

> <s_m_Source_File>
dock_pv.maegz

> <i_m_Source_File_Index>
304

> <chembl_id>
CHEMBL228801

> <chembl_pref_name>
None

> <i_lp_mmshare_version>
53161

> <i_f3d_flags>
0

> <r_lp_tautomer_probability>
1

> <s_lp_Force_Field>
OPLS_2005

> <r_lp_Energy>
37.53778

> <b_lp_Chiralities_Consistent>
1

> <s_lp_Variant>
CHEMBL4581_lig130-2

> <s_i_glide_gridfile>
glide-grid_3cjo

> <i_i_glide_lignum>
226

> <i_i_glide_rotatable_bonds>
7

> <r_i_docking_score>
-7.67165942997406

> <r_i_glide_ligand_efficiency>
-0.306866377198962

> <r_i_glide_ligand_efficiency_sa>
-0.897282729228139

> <r_i_glide_ligand_efficiency_ln>
-1.81841318598509

> <r_i_glide_gscore>
-7.67165942997406

> <r_i_glide_lipo>
-4.33077653605701

> <r_i_glide_hbond>
-0.32

> <r_i_glide_metal>
0

> <r_i_glide_rewards>
-1.4257251982488

> <r_i_glide_evdw>
-33.9349479675293

> <r_i_glide_ecoul>
-3.8740656375885

> <r_i_glide_erotb>
0.682699548346485

> <r_i_glide_esite>
0

> <r_i_glide_emodel>
-43.7150105395808

> <r_i_glide_energy>
-37.8090136051178

> <r_i_glide_einternal>
4.29795408248901

> <i_i_glide_confnum>
40

> <i_i_glide_posenum>
186

> <r_i_glide_eff_state_penalty>
0

> <s_user_duplicate_titles>
CHEMBL4581_lig130

> <s_m_subgroup_title>
dock_pv

> <s_m_subgroupid>
dock_pv

> <b_m_subgroup_collapsed>
1

$$$$
CHEMBL4581_lig41
                    3D
 Schrodinger Suite 2021-1.
 45 47  0  0  1  0            999 V2000
   18.6071   14.4135  109.5593 N   0  0  0  0  0  0
   19.7857   14.4854  108.9115 N   0  0  0  0  0  0
   19.6309   14.9469  107.7457 C   0  0  0  0  0  0
   17.5125   15.0110  108.7804 C   0  0  2  0  0  0
   18.1938   15.2773  107.4400 C   0  0  0  0  0  0
   18.5697   14.0707  110.8674 C   0  0  0  0  0  0
   20.7180   15.1237  106.7827 C   0  0  0  0  0  0
   16.9844   16.2724  109.4760 C   0  0  0  0  0  0
   21.7471   14.1671  106.6338 C   0  0  0  0  0  0
   15.6385   16.3758  109.8427 C   0  0  0  0  0  0
   19.5181   14.2651  111.6311 O   0  0  0  0  0  0
   15.1948   17.4796  110.5730 C   0  0  0  0  0  0
   21.9179   12.7618  107.6243 Cl  0  0  0  0  0  0
   17.1185   12.7615  114.5591 N   0  0  0  0  0  0
   13.8856   17.5653  110.9539 O   0  0  0  0  0  0
   17.8706   17.2998  109.8264 C   0  0  0  0  0  0
   20.7374   16.2766  105.9815 C   0  0  0  0  0  0
   17.2986   13.3963  111.4062 C   0  0  0  0  0  0
   17.4266   18.3931  110.5604 C   0  0  0  0  0  0
   22.7413   14.3616  105.6929 C   0  0  0  0  0  0
   16.0878   18.4869  110.9358 C   0  0  0  0  0  0
   18.1864   12.4264  113.6498 C   0  0  0  0  0  0
   17.5997   12.1424  112.2543 C   0  0  0  0  0  0
   21.7590   16.4724  105.0553 C   0  0  0  0  0  0
   22.7364   15.4948  104.9046 C   0  0  0  0  0  0
   16.6992   14.2932  108.6643 H   0  0  0  0  0  0
   17.8221   14.6070  106.6632 H   0  0  0  0  0  0
   18.0704   16.3105  107.1142 H   0  0  0  0  0  0
   14.9397   15.5931  109.5868 H   0  0  0  0  0  0
   16.4230   12.0305  114.5476 H   0  0  0  0  0  0
   17.4992   12.7619  115.4977 H   0  0  0  0  0  0
   13.6984   18.3812  111.4246 H   0  0  0  0  0  0
   18.9167   17.2349  109.5636 H   0  0  0  0  0  0
   19.9784   17.0400  106.0796 H   0  0  0  0  0  0
   16.7297   14.1305  111.9724 H   0  0  0  0  0  0
   16.6668   13.0846  110.5740 H   0  0  0  0  0  0
   18.1273   19.1618  110.8479 H   0  0  0  0  0  0
   23.5178   13.6222  105.5642 H   0  0  0  0  0  0
   15.7560   19.3406  111.5074 H   0  0  0  0  0  0
   18.7174   11.5622  114.0319 H   0  0  0  0  0  0
   18.9172   13.2315  113.6576 H   0  0  0  0  0  0
   16.6836   11.5596  112.3517 H   0  0  0  0  0  0
   18.2830   11.4946  111.7039 H   0  0  0  0  0  0
   21.7725   17.3559  104.4343 H   0  0  0  0  0  0
   23.5076   15.5620  104.1590 H   0  0  0  0  0  0
  1  2  1  0  0  0
  1  4  1  0  0  0
  1  6  1  0  0  0
  2  3  2  0  0  0
  3  7  1  0  0  0
  3  5  1  0  0  0
  4  5  1  0  0  0
  4  8  1  0  0  0
  4 26  1  0  0  0
  5 27  1  0  0  0
  5 28  1  0  0  0
  6 11  2  0  0  0
  6 18  1  0  0  0
  7  9  2  0  0  0
  7 17  1  0  0  0
  8 10  1  0  0  0
  8 16  2  0  0  0
  9 13  1  0  0  0
  9 20  1  0  0  0
 10 12  2  0  0  0
 10 29  1  0  0  0
 12 15  1  0  0  0
 12 21  1  0  0  0
 14 22  1  0  0  0
 14 30  1  0  0  0
 14 31  1  0  0  0
 15 32  1  0  0  0
 16 19  1  0  0  0
 16 33  1  0  0  0
 17 24  2  0  0  0
 17 34  1  0  0  0
 18 23  1  0  0  0
 18 35  1  0  0  0
 18 36  1  0  0  0
 19 21  2  0  0  0
 19 37  1  0  0  0
 20 25  2  0  0  0
 20 38  1  0  0  0
 21 39  1  0  0  0
 22 23  1  0  0  0
 22 40  1  0  0  0
 22 41  1  0  0  0
 23 42  1  0  0  0
 23 43  1  0  0  0
 24 25  1  0  0  0
 24 44  1  0  0  0
 25 45  1  0  0  0
M  END
> <s_m_entry_id>
306

> <s_m_entry_name>
dock_pv.305

> <s_m_Source_Path>
/home/csk/Desktop/cluster/DUD-E-result/kif11

> <s_m_Source_File>
dock_pv.maegz

> <i_m_Source_File_Index>
305

> <chembl_id>
CHEMBL370246

> <chembl_pref_name>
None

> <i_lp_mmshare_version>
53161

> <i_f3d_flags>
0

> <r_lp_tautomer_probability>
0.999999999997365

> <s_lp_Force_Field>
OPLS_2005

> <r_lp_Energy>
27.956751

> <b_lp_Chiralities_Consistent>
1

> <s_lp_Variant>
CHEMBL4581_lig41-1

> <s_i_glide_gridfile>
glide-grid_3cjo

> <i_i_glide_lignum>
66

> <i_i_glide_rotatable_bonds>
7

> <r_i_docking_score>
-7.66626998131694

> <r_i_glide_ligand_efficiency>
-0.306650799252678

> <r_i_glide_ligand_efficiency_sa>
-0.896652375489912

> <r_i_glide_ligand_efficiency_ln>
-1.81713572514461

> <r_i_glide_gscore>
-7.66626998131694

> <r_i_glide_lipo>
-4.01315059854253

> <r_i_glide_hbond>
-0.207330373603572

> <r_i_glide_metal>
0

> <r_i_glide_rewards>
-1.8231555036352

> <r_i_glide_evdw>
-40.5229301452637

> <r_i_glide_ecoul>
-2.29480624198914

> <r_i_glide_erotb>
0.747733938025903

> <r_i_glide_esite>
0

> <r_i_glide_emodel>
-60.4301104962988

> <r_i_glide_energy>
-42.8177363872528

> <r_i_glide_einternal>
4.80440044403076

> <i_i_glide_confnum>
44

> <i_i_glide_posenum>
79

> <r_i_glide_eff_state_penalty>
0

> <s_user_duplicate_titles>
CHEMBL4581_lig41

> <s_m_subgroup_title>
dock_pv

> <s_m_subgroupid>
dock_pv

> <b_m_subgroup_collapsed>
1

$$$$
CHEMBL4581_lig602
                    3D
 Schrodinger Suite 2021-1.
 50 52  0  0  1  0            999 V2000
   19.2566   15.0831  107.8567 C   0  0  0  0  0  0
   18.3052   14.5930  108.9980 C   0  0  1  0  0  0
   17.5960   15.7732  109.7355 C   0  0  0  0  0  0
   16.2067   15.8239  109.9490 C   0  0  0  0  0  0
   15.6168   16.9332  110.5489 C   0  0  0  0  0  0
   16.4100   17.9991  110.9590 C   0  0  0  0  0  0
   17.7910   17.9488  110.8102 C   0  0  0  0  0  0
   18.3753   16.8345  110.2201 C   0  0  0  0  0  0
   17.1176   13.4072  108.2320 S   0  0  0  0  0  0
   16.1821   14.3629  106.9972 C   0  0  0  0  0  0
   16.6609   13.9801  105.5792 C   0  0  2  0  0  0
   19.1513   13.8021  110.0496 C   0  0  0  0  0  0
   18.5239   13.4112  111.3811 C   0  0  0  0  0  0
   19.1092   13.8733  112.5624 C   0  0  0  0  0  0
   18.7178   13.3239  113.7761 C   0  0  0  0  0  0
   17.6887   12.3973  113.8290 C   0  0  0  0  0  0
   17.0866   11.9620  112.6602 C   0  0  0  0  0  0
   17.5081   12.4534  111.4333 C   0  0  0  0  0  0
   17.1157   15.1615  104.8139 N   0  0  0  0  0  0
   15.6078   13.1802  104.7608 C   0  0  0  0  0  0
   15.2834   11.9935  105.3590 O   0  0  0  0  0  0
   15.1520   13.5590  103.6800 O   0  0  0  0  0  0
   20.4129   14.3620  107.5068 C   0  0  0  0  0  0
   21.3131   14.8327  106.5590 C   0  0  0  0  0  0
   19.9203   16.7620  106.2290 C   0  0  0  0  0  0
   19.0149   16.2833  107.1733 C   0  0  0  0  0  0
   21.0880   16.0636  105.9669 C   0  0  0  0  0  0
   22.2913   16.7620  104.9590 Cl  0  0  0  0  0  0
   15.5571   15.0195  109.6444 H   0  0  0  0  0  0
   14.5463   16.9710  110.6879 H   0  0  0  0  0  0
   15.9533   18.8647  111.4168 H   0  0  0  0  0  0
   18.4073   18.7645  111.1589 H   0  0  0  0  0  0
   19.4484   16.8065  110.1298 H   0  0  0  0  0  0
   15.1203   14.1609  107.1466 H   0  0  0  0  0  0
   16.2984   15.4290  107.1871 H   0  0  0  0  0  0
   17.5141   13.3103  105.6908 H   0  0  0  0  0  0
   19.4955   12.8579  109.6261 H   0  0  0  0  0  0
   20.0606   14.3633  110.2588 H   0  0  0  0  0  0
   19.9257   14.5799  112.5374 H   0  0  0  0  0  0
   19.2354   13.5620  114.6862 H   0  0  0  0  0  0
   17.3873   11.9788  114.7787 H   0  0  0  0  0  0
   16.3180   11.2073  112.7092 H   0  0  0  0  0  0
   17.0774   12.0352  110.5373 H   0  0  0  0  0  0
   17.9287   15.5489  105.2733 H   0  0  0  0  0  0
   17.4377   14.8303  103.9156 H   0  0  0  0  0  0
   15.6981   11.8190  106.2122 H   0  0  0  0  0  0
   20.6596   13.4234  107.9734 H   0  0  0  0  0  0
   22.2104   14.2736  106.3358 H   0  0  0  0  0  0
   19.7607   17.7136  105.7491 H   0  0  0  0  0  0
   18.1384   16.8723  107.3965 H   0  0  0  0  0  0
  1 23  2  0  0  0
  1  2  1  0  0  0
  1 26  1  0  0  0
  2  9  1  0  0  0
  2  3  1  0  0  0
  2 12  1  0  0  0
  3  4  2  0  0  0
  3  8  1  0  0  0
  4  5  1  0  0  0
  4 29  1  0  0  0
  5  6  2  0  0  0
  5 30  1  0  0  0
  6  7  1  0  0  0
  6 31  1  0  0  0
  7  8  2  0  0  0
  7 32  1  0  0  0
  8 33  1  0  0  0
  9 10  1  0  0  0
 10 11  1  0  0  0
 10 34  1  0  0  0
 10 35  1  0  0  0
 11 19  1  0  0  0
 11 20  1  0  0  0
 11 36  1  0  0  0
 12 13  1  0  0  0
 12 37  1  0  0  0
 12 38  1  0  0  0
 13 14  2  0  0  0
 13 18  1  0  0  0
 14 15  1  0  0  0
 14 39  1  0  0  0
 15 16  2  0  0  0
 15 40  1  0  0  0
 16 17  1  0  0  0
 16 41  1  0  0  0
 17 18  2  0  0  0
 17 42  1  0  0  0
 18 43  1  0  0  0
 19 44  1  0  0  0
 19 45  1  0  0  0
 20 21  1  0  0  0
 20 22  2  0  0  0
 21 46  1  0  0  0
 23 24  1  0  0  0
 23 47  1  0  0  0
 24 27  2  0  0  0
 24 48  1  0  0  0
 25 27  1  0  0  0
 25 26  2  0  0  0
 25 49  1  0  0  0
 26 50  1  0  0  0
 27 28  1  0  0  0
M  END
> <s_m_entry_id>
307

> <s_m_entry_name>
dock_pv.306

> <s_m_Source_Path>
/home/csk/Desktop/cluster/DUD-E-result/kif11

> <s_m_Source_File>
dock_pv.maegz

> <i_m_Source_File_Index>
306

> <chembl_id>
CHEMBL2043400

> <chembl_pref_name>
None

> <i_lp_mmshare_version>
53161

> <i_f3d_flags>
0

> <r_lp_tautomer_probability>
1

> <s_lp_Force_Field>
OPLS_2005

> <r_lp_Energy>
19.696763

> <b_lp_Chiralities_Consistent>
1

> <s_lp_Variant>
CHEMBL4581_lig602-1

> <s_i_glide_gridfile>
glide-grid_3cjo

> <i_i_glide_lignum>
928

> <i_i_glide_rotatable_bonds>
9

> <r_i_docking_score>
-7.6655697829091

> <r_i_glide_ligand_efficiency>
-0.273770349389611

> <r_i_glide_ligand_efficiency_sa>
-0.831328022859654

> <r_i_glide_ligand_efficiency_ln>
-1.76943857680419

> <r_i_glide_gscore>
-7.6655697829091

> <r_i_glide_lipo>
-5.00814692566943

> <r_i_glide_hbond>
0

> <r_i_glide_metal>
0

> <r_i_glide_rewards>
-0.683708469696969

> <r_i_glide_evdw>
-42.4572715759277

> <r_i_glide_ecoul>
-5.07345199584961

> <r_i_glide_erotb>
0.929380525067386

> <r_i_glide_esite>
-0.0192135344362612

> <r_i_glide_emodel>
-63.7977526530545

> <r_i_glide_energy>
-47.5307235717773

> <r_i_glide_einternal>
8.20801830291748

> <i_i_glide_confnum>
147

> <i_i_glide_posenum>
226

> <r_i_glide_eff_state_penalty>
0

> <s_user_duplicate_titles>
CHEMBL4581_lig602

> <s_m_subgroup_title>
dock_pv

> <s_m_subgroupid>
dock_pv

> <b_m_subgroup_collapsed>
1

$$$$
CHEMBL4581_lig660
                    3D
 Schrodinger Suite 2021-1.
 35 37  0  0  1  0            999 V2000
   22.1187   14.1986  106.1590 N   0  0  0  0  0  0
   22.6147   15.0825  105.2860 C   0  0  0  0  0  0
   21.9425   16.4809  105.3394 C   0  0  0  0  0  0
   20.4463   16.4222  105.7735 C   0  0  0  0  0  0
   20.2576   15.5048  106.9702 C   0  0  0  0  0  0
   19.3052   15.7233  107.9661 C   0  0  0  0  0  0
   19.2652   14.9012  109.0911 C   0  0  0  0  0  0
   20.1491   13.8161  109.1917 C   0  0  0  0  0  0
   21.0706   13.5620  108.1893 C   0  0  0  0  0  0
   21.1180   14.4058  107.0897 C   0  0  0  0  0  0
   23.5180   14.7620  104.5297 O   0  0  0  0  0  0
   18.3484   15.1847  110.1088 N   0  0  0  0  0  0
   18.3951   14.5472  111.3491 C   0  0  0  0  0  0
   17.6645   13.3794  111.6242 C   0  0  0  0  0  0
   17.8360   12.7538  112.8691 C   0  0  0  0  0  0
   18.7599   13.2379  113.7848 C   0  0  0  0  0  0
   19.5180   14.3620  113.4736 C   0  0  0  0  0  0
   19.3188   15.0289  112.2732 C   0  0  0  0  0  0
   16.7948   12.6978  110.5687 C   0  0  0  0  0  0
   17.2833   12.7620  109.3319 F   0  0  0  0  0  0
   16.7180   11.4092  110.8806 F   0  0  0  0  0  0
   15.5805   13.2407  110.5590 F   0  0  0  0  0  0
   22.6051   13.3156  106.1459 H   0  0  0  0  0  0
   22.5191   17.0808  106.0440 H   0  0  0  0  0  0
   22.0416   16.9455  104.3578 H   0  0  0  0  0  0
   19.8298   16.0483  104.9590 H   0  0  0  0  0  0
   20.0795   17.4262  105.9931 H   0  0  0  0  0  0
   18.6378   16.5697  107.8910 H   0  0  0  0  0  0
   20.1342   13.1620  110.0495 H   0  0  0  0  0  0
   21.7604   12.7380  108.2826 H   0  0  0  0  0  0
   17.4273   15.4216  109.7705 H   0  0  0  0  0  0
   17.2819   11.8611  113.1238 H   0  0  0  0  0  0
   18.9031   12.7312  114.7291 H   0  0  0  0  0  0
   20.2605   14.7351  114.1604 H   0  0  0  0  0  0
   19.9125   15.9020  112.0420 H   0  0  0  0  0  0
  1  2  1  0  0  0
  1 10  1  0  0  0
  1 23  1  0  0  0
  2  3  1  0  0  0
  2 11  2  0  0  0
  3  4  1  0  0  0
  3 24  1  0  0  0
  3 25  1  0  0  0
  4  5  1  0  0  0
  4 26  1  0  0  0
  4 27  1  0  0  0
  5  6  1  0  0  0
  5 10  2  0  0  0
  6  7  2  0  0  0
  6 28  1  0  0  0
  7  8  1  0  0  0
  7 12  1  0  0  0
  8  9  2  0  0  0
  8 29  1  0  0  0
  9 10  1  0  0  0
  9 30  1  0  0  0
 12 13  1  0  0  0
 12 31  1  0  0  0
 13 14  1  0  0  0
 13 18  2  0  0  0
 14 15  2  0  0  0
 14 19  1  0  0  0
 15 16  1  0  0  0
 15 32  1  0  0  0
 16 17  2  0  0  0
 16 33  1  0  0  0
 17 18  1  0  0  0
 17 34  1  0  0  0
 18 35  1  0  0  0
 19 20  1  0  0  0
 19 21  1  0  0  0
 19 22  1  0  0  0
M  END
> <s_m_entry_id>
308

> <s_m_entry_name>
dock_pv.307

> <s_m_Source_Path>
/home/csk/Desktop/cluster/DUD-E-result/kif11

> <s_m_Source_File>
dock_pv.maegz

> <i_m_Source_File_Index>
307

> <chembl_id>
CHEMBL3288979

> <chembl_pref_name>
None

> <i_lp_mmshare_version>
53161

> <i_f3d_flags>
0

> <r_lp_tautomer_probability>
1

> <s_lp_Force_Field>
OPLS_2005

> <r_lp_Energy>
27.359822

> <b_lp_Chiralities_Consistent>
1

> <s_lp_Variant>
CHEMBL4581_lig660-1

> <s_i_glide_gridfile>
glide-grid_3cjo

> <i_i_glide_lignum>
998

> <i_i_glide_rotatable_bonds>
3

> <r_i_docking_score>
-7.66294395016493

> <r_i_glide_ligand_efficiency>
-0.348315634098406

> <r_i_glide_ligand_efficiency_sa>
-0.975994105220291

> <r_i_glide_ligand_efficiency_ln>
-1.87310301409228

> <r_i_glide_gscore>
-7.66294395016493

> <r_i_glide_lipo>
-4.032597084764

> <r_i_glide_hbond>
0

> <r_i_glide_metal>
0

> <r_i_glide_rewards>
-2.16201870517868

> <r_i_glide_evdw>
-37.6988182067871

> <r_i_glide_ecoul>
0.15226486325264

> <r_i_glide_erotb>
0.393773020629209

> <r_i_glide_esite>
0

> <r_i_glide_emodel>
-48.1602603192813

> <r_i_glide_energy>
-37.5465533435345

> <r_i_glide_einternal>
10.2868242263794

> <i_i_glide_confnum>
16

> <i_i_glide_posenum>
351

> <r_i_glide_eff_state_penalty>
0

> <s_user_duplicate_titles>
CHEMBL4581_lig660

> <s_m_subgroup_title>
dock_pv

> <s_m_subgroupid>
dock_pv

> <b_m_subgroup_collapsed>
1

$$$$
CHEMBL4581_lig855
                    3D
 Schrodinger Suite 2021-1.
 48 50  0  0  1  0            999 V2000
   17.9263   18.2104  110.7188 C   0  0  0  0  0  0
   16.5945   18.7605  110.9111 N   0  0  0  0  0  0
   18.1362   17.7460  109.2631 C   0  0  0  0  0  0
   16.8374   16.6609  108.5758 S   0  0  0  0  0  0
   17.4629   14.9196  108.3871 C   0  0  0  0  0  0
   17.5281   14.2522  109.7961 C   0  0  0  0  0  0
   16.3877   14.2391  107.4718 C   0  0  0  0  0  0
   18.8768   14.9182  107.7234 C   0  0  0  0  0  0
   16.8406   13.0656  110.0948 C   0  0  0  0  0  0
   16.9136   12.4994  111.3597 C   0  0  0  0  0  0
   17.6688   13.1079  112.3663 C   0  0  0  0  0  0
   18.4155   14.2494  112.0648 C   0  0  0  0  0  0
   18.3541   14.7968  110.7909 C   0  0  0  0  0  0
   19.8875   14.0384  108.1571 C   0  0  0  0  0  0
   21.1182   13.9913  107.5106 C   0  0  0  0  0  0
   21.3742   14.8599  106.4545 C   0  0  0  0  0  0
   20.4090   15.7717  106.0387 C   0  0  0  0  0  0
   19.1645   15.7883  106.6593 C   0  0  0  0  0  0
   15.0284   14.2618  107.8433 C   0  0  0  0  0  0
   14.0518   13.6639  107.0511 C   0  0  0  0  0  0
   14.4165   13.0335  105.8662 C   0  0  0  0  0  0
   15.7496   13.0005  105.4717 C   0  0  0  0  0  0
   16.7209   13.6004  106.2665 C   0  0  0  0  0  0
   17.6194   12.5535  113.7620 C   0  0  0  0  0  0
   18.6875   12.7329  114.5417 N   0  0  0  0  0  0
   16.6236   11.9620  114.1604 O   0  0  0  0  0  0
   18.0507   17.3854  111.4156 H   0  0  0  0  0  0
   18.6728   18.9614  110.9832 H   0  0  0  0  0  0
   15.9030   18.0790  110.6305 H   0  0  0  0  0  0
   16.4296   18.9529  111.8932 H   0  0  0  0  0  0
   19.1163   17.2830  109.1520 H   0  0  0  0  0  0
   18.1752   18.6260  108.6213 H   0  0  0  0  0  0
   16.2483   12.5445  109.3575 H   0  0  0  0  0  0
   16.3445   11.6007  111.5594 H   0  0  0  0  0  0
   19.0286   14.7376  112.8080 H   0  0  0  0  0  0
   18.9803   15.6438  110.5751 H   0  0  0  0  0  0
   19.7184   13.3314  108.9555 H   0  0  0  0  0  0
   21.8734   13.2856  107.8265 H   0  0  0  0  0  0
   22.3319   14.8256  105.9565 H   0  0  0  0  0  0
   20.6135   16.4450  105.2201 H   0  0  0  0  0  0
   18.4134   16.4712  106.2920 H   0  0  0  0  0  0
   14.7285   14.7412  108.7628 H   0  0  0  0  0  0
   13.0166   13.6844  107.3579 H   0  0  0  0  0  0
   13.6627   12.5598  105.2551 H   0  0  0  0  0  0
   16.0396   12.5031  104.5574 H   0  0  0  0  0  0
   17.7426   13.5437  105.9296 H   0  0  0  0  0  0
   18.6859   12.3734  115.4962 H   0  0  0  0  0  0
   19.5176   13.1658  114.1717 H   0  0  0  0  0  0
  1  3  1  0  0  0
  1  2  1  0  0  0
  1 27  1  0  0  0
  1 28  1  0  0  0
  2 29  1  0  0  0
  2 30  1  0  0  0
  3  4  1  0  0  0
  3 31  1  0  0  0
  3 32  1  0  0  0
  4  5  1  0  0  0
  5  7  1  0  0  0
  5  8  1  0  0  0
  5  6  1  0  0  0
  6 13  1  0  0  0
  6  9  2  0  0  0
  7 19  2  0  0  0
  7 23  1  0  0  0
  8 14  2  0  0  0
  8 18  1  0  0  0
  9 10  1  0  0  0
  9 33  1  0  0  0
 10 11  2  0  0  0
 10 34  1  0  0  0
 11 12  1  0  0  0
 11 24  1  0  0  0
 12 13  2  0  0  0
 12 35  1  0  0  0
 13 36  1  0  0  0
 14 15  1  0  0  0
 14 37  1  0  0  0
 15 16  2  0  0  0
 15 38  1  0  0  0
 16 17  1  0  0  0
 16 39  1  0  0  0
 17 18  2  0  0  0
 17 40  1  0  0  0
 18 41  1  0  0  0
 19 20  1  0  0  0
 19 42  1  0  0  0
 20 21  2  0  0  0
 20 43  1  0  0  0
 21 22  1  0  0  0
 21 44  1  0  0  0
 22 23  2  0  0  0
 22 45  1  0  0  0
 23 46  1  0  0  0
 24 25  1  0  0  0
 24 26  2  0  0  0
 25 47  1  0  0  0
 25 48  1  0  0  0
M  END
> <s_m_entry_id>
309

> <s_m_entry_name>
dock_pv.308

> <s_m_Source_Path>
/home/csk/Desktop/cluster/DUD-E-result/kif11

> <s_m_Source_File>
dock_pv.maegz

> <i_m_Source_File_Index>
308

> <chembl_id>
CHEMBL2024133

> <chembl_pref_name>
None

> <i_lp_mmshare_version>
53161

> <i_f3d_flags>
0

> <r_lp_tautomer_probability>
1

> <s_lp_Force_Field>
OPLS_2005

> <r_lp_Energy>
25.372386

> <b_lp_Chiralities_Consistent>
1

> <s_lp_Variant>
CHEMBL4581_lig855-1

> <s_i_glide_gridfile>
glide-grid_3cjo

> <i_i_glide_lignum>
1242

> <i_i_glide_rotatable_bonds>
7

> <r_i_docking_score>
-7.66178894519115

> <r_i_glide_ligand_efficiency>
-0.29468419019966

> <r_i_glide_ligand_efficiency_sa>
-0.873000753940194

> <r_i_glide_ligand_efficiency_ln>
-1.79934599339807

> <r_i_glide_gscore>
-7.66178894519115

> <r_i_glide_lipo>
-3.84893518822937

> <r_i_glide_hbond>
-0.513037499117381

> <r_i_glide_metal>
0

> <r_i_glide_rewards>
-1.38757581818182

> <r_i_glide_evdw>
-39.8670387268066

> <r_i_glide_ecoul>
-4.33060121536255

> <r_i_glide_erotb>
0.730701678982134

> <r_i_glide_esite>
0

> <r_i_glide_emodel>
-61.6567487141894

> <r_i_glide_energy>
-44.1976399421692

> <r_i_glide_einternal>
4.92892694473267

> <i_i_glide_confnum>
90

> <i_i_glide_posenum>
320

> <r_i_glide_eff_state_penalty>
0

> <s_user_duplicate_titles>
CHEMBL4581_lig855

> <s_m_subgroup_title>
dock_pv

> <s_m_subgroupid>
dock_pv

> <b_m_subgroup_collapsed>
1

$$$$
CHEMBL4581_lig182
                    3D
 Schrodinger Suite 2021-1.
 25 26  0  0  1  0            999 V2000
   17.6881   12.7202  113.1953 C   0  0  0  0  0  0
   17.1183   12.3358  111.9838 C   0  0  0  0  0  0
   17.5541   12.9162  110.7969 C   0  0  0  0  0  0
   18.5638   13.8817  110.8234 C   0  0  0  0  0  0
   19.1179   14.2757  112.0434 C   0  0  0  0  0  0
   18.6894   13.6856  113.2266 C   0  0  0  0  0  0
   19.0942   14.4465  109.5688 C   0  0  0  0  0  0
   18.5648   15.6209  109.0307 C   0  0  0  0  0  0
   19.1177   16.1724  107.8780 C   0  0  0  0  0  0
   20.2142   15.5587  107.2636 C   0  0  0  0  0  0
   20.7173   14.3623  107.7846 C   0  0  0  0  0  0
   20.1612   13.8126  108.9343 C   0  0  0  0  0  0
   20.8705   16.2030  106.0445 C   0  0  0  0  0  0
   21.7040   17.1615  106.4368 F   0  0  0  0  0  0
   19.9597   16.7450  105.2338 F   0  0  0  0  0  0
   21.5852   15.3129  105.3589 F   0  0  0  0  0  0
   17.3542   12.2612  114.1149 H   0  0  0  0  0  0
   16.3451   11.5813  111.9646 H   0  0  0  0  0  0
   17.1303   12.5942  109.8554 H   0  0  0  0  0  0
   19.9065   15.0142  112.0708 H   0  0  0  0  0  0
   19.1485   13.9633  114.1589 H   0  0  0  0  0  0
   17.7380   16.1182  109.5166 H   0  0  0  0  0  0
   18.7222   17.0995  107.4906 H   0  0  0  0  0  0
   21.5548   13.8644  107.3169 H   0  0  0  0  0  0
   20.5670   12.8974  109.3398 H   0  0  0  0  0  0
  1  6  1  0  0  0
  1  2  2  0  0  0
  1 17  1  0  0  0
  2  3  1  0  0  0
  2 18  1  0  0  0
  3  4  2  0  0  0
  3 19  1  0  0  0
  4  5  1  0  0  0
  4  7  1  0  0  0
  5  6  2  0  0  0
  5 20  1  0  0  0
  6 21  1  0  0  0
  7 12  1  0  0  0
  7  8  2  0  0  0
  8  9  1  0  0  0
  8 22  1  0  0  0
  9 10  2  0  0  0
  9 23  1  0  0  0
 10 11  1  0  0  0
 10 13  1  0  0  0
 11 12  2  0  0  0
 11 24  1  0  0  0
 12 25  1  0  0  0
 13 14  1  0  0  0
 13 15  1  0  0  0
 13 16  1  0  0  0
M  END
> <s_m_entry_id>
310

> <s_m_entry_name>
dock_pv.309

> <s_m_Source_Path>
/home/csk/Desktop/cluster/DUD-E-result/kif11

> <s_m_Source_File>
dock_pv.maegz

> <i_m_Source_File_Index>
309

> <chembl_id>
CHEMBL242993

> <chembl_pref_name>
None

> <i_lp_mmshare_version>
53161

> <i_f3d_flags>
0

> <r_lp_tautomer_probability>
1

> <s_lp_Force_Field>
OPLS_2005

> <r_lp_Energy>
13.905306

> <b_lp_Chiralities_Consistent>
1

> <s_lp_Variant>
CHEMBL4581_lig182-1

> <s_i_glide_gridfile>
glide-grid_3cjo

> <i_i_glide_lignum>
278

> <i_i_glide_rotatable_bonds>
2

> <r_i_docking_score>
-7.65050023640879

> <r_i_glide_ligand_efficiency>
-0.47815626477555

> <r_i_glide_ligand_efficiency_sa>
-1.2048782851461

> <r_i_glide_ligand_efficiency_ln>
-2.02791790987137

> <r_i_glide_gscore>
-7.65050023640879

> <r_i_glide_lipo>
-3.54638865447447

> <r_i_glide_hbond>
0

> <r_i_glide_metal>
0

> <r_i_glide_rewards>
-2.96954421293333

> <r_i_glide_evdw>
-27.820894241333

> <r_i_glide_ecoul>
-0.57147091627121

> <r_i_glide_erotb>
0.342197980506344

> <r_i_glide_esite>
0

> <r_i_glide_emodel>
-39.4089118816136

> <r_i_glide_energy>
-28.3923651576042

> <r_i_glide_einternal>
3.58464908599854

> <i_i_glide_confnum>
4

> <i_i_glide_posenum>
238

> <r_i_glide_eff_state_penalty>
0

> <s_user_duplicate_titles>
CHEMBL4581_lig182

> <s_m_subgroup_title>
dock_pv

> <s_m_subgroupid>
dock_pv

> <b_m_subgroup_collapsed>
1

$$$$
CHEMBL4581_lig590
                    3D
 Schrodinger Suite 2021-1.
 50 52  0  0  1  0            999 V2000
   14.5540   13.3465  105.7552 C   0  0  0  0  0  0
   16.0598   13.1352  105.4629 C   0  0  2  0  0  0
   16.9691   14.0380  106.3181 C   0  0  0  0  0  0
   13.9114   14.3028  105.3225 O   0  0  0  0  0  0
   14.0498   12.3621  106.5590 O   0  0  0  0  0  0
   16.9894   13.5618  108.0776 S   0  0  0  0  0  0
   18.0628   14.8164  108.9170 C   0  0  2  0  0  0
   17.4524   16.2603  108.8001 C   0  0  0  0  0  0
   16.0455   16.5137  109.3409 C   0  0  0  0  0  0
   14.9298   16.1987  108.5550 C   0  0  0  0  0  0
   13.6535   16.5652  108.9673 C   0  0  0  0  0  0
   13.4944   17.2606  110.1604 C   0  0  0  0  0  0
   14.5965   17.5621  110.9595 C   0  0  0  0  0  0
   15.8733   17.1812  110.5575 C   0  0  0  0  0  0
   19.4366   14.7289  108.1712 C   0  0  0  0  0  0
   19.7354   15.5463  107.0613 C   0  0  0  0  0  0
   20.8595   15.3195  106.2765 C   0  0  0  0  0  0
   21.7313   14.2918  106.6048 C   0  0  0  0  0  0
   21.5180   13.5383  107.7594 C   0  0  0  0  0  0
   20.3814   13.7545  108.5431 C   0  0  0  0  0  0
   23.1180   13.9964  105.6229 Cl  0  0  0  0  0  0
   18.2206   14.4705  110.4339 C   0  0  0  0  0  0
   17.4420   13.5007  111.0988 C   0  0  0  0  0  0
   17.6913   13.1588  112.4303 C   0  0  0  0  0  0
   18.7162   13.7844  113.1316 C   0  0  0  0  0  0
   19.4794   14.7623  112.5047 C   0  0  0  0  0  0
   19.2165   15.1171  111.1817 C   0  0  0  0  0  0
   16.7324   11.9614  113.2202 Cl  0  0  0  0  0  0
   16.3180   13.3861  104.0326 N   0  0  0  0  0  0
   16.3103   12.0949  105.6834 H   0  0  0  0  0  0
   16.6858   15.0837  106.2037 H   0  0  0  0  0  0
   17.9851   13.9615  105.9405 H   0  0  0  0  0  0
   14.7045   11.7169  106.8634 H   0  0  0  0  0  0
   18.1352   16.9907  109.2379 H   0  0  0  0  0  0
   17.3682   16.5701  107.7632 H   0  0  0  0  0  0
   15.0411   15.7025  107.6045 H   0  0  0  0  0  0
   12.7964   16.3291  108.3526 H   0  0  0  0  0  0
   12.5064   17.5645  110.4744 H   0  0  0  0  0  0
   14.4612   18.1037  111.8852 H   0  0  0  0  0  0
   16.7285   17.4440  111.1634 H   0  0  0  0  0  0
   19.0791   16.3257  106.7181 H   0  0  0  0  0  0
   21.0417   15.9250  105.4005 H   0  0  0  0  0  0
   22.2156   12.7620  108.0280 H   0  0  0  0  0  0
   20.2053   13.1049  109.3874 H   0  0  0  0  0  0
   16.6427   12.9757  110.5976 H   0  0  0  0  0  0
   18.9188   13.5098  114.1567 H   0  0  0  0  0  0
   20.2802   15.2474  113.0445 H   0  0  0  0  0  0
   19.8348   15.8725  110.7185 H   0  0  0  0  0  0
   17.3073   13.1627  103.8700 H   0  0  0  0  0  0
   15.7844   12.7569  103.4527 H   0  0  0  0  0  0
  1  2  1  0  0  0
  1  4  2  0  0  0
  1  5  1  0  0  0
  2  3  1  0  0  0
  2 29  1  0  0  0
  2 30  1  0  0  0
  3  6  1  0  0  0
  3 31  1  0  0  0
  3 32  1  0  0  0
  5 33  1  0  0  0
  6  7  1  0  0  0
  7  8  1  0  0  0
  7 15  1  0  0  0
  7 22  1  0  0  0
  8  9  1  0  0  0
  8 34  1  0  0  0
  8 35  1  0  0  0
  9 10  1  0  0  0
  9 14  2  0  0  0
 10 11  2  0  0  0
 10 36  1  0  0  0
 11 12  1  0  0  0
 11 37  1  0  0  0
 12 13  2  0  0  0
 12 38  1  0  0  0
 13 14  1  0  0  0
 13 39  1  0  0  0
 14 40  1  0  0  0
 15 16  1  0  0  0
 15 20  2  0  0  0
 16 17  2  0  0  0
 16 41  1  0  0  0
 17 18  1  0  0  0
 17 42  1  0  0  0
 18 19  2  0  0  0
 18 21  1  0  0  0
 19 20  1  0  0  0
 19 43  1  0  0  0
 20 44  1  0  0  0
 22 23  1  0  0  0
 22 27  2  0  0  0
 23 24  2  0  0  0
 23 45  1  0  0  0
 24 25  1  0  0  0
 24 28  1  0  0  0
 25 26  2  0  0  0
 25 46  1  0  0  0
 26 27  1  0  0  0
 26 47  1  0  0  0
 27 48  1  0  0  0
 29 49  1  0  0  0
 29 50  1  0  0  0
M  END
> <s_m_entry_id>
311

> <s_m_entry_name>
dock_pv.310

> <s_m_Source_Path>
/home/csk/Desktop/cluster/DUD-E-result/kif11

> <s_m_Source_File>
dock_pv.maegz

> <i_m_Source_File_Index>
310

> <chembl_id>
CHEMBL2043412

> <chembl_pref_name>
None

> <i_lp_mmshare_version>
53161

> <i_f3d_flags>
0

> <r_lp_tautomer_probability>
1

> <s_lp_Force_Field>
OPLS_2005

> <r_lp_Energy>
19.415775

> <b_lp_Chiralities_Consistent>
1

> <s_lp_Variant>
CHEMBL4581_lig590-1

> <s_i_glide_gridfile>
glide-grid_3cjo

> <i_i_glide_lignum>
904

> <i_i_glide_rotatable_bonds>
9

> <r_i_docking_score>
-7.64788526242547

> <r_i_glide_ligand_efficiency>
-0.263720181462947

> <r_i_glide_ligand_efficiency_sa>
-0.810231949872108

> <r_i_glide_ligand_efficiency_ln>
-1.75117179145823

> <r_i_glide_gscore>
-7.64788526242547

> <r_i_glide_lipo>
-4.46062491033658

> <r_i_glide_hbond>
-0.152

> <r_i_glide_metal>
0

> <r_i_glide_rewards>
-0.423857833333332

> <r_i_glide_evdw>
-40.8656387329102

> <r_i_glide_ecoul>
-9.10630893707275

> <r_i_glide_erotb>
0.803598896412173

> <r_i_glide_esite>
-0.00577313796131177

> <r_i_glide_emodel>
-70.7306885287279

> <r_i_glide_energy>
-49.9719476699829

> <r_i_glide_einternal>
6.26270246505737

> <i_i_glide_confnum>
170

> <i_i_glide_posenum>
72

> <r_i_glide_eff_state_penalty>
0

> <s_user_duplicate_titles>
CHEMBL4581_lig590

> <s_m_subgroup_title>
dock_pv

> <s_m_subgroupid>
dock_pv

> <b_m_subgroup_collapsed>
1

$$$$
CHEMBL4581_lig728
                    3D
 Schrodinger Suite 2021-1.
 72 75  0  0  1  0            999 V2000
   12.4004   13.3523  107.8076 C   0  0  0  0  0  0
   12.6955   14.7564  108.3698 C   0  0  2  0  0  0
   11.4533   15.2842  108.8104 O   0  0  0  0  0  0
   13.2725   15.6813  107.2571 C   0  0  0  0  0  0
   12.4725   16.0674  106.3945 O   0  0  0  0  0  0
   14.5966   16.0332  107.2093 N   0  0  0  0  0  0
   15.0953   16.6696  105.9603 C   0  0  0  0  0  0
   15.1421   15.7283  104.7141 C   0  0  2  0  0  0
   15.9425   14.4341  104.8854 C   0  0  0  0  0  0
   16.3184   13.9648  103.5642 N   0  0  1  0  0  0
   16.3596   15.1413  102.7000 C   0  0  0  0  0  0
   15.7724   16.3422  103.4622 C   0  0  2  0  0  0
   16.7808   17.1550  103.7875 F   0  0  0  0  0  0
   15.5185   16.0289  108.3931 C   0  0  1  0  0  0
   16.8938   15.4211  108.0681 C   0  0  0  0  0  0
   17.8282   15.9641  107.3187 N   0  0  0  0  0  0
   18.8044   15.0650  107.3249 C   0  0  0  0  0  0
   18.5616   13.9799  108.0323 N   0  0  0  0  0  0
   17.3611   14.2173  108.5455 N   0  0  0  0  0  0
   16.9330   13.3927  109.6758 C   0  0  0  0  0  0
   17.7366   13.6248  110.9636 C   0  0  0  0  0  0
   18.7267   14.6202  111.0680 C   0  0  0  0  0  0
   19.4275   14.8079  112.2554 C   0  0  0  0  0  0
   19.1285   14.0246  113.3597 C   0  0  0  0  0  0
   18.1313   13.0559  113.2840 C   0  0  0  0  0  0
   17.7888   12.3635  114.3853 F   0  0  0  0  0  0
   17.4719   12.8267  112.0788 C   0  0  0  0  0  0
   20.1237   15.2603  106.6345 C   0  0  0  0  0  0
   21.1182   14.3005  106.8300 C   0  0  0  0  0  0
   22.3111   14.3626  106.1398 C   0  0  0  0  0  0
   23.1179   13.3062  106.1681 F   0  0  0  0  0  0
   22.6238   15.4636  105.3573 C   0  0  0  0  0  0
   21.6745   16.4627  105.1821 C   0  0  0  0  0  0
   20.4147   16.3165  105.7584 C   0  0  0  0  0  0
   19.4631   17.1618  105.3587 F   0  0  0  0  0  0
   15.5612   17.3630  109.2466 C   0  0  0  0  0  0
   14.1433   17.7522  109.7331 C   0  0  0  0  0  0
   16.1361   18.5726  108.4715 C   0  0  0  0  0  0
   16.4366   17.1552  110.5092 C   0  0  0  0  0  0
   13.3162   12.8540  107.4761 H   0  0  0  0  0  0
   11.9248   12.7213  108.5620 H   0  0  0  0  0  0
   11.7259   13.3880  106.9493 H   0  0  0  0  0  0
   13.3139   14.6587  109.2558 H   0  0  0  0  0  0
   11.2409   16.0380  108.2421 H   0  0  0  0  0  0
   16.0801   17.0996  106.1157 H   0  0  0  0  0  0
   14.4690   17.5325  105.7285 H   0  0  0  0  0  0
   14.1173   15.4367  104.4726 H   0  0  0  0  0  0
   15.3661   13.6799  105.4224 H   0  0  0  0  0  0
   16.8373   14.5927  105.4811 H   0  0  0  0  0  0
   17.2429   13.5255  103.6483 H   0  0  0  0  0  0
   17.3830   15.3322  102.3726 H   0  0  0  0  0  0
   15.7638   14.9334  101.8099 H   0  0  0  0  0  0
   15.0576   16.9186  102.8682 H   0  0  0  0  0  0
   15.1018   15.3396  109.1109 H   0  0  0  0  0  0
   15.8748   13.5526  109.8671 H   0  0  0  0  0  0
   17.0356   12.3479  109.3741 H   0  0  0  0  0  0
   18.9765   15.2640  110.2382 H   0  0  0  0  0  0
   20.1955   15.5657  112.3154 H   0  0  0  0  0  0
   19.6606   14.1735  114.2813 H   0  0  0  0  0  0
   16.7081   12.0634  112.0269 H   0  0  0  0  0  0
   20.9518   13.4361  107.4622 H   0  0  0  0  0  0
   23.5595   15.5029  104.8290 H   0  0  0  0  0  0
   21.8712   17.2867  104.5082 H   0  0  0  0  0  0
   13.6627   16.9405  110.2837 H   0  0  0  0  0  0
   14.1651   18.6175  110.4015 H   0  0  0  0  0  0
   13.4850   18.0211  108.9037 H   0  0  0  0  0  0
   17.1675   18.4054  108.1599 H   0  0  0  0  0  0
   15.5413   18.8116  107.5895 H   0  0  0  0  0  0
   16.1405   19.4731  109.0947 H   0  0  0  0  0  0
   17.4902   17.0355  110.2505 H   0  0  0  0  0  0
   16.3807   18.0069  111.1955 H   0  0  0  0  0  0
   16.1251   16.2704  111.0638 H   0  0  0  0  0  0
  1  2  1  0  0  0
  1 40  1  0  0  0
  1 41  1  0  0  0
  1 42  1  0  0  0
  2  3  1  0  0  0
  2  4  1  0  0  0
  2 43  1  0  0  0
  3 44  1  0  0  0
  4  5  2  0  0  0
  4  6  1  0  0  0
  6  7  1  0  0  0
  6 14  1  0  0  0
  7  8  1  0  0  0
  7 45  1  0  0  0
  7 46  1  0  0  0
  8  9  1  0  0  0
  8 12  1  0  0  0
  8 47  1  0  0  0
  9 10  1  0  0  0
  9 48  1  0  0  0
  9 49  1  0  0  0
 10 11  1  0  0  0
 10 50  1  0  0  0
 11 12  1  0  0  0
 11 51  1  0  0  0
 11 52  1  0  0  0
 12 13  1  0  0  0
 12 53  1  0  0  0
 14 15  1  0  0  0
 14 36  1  0  0  0
 14 54  1  0  0  0
 15 16  2  0  0  0
 15 19  1  0  0  0
 16 17  1  0  0  0
 17 18  2  0  0  0
 17 28  1  0  0  0
 18 19  1  0  0  0
 19 20  1  0  0  0
 20 21  1  0  0  0
 20 55  1  0  0  0
 20 56  1  0  0  0
 21 22  2  0  0  0
 21 27  1  0  0  0
 22 23  1  0  0  0
 22 57  1  0  0  0
 23 24  2  0  0  0
 23 58  1  0  0  0
 24 25  1  0  0  0
 24 59  1  0  0  0
 25 26  1  0  0  0
 25 27  2  0  0  0
 27 60  1  0  0  0
 28 29  2  0  0  0
 28 34  1  0  0  0
 29 30  1  0  0  0
 29 61  1  0  0  0
 30 31  1  0  0  0
 30 32  2  0  0  0
 32 33  1  0  0  0
 32 62  1  0  0  0
 33 34  2  0  0  0
 33 63  1  0  0  0
 34 35  1  0  0  0
 36 37  1  0  0  0
 36 38  1  0  0  0
 36 39  1  0  0  0
 37 64  1  0  0  0
 37 65  1  0  0  0
 37 66  1  0  0  0
 38 67  1  0  0  0
 38 68  1  0  0  0
 38 69  1  0  0  0
 39 70  1  0  0  0
 39 71  1  0  0  0
 39 72  1  0  0  0
M  END
> <s_m_entry_id>
312

> <s_m_entry_name>
dock_pv.311

> <s_m_Source_Path>
/home/csk/Desktop/cluster/DUD-E-result/kif11

> <s_m_Source_File>
dock_pv.maegz

> <i_m_Source_File_Index>
311

> <chembl_id>
CHEMBL3645246

> <chembl_pref_name>
None

> <i_lp_mmshare_version>
53161

> <i_f3d_flags>
0

> <r_lp_tautomer_probability>
1

> <s_lp_Force_Field>
OPLS_2005

> <r_lp_Energy>
74.054204

> <b_lp_Chiralities_Consistent>
1

> <s_lp_Variant>
CHEMBL4581_lig728-1

> <s_i_glide_gridfile>
glide-grid_3cjo

> <i_i_glide_lignum>
1075

> <i_i_glide_rotatable_bonds>
11

> <r_i_docking_score>
-7.64555018398398

> <r_i_glide_ligand_efficiency>
-0.196039748307282

> <r_i_glide_ligand_efficiency_sa>
-0.66481223693341

> <r_i_glide_ligand_efficiency_ln>
-1.63942299129446

> <r_i_glide_gscore>
-7.64555018398398

> <r_i_glide_lipo>
-4.33992251073032

> <r_i_glide_hbond>
-0.16

> <r_i_glide_metal>
0

> <r_i_glide_rewards>
-1.19828538032652

> <r_i_glide_evdw>
-43.2131080627441

> <r_i_glide_ecoul>
-2.26270294189453

> <r_i_glide_erotb>
0.55271855149424

> <r_i_glide_esite>
0

> <r_i_glide_emodel>
-54.1862097741133

> <r_i_glide_energy>
-45.4758110046387

> <r_i_glide_einternal>
9.28584480285645

> <i_i_glide_confnum>
72

> <i_i_glide_posenum>
321

> <r_i_glide_eff_state_penalty>
0

> <s_user_duplicate_titles>
CHEMBL4581_lig728

> <s_m_subgroup_title>
dock_pv

> <s_m_subgroupid>
dock_pv

> <b_m_subgroup_collapsed>
1

$$$$
CHEMBL4581_lig799
                    3D
 Schrodinger Suite 2021-1.
 47 49  0  0  1  0            999 V2000
   15.1841   17.7611  109.9972 C   0  0  0  0  0  0
   15.6702   16.5399  109.5411 C   0  0  0  0  0  0
   17.0530   16.3102  109.4508 C   0  0  0  0  0  0
   17.9340   17.3348  109.8150 C   0  0  0  0  0  0
   17.4513   18.5482  110.2763 C   0  0  0  0  0  0
   16.0774   18.7610  110.3661 C   0  0  0  0  0  0
   17.6034   14.9492  108.9637 C   0  0  0  0  0  0
   18.8611   15.1037  108.0505 C   0  0  0  0  0  0
   17.8076   14.1126  110.2613 C   0  0  0  0  0  0
   19.9724   14.2540  108.1620 C   0  0  0  0  0  0
   21.0408   14.3621  107.2752 C   0  0  0  0  0  0
   21.0279   15.3432  106.2886 C   0  0  0  0  0  0
   19.9444   16.2082  106.1734 C   0  0  0  0  0  0
   18.8668   16.0828  107.0454 C   0  0  0  0  0  0
   16.9417   13.0682  110.6207 C   0  0  0  0  0  0
   17.1186   12.3736  111.8144 C   0  0  0  0  0  0
   18.1214   12.7603  112.6956 C   0  0  0  0  0  0
   18.9771   13.8083  112.3724 C   0  0  0  0  0  0
   18.8364   14.4620  111.1533 C   0  0  0  0  0  0
   16.5631   14.3801  108.1356 O   0  0  0  0  0  0
   16.7738   13.1663  107.4067 C   0  0  0  0  0  0
   16.0983   13.2320  106.0171 C   0  0  1  0  0  0
   14.5671   13.4668  106.0884 C   0  0  0  0  0  0
   16.7179   14.2165  105.1060 N   0  0  0  0  0  0
   13.9202   12.3621  106.5590 O   0  0  0  0  0  0
   14.0099   14.5040  105.7229 O   0  0  0  0  0  0
   14.1190   17.9299  110.0631 H   0  0  0  0  0  0
   14.9656   15.7688  109.2649 H   0  0  0  0  0  0
   19.0030   17.1987  109.7506 H   0  0  0  0  0  0
   18.1533   19.3152  110.5595 H   0  0  0  0  0  0
   15.7037   19.7090  110.7236 H   0  0  0  0  0  0
   20.0014   13.4702  108.9055 H   0  0  0  0  0  0
   21.8790   13.6861  107.3550 H   0  0  0  0  0  0
   21.8598   15.4260  105.6041 H   0  0  0  0  0  0
   19.9362   16.9706  105.4082 H   0  0  0  0  0  0
   18.0226   16.7480  106.9319 H   0  0  0  0  0  0
   16.0970   12.8019  110.0073 H   0  0  0  0  0  0
   16.4508   11.5650  112.0724 H   0  0  0  0  0  0
   18.2379   12.2414  113.6352 H   0  0  0  0  0  0
   19.7578   14.1009  113.0593 H   0  0  0  0  0  0
   19.5152   15.2695  110.9196 H   0  0  0  0  0  0
   17.8229   12.9051  107.2881 H   0  0  0  0  0  0
   16.3453   12.3620  107.9865 H   0  0  0  0  0  0
   16.2168   12.2482  105.5597 H   0  0  0  0  0  0
   17.6314   13.8611  104.8131 H   0  0  0  0  0  0
   16.1707   14.3095  104.2635 H   0  0  0  0  0  0
   14.5197   11.6550  106.8339 H   0  0  0  0  0  0
  1  2  2  0  0  0
  1  6  1  0  0  0
  1 27  1  0  0  0
  2  3  1  0  0  0
  2 28  1  0  0  0
  3  7  1  0  0  0
  3  4  2  0  0  0
  4  5  1  0  0  0
  4 29  1  0  0  0
  5  6  2  0  0  0
  5 30  1  0  0  0
  6 31  1  0  0  0
  7  8  1  0  0  0
  7  9  1  0  0  0
  7 20  1  0  0  0
  8 14  1  0  0  0
  8 10  2  0  0  0
  9 15  2  0  0  0
  9 19  1  0  0  0
 10 11  1  0  0  0
 10 32  1  0  0  0
 11 12  2  0  0  0
 11 33  1  0  0  0
 12 13  1  0  0  0
 12 34  1  0  0  0
 13 14  2  0  0  0
 13 35  1  0  0  0
 14 36  1  0  0  0
 15 16  1  0  0  0
 15 37  1  0  0  0
 16 17  2  0  0  0
 16 38  1  0  0  0
 17 18  1  0  0  0
 17 39  1  0  0  0
 18 19  2  0  0  0
 18 40  1  0  0  0
 19 41  1  0  0  0
 20 21  1  0  0  0
 21 22  1  0  0  0
 21 42  1  0  0  0
 21 43  1  0  0  0
 22 23  1  0  0  0
 22 24  1  0  0  0
 22 44  1  0  0  0
 23 25  1  0  0  0
 23 26  2  0  0  0
 24 45  1  0  0  0
 24 46  1  0  0  0
 25 47  1  0  0  0
M  END
> <s_m_entry_id>
313

> <s_m_entry_name>
dock_pv.312

> <s_m_Source_Path>
/home/csk/Desktop/cluster/DUD-E-result/kif11

> <s_m_Source_File>
dock_pv.maegz

> <i_m_Source_File_Index>
312

> <chembl_id>
CHEMBL412292

> <chembl_pref_name>
None

> <i_lp_mmshare_version>
53161

> <i_f3d_flags>
0

> <r_lp_tautomer_probability>
1

> <s_lp_Force_Field>
OPLS_2005

> <r_lp_Energy>
34.019989

> <b_lp_Chiralities_Consistent>
1

> <s_lp_Variant>
CHEMBL4581_lig799-1

> <s_i_glide_gridfile>
glide-grid_3cjo

> <i_i_glide_lignum>
1183

> <i_i_glide_rotatable_bonds>
8

> <r_i_docking_score>
-7.64445362101026

> <r_i_glide_ligand_efficiency>
-0.294017446961933

> <r_i_glide_ligand_efficiency_sa>
-0.871025529721937

> <r_i_glide_ligand_efficiency_ln>
-1.79527484939603

> <r_i_glide_gscore>
-7.64445362101026

> <r_i_glide_lipo>
-4.41267348677254

> <r_i_glide_hbond>
-0.152

> <r_i_glide_metal>
0

> <r_i_glide_rewards>
-1.08207321212121

> <r_i_glide_evdw>
-35.8186302185059

> <r_i_glide_ecoul>
-8.66780281066895

> <r_i_glide_erotb>
1.10337387291592

> <r_i_glide_esite>
-0.00997886250679179

> <r_i_glide_emodel>
-63.3767989257546

> <r_i_glide_energy>
-44.4864330291748

> <r_i_glide_einternal>
5.67413425445557

> <i_i_glide_confnum>
13

> <i_i_glide_posenum>
207

> <r_i_glide_eff_state_penalty>
0

> <s_user_duplicate_titles>
CHEMBL4581_lig799

> <s_m_subgroup_title>
dock_pv

> <s_m_subgroupid>
dock_pv

> <b_m_subgroup_collapsed>
1

$$$$
CHEMBL4581_lig866
                    3D
 Schrodinger Suite 2021-1.
 50 52  0  0  1  0            999 V2000
   17.8607   14.9851  109.2549 C   0  0  0  0  0  0
   17.9706   14.3431  110.6820 C   0  0  0  0  0  0
   19.1858   14.7119  108.4635 C   0  0  0  0  0  0
   17.3969   13.0904  110.9637 C   0  0  0  0  0  0
   17.5181   12.5108  112.2230 C   0  0  0  0  0  0
   18.2400   13.1598  113.2178 C   0  0  0  0  0  0
   18.8480   14.3812  112.9548 C   0  0  0  0  0  0
   18.7114   14.9711  111.6996 C   0  0  0  0  0  0
   19.4818   15.4421  107.2967 C   0  0  0  0  0  0
   20.6244   15.1848  106.5496 C   0  0  0  0  0  0
   21.5179   14.1912  106.9586 C   0  0  0  0  0  0
   21.2693   13.5054  108.1428 C   0  0  0  0  0  0
   20.1196   13.7495  108.8838 C   0  0  0  0  0  0
   16.6115   14.4453  108.4701 C   0  0  0  0  0  0
   15.3404   14.4703  109.0713 C   0  0  0  0  0  0
   14.2053   14.0461  108.3876 C   0  0  0  0  0  0
   14.3238   13.5623  107.0896 C   0  0  0  0  0  0
   15.5717   13.4864  106.4818 C   0  0  0  0  0  0
   16.7037   13.9156  107.1678 C   0  0  0  0  0  0
   17.7166   16.5585  109.3690 C   0  0  0  0  0  0
   16.6003   17.1699  110.2463 C   0  0  0  0  0  0
   16.6835   18.7016  110.2904 C   0  0  0  0  0  0
   15.5078   19.2199  110.9591 N   0  0  0  0  0  0
   22.6716   13.8493  106.2803 O   0  0  0  0  0  0
   23.0816   14.6215  105.1586 C   0  0  0  0  0  0
   16.8598   12.5391  110.2055 H   0  0  0  0  0  0
   17.0465   11.5620  112.4245 H   0  0  0  0  0  0
   18.3373   12.7092  114.1953 H   0  0  0  0  0  0
   19.4282   14.8702  113.7230 H   0  0  0  0  0  0
   19.2082   15.9125  111.5230 H   0  0  0  0  0  0
   18.8059   16.1899  106.9140 H   0  0  0  0  0  0
   20.7876   15.7567  105.6498 H   0  0  0  0  0  0
   21.9751   12.7620  108.4753 H   0  0  0  0  0  0
   19.9661   13.1537  109.7702 H   0  0  0  0  0  0
   15.2246   14.8123  110.0880 H   0  0  0  0  0  0
   13.2381   14.0838  108.8653 H   0  0  0  0  0  0
   13.4458   13.2233  106.5590 H   0  0  0  0  0  0
   15.6676   13.0855  105.4831 H   0  0  0  0  0  0
   17.6445   13.8122  106.6509 H   0  0  0  0  0  0
   18.6685   16.9886  109.6868 H   0  0  0  0  0  0
   17.5485   16.9768  108.3781 H   0  0  0  0  0  0
   15.6280   16.9180  109.8258 H   0  0  0  0  0  0
   16.6292   16.7667  111.2592 H   0  0  0  0  0  0
   17.5870   19.0318  110.8076 H   0  0  0  0  0  0
   16.7144   19.1125  109.2805 H   0  0  0  0  0  0
   15.5276   18.9578  111.9391 H   0  0  0  0  0  0
   15.5188   20.2309  110.9435 H   0  0  0  0  0  0
   23.9188   14.1226  104.6756 H   0  0  0  0  0  0
   22.3061   14.7191  104.4023 H   0  0  0  0  0  0
   23.4075   15.6158  105.4654 H   0  0  0  0  0  0
  1  2  1  0  0  0
  1  3  1  0  0  0
  1 14  1  0  0  0
  1 20  1  0  0  0
  2  4  2  0  0  0
  2  8  1  0  0  0
  3  9  2  0  0  0
  3 13  1  0  0  0
  4  5  1  0  0  0
  4 26  1  0  0  0
  5  6  2  0  0  0
  5 27  1  0  0  0
  6  7  1  0  0  0
  6 28  1  0  0  0
  7  8  2  0  0  0
  7 29  1  0  0  0
  8 30  1  0  0  0
  9 10  1  0  0  0
  9 31  1  0  0  0
 10 11  2  0  0  0
 10 32  1  0  0  0
 11 12  1  0  0  0
 11 24  1  0  0  0
 12 13  2  0  0  0
 12 33  1  0  0  0
 13 34  1  0  0  0
 14 15  2  0  0  0
 14 19  1  0  0  0
 15 16  1  0  0  0
 15 35  1  0  0  0
 16 17  2  0  0  0
 16 36  1  0  0  0
 17 18  1  0  0  0
 17 37  1  0  0  0
 18 19  2  0  0  0
 18 38  1  0  0  0
 19 39  1  0  0  0
 20 21  1  0  0  0
 20 40  1  0  0  0
 20 41  1  0  0  0
 21 22  1  0  0  0
 21 42  1  0  0  0
 21 43  1  0  0  0
 22 23  1  0  0  0
 22 44  1  0  0  0
 22 45  1  0  0  0
 23 46  1  0  0  0
 23 47  1  0  0  0
 24 25  1  0  0  0
 25 48  1  0  0  0
 25 49  1  0  0  0
 25 50  1  0  0  0
M  END
> <s_m_entry_id>
314

> <s_m_entry_name>
dock_pv.313

> <s_m_Source_Path>
/home/csk/Desktop/cluster/DUD-E-result/kif11

> <s_m_Source_File>
dock_pv.maegz

> <i_m_Source_File_Index>
313

> <chembl_id>
CHEMBL2325436

> <chembl_pref_name>
None

> <i_lp_mmshare_version>
53161

> <i_f3d_flags>
0

> <r_lp_tautomer_probability>
1

> <s_lp_Force_Field>
OPLS_2005

> <r_lp_Energy>
33.829903

> <b_lp_Chiralities_Consistent>
1

> <s_lp_Variant>
CHEMBL4581_lig866-1

> <s_i_glide_gridfile>
glide-grid_3cjo

> <i_i_glide_lignum>
1256

> <i_i_glide_rotatable_bonds>
7

> <r_i_docking_score>
-7.6409851686044

> <r_i_glide_ligand_efficiency>
-0.305639406744176

> <r_i_glide_ligand_efficiency_sa>
-0.89369504585793

> <r_i_glide_ligand_efficiency_ln>
-1.81114246680704

> <r_i_glide_gscore>
-7.6409851686044

> <r_i_glide_lipo>
-4.60383007216975

> <r_i_glide_hbond>
-0.32

> <r_i_glide_metal>
0

> <r_i_glide_rewards>
-1.22189543321131

> <r_i_glide_evdw>
-41.047924041748

> <r_i_glide_ecoul>
-1.99652695655823

> <r_i_glide_erotb>
0.856615582347791

> <r_i_glide_esite>
0

> <r_i_glide_emodel>
-59.2642841601927

> <r_i_glide_energy>
-43.0444509983063

> <r_i_glide_einternal>
6.42657995223999

> <i_i_glide_confnum>
107

> <i_i_glide_posenum>
43

> <r_i_glide_eff_state_penalty>
0

> <s_user_duplicate_titles>
CHEMBL4581_lig866

> <s_m_subgroup_title>
dock_pv

> <s_m_subgroupid>
dock_pv

> <b_m_subgroup_collapsed>
1

$$$$
CHEMBL4581_lig547
                    3D
 Schrodinger Suite 2021-1.
 61 64  0  0  1  0            999 V2000
   19.1497   16.3854  107.0786 N   0  0  0  0  0  0
   18.3183   15.7573  107.8465 C   0  0  0  0  0  0
   18.6948   14.5561  108.4739 N   0  0  0  0  0  0
   19.9534   13.9621  108.3552 C   0  0  0  0  0  0
   20.3144   15.7842  106.7333 C   0  0  0  0  0  0
   20.7183   14.5818  107.2884 C   0  0  0  0  0  0
   22.1672   13.9620  106.5589 S   0  0  0  0  0  0
   22.2736   15.3744  105.5539 C   0  0  0  0  0  0
   21.2076   16.2459  105.7586 C   0  0  0  0  0  0
   20.3302   13.0017  109.0258 O   0  0  0  0  0  0
   16.9245   16.4296  108.0747 C   0  0  2  0  0  0
   16.0838   16.5225  106.8063 N   0  0  0  0  0  0
   17.1400   17.8010  108.8175 C   0  0  0  0  0  0
   14.8684   17.1622  106.7316 C   0  0  0  0  0  0
   14.1209   17.4146  107.9366 C   0  0  0  0  0  0
   14.3240   17.4603  105.6628 O   0  0  0  0  0  0
   16.5327   15.9228  105.5065 C   0  0  0  0  0  0
   15.7537   14.6707  105.0469 C   0  0  0  0  0  0
   17.7273   13.7331  109.2538 C   0  0  0  0  0  0
   17.9301   13.6188  110.7696 C   0  0  0  0  0  0
   17.3311   12.5474  111.4373 C   0  0  0  0  0  0
   17.5180   12.3827  112.8071 C   0  0  0  0  0  0
   18.3096   13.2868  113.5099 C   0  0  0  0  0  0
   18.9142   14.3569  112.8544 C   0  0  0  0  0  0
   18.7266   14.5218  111.4849 C   0  0  0  0  0  0
   17.9362   17.7548  110.1370 C   0  0  0  0  0  0
   16.0553   13.4188  105.8797 C   0  0  0  0  0  0
   15.2953   12.2994  105.3591 N   0  0  0  0  0  0
   13.6270   16.4970  108.8788 C   0  0  0  0  0  0
   12.8311   17.1622  109.8266 C   0  0  0  0  0  0
   12.7352   18.5320  109.6422 C   0  0  0  0  0  0
   13.5721   19.0452  108.2260 S   0  0  0  0  0  0
   13.7724   14.9880  108.8290 C   0  0  0  0  0  0
   23.0881   15.4796  104.8525 H   0  0  0  0  0  0
   21.0673   17.1681  105.2142 H   0  0  0  0  0  0
   16.3389   15.8275  108.7570 H   0  0  0  0  0  0
   17.6224   18.5208  108.1591 H   0  0  0  0  0  0
   16.1919   18.2549  109.0821 H   0  0  0  0  0  0
   16.4686   16.6825  104.7248 H   0  0  0  0  0  0
   17.5773   15.6384  105.4891 H   0  0  0  0  0  0
   14.6822   14.8733  105.0222 H   0  0  0  0  0  0
   16.0413   14.4628  104.0151 H   0  0  0  0  0  0
   16.6924   13.9907  109.0579 H   0  0  0  0  0  0
   17.7919   12.7137  108.8642 H   0  0  0  0  0  0
   16.7242   11.8350  110.8960 H   0  0  0  0  0  0
   17.0445   11.5614  113.3235 H   0  0  0  0  0  0
   18.4579   13.1543  114.5720 H   0  0  0  0  0  0
   19.5353   15.0499  113.4025 H   0  0  0  0  0  0
   19.2201   15.3405  110.9844 H   0  0  0  0  0  0
   17.9592   18.7385  110.6085 H   0  0  0  0  0  0
   17.4827   17.0639  110.8481 H   0  0  0  0  0  0
   18.9733   17.4588  109.9780 H   0  0  0  0  0  0
   17.1185   13.1769  105.8395 H   0  0  0  0  0  0
   15.7965   13.5749  106.9264 H   0  0  0  0  0  0
   15.4580   11.4956  105.9614 H   0  0  0  0  0  0
   14.3073   12.4961  105.4277 H   0  0  0  0  0  0
   12.3188   16.6489  110.6254 H   0  0  0  0  0  0
   12.1843   19.2461  110.2372 H   0  0  0  0  0  0
   13.9468   14.6210  107.8184 H   0  0  0  0  0  0
   14.5747   14.6267  109.4699 H   0  0  0  0  0  0
   12.8595   14.4931  109.1616 H   0  0  0  0  0  0
  1  5  1  0  0  0
  1  2  2  0  0  0
  2 11  1  0  0  0
  2  3  1  0  0  0
  3 19  1  0  0  0
  3  4  1  0  0  0
  4 10  2  0  0  0
  4  6  1  0  0  0
  5  9  1  0  0  0
  5  6  2  0  0  0
  6  7  1  0  0  0
  7  8  1  0  0  0
  8  9  2  0  0  0
  8 34  1  0  0  0
  9 35  1  0  0  0
 11 12  1  0  0  0
 11 13  1  0  0  0
 11 36  1  0  0  0
 12 17  1  0  0  0
 12 14  1  0  0  0
 13 26  1  0  0  0
 13 37  1  0  0  0
 13 38  1  0  0  0
 14 16  2  0  0  0
 14 15  1  0  0  0
 15 29  2  0  0  0
 15 32  1  0  0  0
 17 18  1  0  0  0
 17 39  1  0  0  0
 17 40  1  0  0  0
 18 27  1  0  0  0
 18 41  1  0  0  0
 18 42  1  0  0  0
 19 20  1  0  0  0
 19 43  1  0  0  0
 19 44  1  0  0  0
 20 21  2  0  0  0
 20 25  1  0  0  0
 21 22  1  0  0  0
 21 45  1  0  0  0
 22 23  2  0  0  0
 22 46  1  0  0  0
 23 24  1  0  0  0
 23 47  1  0  0  0
 24 25  2  0  0  0
 24 48  1  0  0  0
 25 49  1  0  0  0
 26 50  1  0  0  0
 26 51  1  0  0  0
 26 52  1  0  0  0
 27 28  1  0  0  0
 27 53  1  0  0  0
 27 54  1  0  0  0
 28 55  1  0  0  0
 28 56  1  0  0  0
 29 30  1  0  0  0
 29 33  1  0  0  0
 30 31  2  0  0  0
 30 57  1  0  0  0
 31 32  1  0  0  0
 31 58  1  0  0  0
 33 59  1  0  0  0
 33 60  1  0  0  0
 33 61  1  0  0  0
M  END
> <s_m_entry_id>
315

> <s_m_entry_name>
dock_pv.314

> <s_m_Source_Path>
/home/csk/Desktop/cluster/DUD-E-result/kif11

> <s_m_Source_File>
dock_pv.maegz

> <i_m_Source_File_Index>
314

> <chembl_id>
CHEMBL1829415

> <chembl_pref_name>
None

> <i_lp_mmshare_version>
53161

> <i_f3d_flags>
0

> <r_lp_tautomer_probability>
1

> <s_lp_Force_Field>
OPLS_2005

> <r_lp_Energy>
47.912331

> <b_lp_Chiralities_Consistent>
1

> <s_lp_Variant>
CHEMBL4581_lig547-1

> <s_i_glide_gridfile>
glide-grid_3cjo

> <i_i_glide_lignum>
820

> <i_i_glide_rotatable_bonds>
10

> <r_i_docking_score>
-7.63948806984531

> <r_i_glide_ligand_efficiency>
-0.231499638480161

> <r_i_glide_ligand_efficiency_sa>
-0.742543036941303

> <r_i_glide_ligand_efficiency_ln>
-1.69898259158132

> <r_i_glide_gscore>
-7.63948806984531

> <r_i_glide_lipo>
-4.40942344647626

> <r_i_glide_hbond>
-0.32

> <r_i_glide_metal>
0

> <r_i_glide_rewards>
-0.752490494012233

> <r_i_glide_evdw>
-47.2035179138184

> <r_i_glide_ecoul>
-3.33125996589661

> <r_i_glide_erotb>
0.702290761218591

> <r_i_glide_esite>
0

> <r_i_glide_emodel>
-68.0991321812097

> <r_i_glide_energy>
-50.534777879715

> <r_i_glide_einternal>
9.89693260192871

> <i_i_glide_confnum>
165

> <i_i_glide_posenum>
26

> <r_i_glide_eff_state_penalty>
0

> <s_user_duplicate_titles>
CHEMBL4581_lig547

> <s_m_subgroup_title>
dock_pv

> <s_m_subgroupid>
dock_pv

> <b_m_subgroup_collapsed>
1

$$$$
CHEMBL4581_lig615
                    3D
 Schrodinger Suite 2021-1.
 34 35  0  0  1  0            999 V2000
   19.2813   14.1371  108.4792 S   0  0  0  0  0  0
   15.5546   15.7826  110.5527 O   0  0  0  0  0  0
   21.4587   14.6697  106.4480 O   0  0  0  0  0  0
   17.4296   15.8008  109.2348 N   0  0  0  0  0  0
   18.1994   16.5243  108.3752 N   0  0  0  0  0  0
   19.9805   16.3610  106.9601 N   0  0  0  0  0  0
   17.7327   14.3508  109.3770 C   0  0  2  0  0  0
   17.9568   13.9053  110.8448 C   0  0  0  0  0  0
   19.1297   15.8246  107.8801 C   0  0  0  0  0  0
   16.3751   16.3992  109.8702 C   0  0  0  0  0  0
   16.6853   13.5030  108.5973 C   0  0  0  0  0  0
   17.3171   12.7743  111.3769 C   0  0  0  0  0  0
   18.8139   14.6491  111.6711 C   0  0  0  0  0  0
   17.5189   12.4096  112.7042 C   0  0  0  0  0  0
   19.0271   14.2725  112.9932 C   0  0  0  0  0  0
   21.0394   15.8205  106.3213 C   0  0  0  0  0  0
   16.1800   17.9187  109.7495 C   0  0  0  0  0  0
   18.3749   13.1554  113.5065 C   0  0  0  0  0  0
   21.7720   16.7589  105.3684 C   0  0  0  0  0  0
   19.8300   17.3428  106.7826 H   0  0  0  0  0  0
   15.7011   13.5424  109.0648 H   0  0  0  0  0  0
   16.5624   13.8530  107.5709 H   0  0  0  0  0  0
   16.9766   12.4518  108.5359 H   0  0  0  0  0  0
   16.6491   12.1675  110.7842 H   0  0  0  0  0  0
   19.3238   15.5182  111.2804 H   0  0  0  0  0  0
   16.9987   11.5587  113.1162 H   0  0  0  0  0  0
   19.6948   14.8447  113.6203 H   0  0  0  0  0  0
   15.8506   18.1796  108.7428 H   0  0  0  0  0  0
   15.4259   18.2672  110.4571 H   0  0  0  0  0  0
   17.1112   18.4473  109.9635 H   0  0  0  0  0  0
   18.5332   12.8634  114.5348 H   0  0  0  0  0  0
   22.6713   17.1463  105.8473 H   0  0  0  0  0  0
   21.1408   17.5969  105.0719 H   0  0  0  0  0  0
   22.0701   16.2244  104.4656 H   0  0  0  0  0  0
  1  7  1  0  0  0
  1  9  1  0  0  0
  2 10  2  0  0  0
  3 16  2  0  0  0
  4  5  1  0  0  0
  4  7  1  0  0  0
  4 10  1  0  0  0
  5  9  2  0  0  0
  6  9  1  0  0  0
  6 16  1  0  0  0
  6 20  1  0  0  0
  7  8  1  0  0  0
  7 11  1  0  0  0
  8 12  2  0  0  0
  8 13  1  0  0  0
 10 17  1  0  0  0
 11 21  1  0  0  0
 11 22  1  0  0  0
 11 23  1  0  0  0
 12 14  1  0  0  0
 12 24  1  0  0  0
 13 15  2  0  0  0
 13 25  1  0  0  0
 14 18  2  0  0  0
 14 26  1  0  0  0
 15 18  1  0  0  0
 15 27  1  0  0  0
 16 19  1  0  0  0
 17 28  1  0  0  0
 17 29  1  0  0  0
 17 30  1  0  0  0
 18 31  1  0  0  0
 19 32  1  0  0  0
 19 33  1  0  0  0
 19 34  1  0  0  0
M  END
> <s_m_entry_id>
316

> <s_m_entry_name>
dock_pv.315

> <s_m_Source_Path>
/home/csk/Desktop/cluster/DUD-E-result/kif11

> <s_m_Source_File>
dock_pv.maegz

> <i_m_Source_File_Index>
315

> <chembl_id>
CHEMBL1413473

> <chembl_pref_name>
None

> <i_lp_mmshare_version>
53161

> <i_f3d_flags>
0

> <r_lp_tautomer_probability>
1

> <s_lp_Force_Field>
OPLS_2005

> <r_lp_Energy>
16.934743

> <b_lp_Chiralities_Consistent>
1

> <s_lp_Variant>
CHEMBL4581_lig615-2

> <s_i_glide_gridfile>
glide-grid_3cjo

> <i_i_glide_lignum>
947

> <i_i_glide_rotatable_bonds>
4

> <r_i_docking_score>
-7.63909227417148

> <r_i_glide_ligand_efficiency>
-0.402057488114288

> <r_i_glide_ligand_efficiency_sa>
-1.07285086311219

> <r_i_glide_ligand_efficiency_ln>
-1.9366739641605

> <r_i_glide_gscore>
-7.63909227417148

> <r_i_glide_lipo>
-2.73581144072981

> <r_i_glide_hbond>
-0.174550596446972

> <r_i_glide_metal>
0

> <r_i_glide_rewards>
-2.67789771146043

> <r_i_glide_evdw>
-40.0183410644531

> <r_i_glide_ecoul>
-3.454181432724

> <r_i_glide_erotb>
0.468211742596997

> <r_i_glide_esite>
0

> <r_i_glide_emodel>
-60.5132802216505

> <r_i_glide_energy>
-43.4725224971771

> <r_i_glide_einternal>
5.44760465621948

> <i_i_glide_confnum>
3

> <i_i_glide_posenum>
1

> <r_i_glide_eff_state_penalty>
0

> <s_user_duplicate_titles>
CHEMBL4581_lig615,CHEMBL4581_lig743

> <s_m_subgroup_title>
dock_pv

> <s_m_subgroupid>
dock_pv

> <b_m_subgroup_collapsed>
1

$$$$
CHEMBL4581_lig372
                    3D
 Schrodinger Suite 2021-1.
 47 50  0  0  1  0            999 V2000
   21.2083   15.8862  105.7735 C   0  0  0  0  0  0
   21.7981   14.6826  106.1567 C   0  0  0  0  0  0
   21.2897   13.9644  107.2415 C   0  0  0  0  0  0
   20.0899   16.3542  106.4528 C   0  0  0  0  0  0
   19.5724   15.6740  107.5557 C   0  0  0  0  0  0
   20.1906   14.4673  107.9591 C   0  0  0  0  0  0
   19.7485   13.7847  109.1144 N   0  0  0  0  0  0
   18.4693   14.1413  109.7392 C   0  0  2  0  0  0
   18.3421   16.2151  108.2686 C   0  0  2  0  0  0
   18.2691   15.6854  109.7117 C   0  0  1  0  0  0
   16.9542   16.1944  110.3461 C   0  0  0  0  0  0
   15.7302   15.8186  109.4967 C   0  0  0  0  0  0
   15.9255   16.1716  107.9988 C   0  0  1  0  0  0
   17.2126   15.7839  107.5074 O   0  0  0  0  0  0
   18.3108   13.5693  111.1451 C   0  0  0  0  0  0
   17.3142   12.6270  111.4119 C   0  0  0  0  0  0
   17.1177   12.1745  112.7136 C   0  0  0  0  0  0
   17.9084   12.6678  113.7460 C   0  0  0  0  0  0
   18.9134   13.5904  113.4834 C   0  0  0  0  0  0
   19.1174   14.0421  112.1851 C   0  0  0  0  0  0
   14.7840   15.6610  107.0808 C   0  0  0  0  0  0
   14.4985   14.2253  107.1418 N   0  0  2  0  0  0
   19.0900   16.1541  110.2589 H   0  0  0  0  0  0
   18.3771   17.3082  108.2872 H   0  0  0  0  0  0
   21.9156   12.8239  107.6246 F   0  0  0  0  0  0
   21.9181   16.9377  104.3571 Br  0  0  0  0  0  0
   15.5701   13.3907  106.6139 C   0  0  0  0  0  0
   22.6600   14.3092  105.6227 H   0  0  0  0  0  0
   19.6334   17.2780  106.1312 H   0  0  0  0  0  0
   20.0072   12.8164  109.2450 H   0  0  0  0  0  0
   17.6874   13.6819  109.1328 H   0  0  0  0  0  0
   16.9991   17.2801  110.4456 H   0  0  0  0  0  0
   16.8263   15.8049  111.3562 H   0  0  0  0  0  0
   14.8473   16.3276  109.8852 H   0  0  0  0  0  0
   15.5244   14.7524  109.6001 H   0  0  0  0  0  0
   15.8877   17.2591  107.9127 H   0  0  0  0  0  0
   16.6778   12.2629  110.6180 H   0  0  0  0  0  0
   16.3273   11.4677  112.9280 H   0  0  0  0  0  0
   17.7444   12.3282  114.7587 H   0  0  0  0  0  0
   19.5222   13.9630  114.2892 H   0  0  0  0  0  0
   19.8904   14.7709  111.9897 H   0  0  0  0  0  0
   14.9723   15.9568  106.0462 H   0  0  0  0  0  0
   13.8639   16.1717  107.3702 H   0  0  0  0  0  0
   13.6209   14.0074  106.6860 H   0  0  0  0  0  0
   15.2242   12.3608  106.5385 H   0  0  0  0  0  0
   15.8792   13.7109  105.6182 H   0  0  0  0  0  0
   16.4385   13.3874  107.2709 H   0  0  0  0  0  0
  1  2  2  0  0  0
  1  4  1  0  0  0
  1 26  1  0  0  0
  2  3  1  0  0  0
  2 28  1  0  0  0
  3 25  1  0  0  0
  3  6  2  0  0  0
  4  5  2  0  0  0
  4 29  1  0  0  0
  5  9  1  0  0  0
  5  6  1  0  0  0
  6  7  1  0  0  0
  7  8  1  0  0  0
  7 30  1  0  0  0
  8 10  1  0  0  0
  8 15  1  0  0  0
  8 31  1  0  0  0
  9 10  1  0  0  0
  9 24  1  0  0  0
  9 14  1  0  0  0
 10 11  1  0  0  0
 10 23  1  0  0  0
 11 12  1  0  0  0
 11 32  1  0  0  0
 11 33  1  0  0  0
 12 13  1  0  0  0
 12 34  1  0  0  0
 12 35  1  0  0  0
 13 14  1  0  0  0
 13 21  1  0  0  0
 13 36  1  0  0  0
 15 16  2  0  0  0
 15 20  1  0  0  0
 16 17  1  0  0  0
 16 37  1  0  0  0
 17 18  2  0  0  0
 17 38  1  0  0  0
 18 19  1  0  0  0
 18 39  1  0  0  0
 19 20  2  0  0  0
 19 40  1  0  0  0
 20 41  1  0  0  0
 21 22  1  0  0  0
 21 42  1  0  0  0
 21 43  1  0  0  0
 22 27  1  0  0  0
 22 44  1  0  0  0
 27 45  1  0  0  0
 27 46  1  0  0  0
 27 47  1  0  0  0
M  END
> <s_m_entry_id>
318

> <s_m_entry_name>
dock_pv.317

> <s_m_Source_Path>
/home/csk/Desktop/cluster/DUD-E-result/kif11

> <s_m_Source_File>
dock_pv.maegz

> <i_m_Source_File_Index>
317

> <chembl_id>
CHEMBL1082248

> <chembl_pref_name>
None

> <i_lp_mmshare_version>
53161

> <i_f3d_flags>
0

> <r_lp_tautomer_probability>
1

> <s_lp_Force_Field>
OPLS_2005

> <r_lp_Energy>
26.330796

> <b_lp_Chiralities_Consistent>
1

> <s_lp_Variant>
CHEMBL4581_lig372-1

> <s_i_glide_gridfile>
glide-grid_3cjo

> <i_i_glide_lignum>
525

> <i_i_glide_rotatable_bonds>
3

> <r_i_docking_score>
-7.63838377611287

> <r_i_glide_ligand_efficiency>
-0.305535351044515

> <r_i_glide_ligand_efficiency_sa>
-0.893390785146685

> <r_i_glide_ligand_efficiency_ln>
-1.81052585882911

> <r_i_glide_gscore>
-7.63838377611287

> <r_i_glide_lipo>
-4.63593632706728

> <r_i_glide_hbond>
0

> <r_i_glide_metal>
0

> <r_i_glide_rewards>
-1.14476683821632

> <r_i_glide_evdw>
-37.9769096374512

> <r_i_glide_ecoul>
-1.32060694694519

> <r_i_glide_erotb>
0.239255913085066

> <r_i_glide_esite>
0

> <r_i_glide_emodel>
-56.1768283569507

> <r_i_glide_energy>
-39.2975165843964

> <r_i_glide_einternal>
0.907207310199738

> <i_i_glide_confnum>
2

> <i_i_glide_posenum>
32

> <r_i_glide_eff_state_penalty>
0

> <s_user_duplicate_titles>
CHEMBL4581_lig372,615882

> <s_m_subgroup_title>
dock_pv

> <s_m_subgroupid>
dock_pv

> <b_m_subgroup_collapsed>
1

$$$$
CHEMBL4581_lig359
                    3D
 Schrodinger Suite 2021-1.
 64 67  0  0  1  0            999 V2000
   21.5118   15.4610  106.1684 C   0  0  0  0  0  0
   21.9173   14.1800  106.5589 C   0  0  0  0  0  0
   21.3075   13.5621  107.6483 C   0  0  0  0  0  0
   20.4498   16.0793  106.8213 C   0  0  0  0  0  0
   19.8495   15.4944  107.9288 C   0  0  0  0  0  0
   20.2859   14.2217  108.3377 C   0  0  0  0  0  0
   19.7042   13.5670  109.4299 N   0  0  0  0  0  0
   18.5044   14.1195  110.0586 C   0  0  2  0  0  0
   18.7636   16.2504  108.6794 C   0  0  2  0  0  0
   18.5598   15.6755  110.0972 C   0  0  1  0  0  0
   17.3201   16.3465  110.7439 C   0  0  0  0  0  0
   16.1003   16.3924  109.8045 C   0  0  0  0  0  0
   16.4817   16.9117  108.3971 C   0  0  1  0  0  0
   17.5810   16.1571  107.8992 O   0  0  0  0  0  0
   18.3000   13.4989  111.4319 C   0  0  0  0  0  0
   19.1148   13.8812  112.5043 C   0  0  0  0  0  0
   18.8953   13.3257  113.7581 C   0  0  0  0  0  0
   17.8908   12.3827  113.9388 C   0  0  0  0  0  0
   17.1125   11.9624  112.8641 C   0  0  0  0  0  0
   17.3099   12.5292  111.6114 C   0  0  0  0  0  0
   15.3118   16.8499  107.3913 C   0  0  0  0  0  0
   14.8579   15.4912  107.0846 N   0  0  0  0  0  0
   19.4379   15.9823  110.6673 H   0  0  0  0  0  0
   19.0654   17.2969  108.7583 H   0  0  0  0  0  0
   22.2765   16.2299  105.1202 C   0  0  0  0  0  0
   22.7196   15.3920  104.1946 F   0  0  0  0  0  0
   21.5347   17.1641  104.5246 F   0  0  0  0  0  0
   23.2961   16.8223  105.7519 F   0  0  0  0  0  0
   15.4332   14.7113  106.0964 C   0  0  0  0  0  0
   14.8742   13.4964  106.1511 O   0  0  0  0  0  0
   16.3025   15.0590  105.2959 O   0  0  0  0  0  0
   15.3565   12.4160  105.3603 C   0  0  0  0  0  0
   14.2425   11.3567  105.2503 C   0  0  0  0  0  0
   13.3694   11.5333  104.0819 N   0  0  0  0  0  0
   12.6801   12.8234  104.0737 C   0  0  0  0  0  0
   12.3715   10.4675  104.0651 C   0  0  0  0  0  0
   22.7305   13.6785  106.0508 H   0  0  0  0  0  0
   21.6404   12.5843  107.9574 H   0  0  0  0  0  0
   20.1347   17.0707  106.5218 H   0  0  0  0  0  0
   19.8012   12.5664  109.5361 H   0  0  0  0  0  0
   17.6525   13.8221  109.4428 H   0  0  0  0  0  0
   17.5850   17.3719  111.0115 H   0  0  0  0  0  0
   17.0587   15.8694  111.6884 H   0  0  0  0  0  0
   15.3275   17.0263  110.2395 H   0  0  0  0  0  0
   15.6616   15.3971  109.7257 H   0  0  0  0  0  0
   16.7675   17.9647  108.4657 H   0  0  0  0  0  0
   19.9042   14.6055  112.3746 H   0  0  0  0  0  0
   19.5176   13.6199  114.5804 H   0  0  0  0  0  0
   17.7330   11.9622  114.9211 H   0  0  0  0  0  0
   16.3318   11.2263  113.0056 H   0  0  0  0  0  0
   16.6947   12.2120  110.7817 H   0  0  0  0  0  0
   15.6043   17.3563  106.4700 H   0  0  0  0  0  0
   14.4634   17.4133  107.7814 H   0  0  0  0  0  0
   14.1663   15.0595  107.6784 H   0  0  0  0  0  0
   16.2280   11.9881  105.8602 H   0  0  0  0  0  0
   15.6862   12.7384  104.3707 H   0  0  0  0  0  0
   13.6546   11.3467  106.1689 H   0  0  0  0  0  0
   14.7103   10.3734  105.1944 H   0  0  0  0  0  0
   12.0024   12.8938  103.2204 H   0  0  0  0  0  0
   12.0968   12.9752  104.9844 H   0  0  0  0  0  0
   13.3877   13.6467  103.9815 H   0  0  0  0  0  0
   11.7402   10.5385  103.1774 H   0  0  0  0  0  0
   12.8430    9.4836  104.0478 H   0  0  0  0  0  0
   11.7276   10.5157  104.9434 H   0  0  0  0  0  0
  1  4  1  0  0  0
  1 25  1  0  0  0
  1  2  2  0  0  0
  2  3  1  0  0  0
  2 37  1  0  0  0
  3  6  2  0  0  0
  3 38  1  0  0  0
  4  5  2  0  0  0
  4 39  1  0  0  0
  5  6  1  0  0  0
  5  9  1  0  0  0
  6  7  1  0  0  0
  7  8  1  0  0  0
  7 40  1  0  0  0
  8 10  1  0  0  0
  8 15  1  0  0  0
  8 41  1  0  0  0
  9 10  1  0  0  0
  9 24  1  0  0  0
  9 14  1  0  0  0
 10 23  1  0  0  0
 10 11  1  0  0  0
 11 12  1  0  0  0
 11 42  1  0  0  0
 11 43  1  0  0  0
 12 13  1  0  0  0
 12 44  1  0  0  0
 12 45  1  0  0  0
 13 21  1  0  0  0
 13 14  1  0  0  0
 13 46  1  0  0  0
 15 20  1  0  0  0
 15 16  2  0  0  0
 16 17  1  0  0  0
 16 47  1  0  0  0
 17 18  2  0  0  0
 17 48  1  0  0  0
 18 19  1  0  0  0
 18 49  1  0  0  0
 19 20  2  0  0  0
 19 50  1  0  0  0
 20 51  1  0  0  0
 21 22  1  0  0  0
 21 52  1  0  0  0
 21 53  1  0  0  0
 22 29  1  0  0  0
 22 54  1  0  0  0
 25 26  1  0  0  0
 25 27  1  0  0  0
 25 28  1  0  0  0
 29 30  1  0  0  0
 29 31  2  0  0  0
 30 32  1  0  0  0
 32 33  1  0  0  0
 32 55  1  0  0  0
 32 56  1  0  0  0
 33 34  1  0  0  0
 33 57  1  0  0  0
 33 58  1  0  0  0
 34 35  1  0  0  0
 34 36  1  0  0  0
 35 59  1  0  0  0
 35 60  1  0  0  0
 35 61  1  0  0  0
 36 62  1  0  0  0
 36 63  1  0  0  0
 36 64  1  0  0  0
M  END
> <s_m_entry_id>
319

> <s_m_entry_name>
dock_pv.318

> <s_m_Source_Path>
/home/csk/Desktop/cluster/DUD-E-result/kif11

> <s_m_Source_File>
dock_pv.maegz

> <i_m_Source_File_Index>
318

> <chembl_id>
CHEMBL1084676

> <chembl_pref_name>
None

> <i_lp_mmshare_version>
53161

> <i_f3d_flags>
0

> <r_lp_tautomer_probability>
1

> <s_lp_Force_Field>
OPLS_2005

> <r_lp_Energy>
32.510422

> <b_lp_Chiralities_Consistent>
1

> <s_lp_Variant>
CHEMBL4581_lig359-1

> <s_i_glide_gridfile>
glide-grid_3cjo

> <i_i_glide_lignum>
512

> <i_i_glide_rotatable_bonds>
9

> <r_i_docking_score>
-7.63422353160583

> <r_i_glide_ligand_efficiency>
-0.224535986223701

> <r_i_glide_ligand_efficiency_sa>
-0.727409429926744

> <r_i_glide_ligand_efficiency_ln>
-1.68661411084863

> <r_i_glide_gscore>
-7.63422353160583

> <r_i_glide_lipo>
-4.80945097875488

> <r_i_glide_hbond>
-0.0373240810482159

> <r_i_glide_metal>
0

> <r_i_glide_rewards>
-1.08821315950893

> <r_i_glide_evdw>
-39.7571182250977

> <r_i_glide_ecoul>
-2.21648216247559

> <r_i_glide_erotb>
0.62188036375289

> <r_i_glide_esite>
-0.000787440420472186

> <r_i_glide_emodel>
-53.9155609514135

> <r_i_glide_energy>
-41.9736003875732

> <r_i_glide_einternal>
4.54513835906982

> <i_i_glide_confnum>
27

> <i_i_glide_posenum>
384

> <r_i_glide_eff_state_penalty>
0

> <s_user_duplicate_titles>
CHEMBL4581_lig359,615665

> <s_m_subgroup_title>
dock_pv

> <s_m_subgroupid>
dock_pv

> <b_m_subgroup_collapsed>
1

$$$$
CHEMBL4581_lig795
                    3D
 Schrodinger Suite 2021-1.
 57 59  0  0  1  0            999 V2000
   15.0603   13.7614  106.2228 C   0  0  2  0  0  0
   14.7784   14.6671  104.9940 C   0  0  0  0  0  0
   13.7558   15.3535  104.9765 O   0  0  0  0  0  0
   16.2657   14.3047  107.0261 C   0  0  0  0  0  0
   15.2353   12.3629  105.7583 N   0  0  0  0  0  0
   16.4861   13.4906  108.6460 S   0  0  0  0  0  0
   17.7021   14.5311  109.6018 C   0  0  0  0  0  0
   17.9713   13.9285  111.0203 C   0  0  0  0  0  0
   17.2973   12.8002  111.5238 C   0  0  0  0  0  0
   17.5173   12.3621  112.8273 C   0  0  0  0  0  0
   18.4220   13.0298  113.6439 C   0  0  0  0  0  0
   19.1180   14.1308  113.1613 C   0  0  0  0  0  0
   18.8990   14.5698  111.8600 C   0  0  0  0  0  0
   18.9840   14.5311  108.7127 C   0  0  0  0  0  0
   19.1114   15.4264  107.6340 C   0  0  0  0  0  0
   20.1859   15.3512  106.7567 C   0  0  0  0  0  0
   21.1712   14.3955  106.9651 C   0  0  0  0  0  0
   21.1182   13.5621  108.0792 C   0  0  0  0  0  0
   20.0254   13.6165  108.9411 C   0  0  0  0  0  0
   17.1088   15.9461  109.8793 C   0  0  0  0  0  0
   15.7413   16.1145  110.1506 C   0  0  0  0  0  0
   15.2229   17.3694  110.4581 C   0  0  0  0  0  0
   16.0715   18.4713  110.5094 C   0  0  0  0  0  0
   17.4303   18.3243  110.2533 C   0  0  0  0  0  0
   17.9410   17.0754  109.9350 C   0  0  0  0  0  0
   15.6852   14.6549  103.9986 N   0  0  0  0  0  0
   15.5576   15.3535  102.7117 C   0  0  1  0  0  0
   15.7577   16.8925  102.7578 C   0  0  0  0  0  0
   16.5048   14.6601  101.7156 C   0  0  0  0  0  0
   15.9222   17.5536  103.7589 O   0  0  0  0  0  0
   15.6990   17.4165  101.5002 O   0  0  0  0  0  0
   14.1898   13.8215  106.8799 H   0  0  0  0  0  0
   17.1730   14.1539  106.4396 H   0  0  0  0  0  0
   16.1576   15.3758  107.1988 H   0  0  0  0  0  0
   15.5180   11.7476  106.5241 H   0  0  0  0  0  0
   14.3619   11.9835  105.4207 H   0  0  0  0  0  0
   16.5727   12.2529  110.9408 H   0  0  0  0  0  0
   16.9642   11.5176  113.2087 H   0  0  0  0  0  0
   18.5816   12.6894  114.6570 H   0  0  0  0  0  0
   19.8262   14.6461  113.7921 H   0  0  0  0  0  0
   19.4485   15.4288  111.5078 H   0  0  0  0  0  0
   18.3434   16.1572  107.4326 H   0  0  0  0  0  0
   20.2447   16.0221  105.9117 H   0  0  0  0  0  0
   22.0019   14.3217  106.2787 H   0  0  0  0  0  0
   21.9015   12.8373  108.2425 H   0  0  0  0  0  0
   19.9784   12.9059  109.7534 H   0  0  0  0  0  0
   15.0737   15.2672  110.1427 H   0  0  0  0  0  0
   14.1701   17.4872  110.6655 H   0  0  0  0  0  0
   15.6765   19.4440  110.7631 H   0  0  0  0  0  0
   18.1035   19.1622  110.3157 H   0  0  0  0  0  0
   19.0046   16.9912  109.7707 H   0  0  0  0  0  0
   16.4908   14.0535  104.1139 H   0  0  0  0  0  0
   14.5337   15.1968  102.3670 H   0  0  0  0  0  0
   16.3888   15.0529  100.7046 H   0  0  0  0  0  0
   17.5422   14.7927  102.0137 H   0  0  0  0  0  0
   16.3058   13.5894  101.6717 H   0  0  0  0  0  0
   15.7692   18.3725  101.5472 H   0  0  0  0  0  0
  1  5  1  0  0  0
  1  2  1  0  0  0
  1  4  1  0  0  0
  1 32  1  0  0  0
  2  3  2  0  0  0
  2 26  1  0  0  0
  4  6  1  0  0  0
  4 33  1  0  0  0
  4 34  1  0  0  0
  5 35  1  0  0  0
  5 36  1  0  0  0
  6  7  1  0  0  0
  7 14  1  0  0  0
  7 20  1  0  0  0
  7  8  1  0  0  0
  8  9  2  0  0  0
  8 13  1  0  0  0
  9 10  1  0  0  0
  9 37  1  0  0  0
 10 11  2  0  0  0
 10 38  1  0  0  0
 11 12  1  0  0  0
 11 39  1  0  0  0
 12 13  2  0  0  0
 12 40  1  0  0  0
 13 41  1  0  0  0
 14 19  1  0  0  0
 14 15  2  0  0  0
 15 16  1  0  0  0
 15 42  1  0  0  0
 16 17  2  0  0  0
 16 43  1  0  0  0
 17 18  1  0  0  0
 17 44  1  0  0  0
 18 19  2  0  0  0
 18 45  1  0  0  0
 19 46  1  0  0  0
 20 21  2  0  0  0
 20 25  1  0  0  0
 21 22  1  0  0  0
 21 47  1  0  0  0
 22 23  2  0  0  0
 22 48  1  0  0  0
 23 24  1  0  0  0
 23 49  1  0  0  0
 24 25  2  0  0  0
 24 50  1  0  0  0
 25 51  1  0  0  0
 26 27  1  0  0  0
 26 52  1  0  0  0
 27 28  1  0  0  0
 27 29  1  0  0  0
 27 53  1  0  0  0
 28 30  2  0  0  0
 28 31  1  0  0  0
 29 54  1  0  0  0
 29 55  1  0  0  0
 29 56  1  0  0  0
 31 57  1  0  0  0
M  END
> <s_m_entry_id>
321

> <s_m_entry_name>
dock_pv.320

> <s_m_Source_Path>
/home/csk/Desktop/cluster/DUD-E-result/kif11

> <s_m_Source_File>
dock_pv.maegz

> <i_m_Source_File_Index>
320

> <chembl_id>
CHEMBL410315

> <chembl_pref_name>
None

> <i_lp_mmshare_version>
53161

> <i_f3d_flags>
0

> <r_lp_tautomer_probability>
1

> <s_lp_Force_Field>
OPLS_2005

> <r_lp_Energy>
22.115358

> <b_lp_Chiralities_Consistent>
1

> <s_lp_Variant>
CHEMBL4581_lig795-2

> <s_i_glide_gridfile>
glide-grid_3cjo

> <i_i_glide_lignum>
1179

> <i_i_glide_rotatable_bonds>
11

> <r_i_docking_score>
-7.62450065247701

> <r_i_glide_ligand_efficiency>
-0.245951633950871

> <r_i_glide_ligand_efficiency_sa>
-0.772627703432919

> <r_i_glide_ligand_efficiency_ln>
-1.71955856001671

> <r_i_glide_gscore>
-7.62450065247701

> <r_i_glide_lipo>
-4.6515589170322

> <r_i_glide_hbond>
-0.32

> <r_i_glide_metal>
0

> <r_i_glide_rewards>
-0.690480607421654

> <r_i_glide_evdw>
-47.6826705932617

> <r_i_glide_ecoul>
-4.14683771133423

> <r_i_glide_erotb>
1.05471520262921

> <r_i_glide_esite>
-0.0110171442891402

> <r_i_glide_emodel>
-72.388241313744

> <r_i_glide_energy>
-51.8295083045959

> <r_i_glide_einternal>
11.0420036315918

> <i_i_glide_confnum>
49

> <i_i_glide_posenum>
370

> <r_i_glide_eff_state_penalty>
0

> <s_user_duplicate_titles>
CHEMBL4581_lig795

> <s_m_subgroup_title>
dock_pv

> <s_m_subgroupid>
dock_pv

> <b_m_subgroup_collapsed>
1

$$$$
CHEMBL4581_lig75
                    3D
 Schrodinger Suite 2021-1.
 42 44  0  0  1  0            999 V2000
   20.2586   16.1063  105.7591 C   0  0  0  0  0  0
   21.2081   15.2252  106.2586 C   0  0  0  0  0  0
   20.8563   14.3434  107.2872 C   0  0  0  0  0  0
   18.9628   16.0842  106.2579 C   0  0  0  0  0  0
   18.6040   15.2416  107.3117 C   0  0  0  0  0  0
   19.5678   14.3623  107.8465 C   0  0  0  0  0  0
   19.1867   13.3766  108.9683 C   0  0  0  0  0  0
   17.8319   13.6074  109.5065 N   0  0  0  0  0  0
   16.8246   13.8957  108.4725 C   0  0  0  0  0  0
   17.1972   15.2976  107.9215 C   0  0  1  0  0  0
   17.0268   16.4133  108.9733 C   0  0  0  0  0  0
   15.8113   16.5316  109.6612 C   0  0  0  0  0  0
   15.6494   17.4953  110.6544 C   0  0  0  0  0  0
   16.6922   18.3630  110.9592 C   0  0  0  0  0  0
   17.9044   18.2638  110.2873 C   0  0  0  0  0  0
   18.0691   17.2974  109.2998 C   0  0  0  0  0  0
   17.4420   13.2230  110.7548 C   0  0  0  0  0  0
   16.3181   12.7613  110.9549 O   0  0  0  0  0  0
   18.3090   13.3842  111.7901 N   0  0  0  0  0  0
   19.3166   14.4457  111.8649 C   0  0  0  0  0  0
   18.1690   12.6144  113.0314 C   0  0  0  0  0  0
   14.4769   17.5851  111.3479 O   0  0  0  0  0  0
   21.9991   13.1623  107.8430 Cl  0  0  0  0  0  0
   22.7972   15.2356  105.5714 Cl  0  0  0  0  0  0
   20.5171   16.7850  104.9591 H   0  0  0  0  0  0
   18.2237   16.7444  105.8337 H   0  0  0  0  0  0
   19.1953   12.3674  108.5606 H   0  0  0  0  0  0
   19.9537   13.3819  109.7392 H   0  0  0  0  0  0
   15.8023   13.8656  108.8514 H   0  0  0  0  0  0
   16.8798   13.1371  107.6898 H   0  0  0  0  0  0
   16.4938   15.5476  107.1255 H   0  0  0  0  0  0
   14.9899   15.8667  109.4405 H   0  0  0  0  0  0
   16.5774   19.1110  111.7306 H   0  0  0  0  0  0
   18.7168   18.9310  110.5380 H   0  0  0  0  0  0
   19.0282   17.2469  108.8060 H   0  0  0  0  0  0
   19.2120   15.1812  111.0660 H   0  0  0  0  0  0
   19.2443   14.9836  112.8106 H   0  0  0  0  0  0
   20.3074   14.0036  111.7840 H   0  0  0  0  0  0
   17.4501   11.7967  112.9418 H   0  0  0  0  0  0
   19.1200   12.1751  113.3235 H   0  0  0  0  0  0
   17.8352   13.2633  113.8422 H   0  0  0  0  0  0
   14.5097   18.2977  111.9921 H   0  0  0  0  0  0
  1  2  2  0  0  0
  1  4  1  0  0  0
  1 25  1  0  0  0
  2  3  1  0  0  0
  2 24  1  0  0  0
  3  6  2  0  0  0
  3 23  1  0  0  0
  4  5  2  0  0  0
  4 26  1  0  0  0
  5 10  1  0  0  0
  5  6  1  0  0  0
  6  7  1  0  0  0
  7  8  1  0  0  0
  7 27  1  0  0  0
  7 28  1  0  0  0
  8 17  1  0  0  0
  8  9  1  0  0  0
  9 10  1  0  0  0
  9 29  1  0  0  0
  9 30  1  0  0  0
 10 11  1  0  0  0
 10 31  1  0  0  0
 11 12  2  0  0  0
 11 16  1  0  0  0
 12 13  1  0  0  0
 12 32  1  0  0  0
 13 14  2  0  0  0
 13 22  1  0  0  0
 14 15  1  0  0  0
 14 33  1  0  0  0
 15 16  2  0  0  0
 15 34  1  0  0  0
 16 35  1  0  0  0
 17 18  2  0  0  0
 17 19  1  0  0  0
 19 20  1  0  0  0
 19 21  1  0  0  0
 20 36  1  0  0  0
 20 37  1  0  0  0
 20 38  1  0  0  0
 21 39  1  0  0  0
 21 40  1  0  0  0
 21 41  1  0  0  0
 22 42  1  0  0  0
M  END
> <s_m_entry_id>
322

> <s_m_entry_name>
dock_pv.321

> <s_m_Source_Path>
/home/csk/Desktop/cluster/DUD-E-result/kif11

> <s_m_Source_File>
dock_pv.maegz

> <i_m_Source_File_Index>
321

> <chembl_id>
CHEMBL377073

> <chembl_pref_name>
None

> <i_lp_mmshare_version>
53161

> <i_f3d_flags>
0

> <r_lp_tautomer_probability>
0.999999999997365

> <s_lp_Force_Field>
OPLS_2005

> <r_lp_Energy>
50.90319

> <b_lp_Chiralities_Consistent>
1

> <s_lp_Variant>
CHEMBL4581_lig75-2

> <s_i_glide_gridfile>
glide-grid_3cjo

> <i_i_glide_lignum>
116

> <i_i_glide_rotatable_bonds>
4

> <r_i_docking_score>
-7.62236812690097

> <r_i_glide_ligand_efficiency>
-0.317598671954207

> <r_i_glide_ligand_efficiency_sa>
-0.916113095341832

> <r_i_glide_ligand_efficiency_ln>
-1.82438246044958

> <r_i_glide_gscore>
-7.62236812690097

> <r_i_glide_lipo>
-4.07267161704677

> <r_i_glide_hbond>
-0.0995186381979348

> <r_i_glide_metal>
0

> <r_i_glide_rewards>
-1.47313122087627

> <r_i_glide_evdw>
-38.7687568664551

> <r_i_glide_ecoul>
-2.17969393730164

> <r_i_glide_erotb>
0.288345283138005

> <r_i_glide_esite>
0

> <r_i_glide_emodel>
-57.8768056532174

> <r_i_glide_energy>
-40.9484508037567

> <r_i_glide_einternal>
1.49811005592346

> <i_i_glide_confnum>
42

> <i_i_glide_posenum>
195

> <r_i_glide_eff_state_penalty>
0

> <s_user_duplicate_titles>
CHEMBL4581_lig75

> <s_m_subgroup_title>
dock_pv

> <s_m_subgroupid>
dock_pv

> <b_m_subgroup_collapsed>
1

$$$$
CHEMBL4581_lig835
                    3D
 Schrodinger Suite 2021-1.
 46 48  0  0  1  0            999 V2000
   16.8749   13.2038  106.3955 C   0  0  0  0  0  0
   16.7179   13.9628  105.1745 N   0  0  0  0  0  0
   16.0945   13.8567  107.5438 C   0  0  0  0  0  0
   16.6143   13.4423  108.9440 C   0  0  0  0  0  0
   17.6113   14.4228  109.6907 C   0  0  0  0  0  0
   16.9740   15.8414  109.8910 C   0  0  0  0  0  0
   17.9234   13.8948  111.1294 C   0  0  0  0  0  0
   18.9003   14.4584  108.8005 C   0  0  0  0  0  0
   17.7806   16.9880  110.0155 C   0  0  0  0  0  0
   17.2182   18.2522  110.1814 C   0  0  0  0  0  0
   15.8345   18.3899  110.2259 C   0  0  0  0  0  0
   15.0160   17.2722  110.1260 C   0  0  0  0  0  0
   15.5814   16.0117  109.9632 C   0  0  0  0  0  0
   19.9703   13.5777  109.0300 C   0  0  0  0  0  0
   21.0819   13.5620  108.1888 C   0  0  0  0  0  0
   21.1131   14.3912  107.0722 C   0  0  0  0  0  0
   20.0835   15.2955  106.8412 C   0  0  0  0  0  0
   18.9916   15.3333  107.7042 C   0  0  0  0  0  0
   18.8599   14.5731  111.9279 C   0  0  0  0  0  0
   19.1185   14.1658  113.2316 C   0  0  0  0  0  0
   18.4528   13.0657  113.7589 C   0  0  0  0  0  0
   17.5390   12.3633  112.9839 C   0  0  0  0  0  0
   17.2879   12.7638  111.6769 C   0  0  0  0  0  0
   15.1180   19.9509  110.3974 Cl  0  0  0  0  0  0
   17.9382   13.1610  106.6182 H   0  0  0  0  0  0
   16.5644   12.1715  106.2355 H   0  0  0  0  0  0
   17.0277   14.9087  105.3415 H   0  0  0  0  0  0
   17.4135   13.5589  104.5445 H   0  0  0  0  0  0
   15.0483   13.5637  107.4386 H   0  0  0  0  0  0
   16.0999   14.9444  107.4518 H   0  0  0  0  0  0
   17.0716   12.4512  108.8677 H   0  0  0  0  0  0
   15.7259   13.2745  109.5515 H   0  0  0  0  0  0
   18.8574   16.9145  109.9770 H   0  0  0  0  0  0
   17.8541   19.1213  110.2673 H   0  0  0  0  0  0
   13.9427   17.3834  110.1666 H   0  0  0  0  0  0
   14.9052   15.1793  109.8860 H   0  0  0  0  0  0
   19.9381   12.8775  109.8483 H   0  0  0  0  0  0
   21.8926   12.8737  108.3731 H   0  0  0  0  0  0
   21.9573   14.3532  106.3981 H   0  0  0  0  0  0
   20.1242   15.9541  105.9879 H   0  0  0  0  0  0
   18.1942   16.0214  107.4819 H   0  0  0  0  0  0
   19.3949   15.4262  111.5428 H   0  0  0  0  0  0
   19.8372   14.7022  113.8314 H   0  0  0  0  0  0
   18.6496   12.7512  114.7742 H   0  0  0  0  0  0
   17.0104   11.5176  113.3938 H   0  0  0  0  0  0
   16.5738   12.1720  111.1306 H   0  0  0  0  0  0
  1  2  1  0  0  0
  1  3  1  0  0  0
  1 25  1  0  0  0
  1 26  1  0  0  0
  2 27  1  0  0  0
  2 28  1  0  0  0
  3  4  1  0  0  0
  3 29  1  0  0  0
  3 30  1  0  0  0
  4  5  1  0  0  0
  4 31  1  0  0  0
  4 32  1  0  0  0
  5  7  1  0  0  0
  5  8  1  0  0  0
  5  6  1  0  0  0
  6 13  1  0  0  0
  6  9  2  0  0  0
  7 19  2  0  0  0
  7 23  1  0  0  0
  8 14  2  0  0  0
  8 18  1  0  0  0
  9 10  1  0  0  0
  9 33  1  0  0  0
 10 11  2  0  0  0
 10 34  1  0  0  0
 11 12  1  0  0  0
 11 24  1  0  0  0
 12 13  2  0  0  0
 12 35  1  0  0  0
 13 36  1  0  0  0
 14 15  1  0  0  0
 14 37  1  0  0  0
 15 16  2  0  0  0
 15 38  1  0  0  0
 16 17  1  0  0  0
 16 39  1  0  0  0
 17 18  2  0  0  0
 17 40  1  0  0  0
 18 41  1  0  0  0
 19 20  1  0  0  0
 19 42  1  0  0  0
 20 21  2  0  0  0
 20 43  1  0  0  0
 21 22  1  0  0  0
 21 44  1  0  0  0
 22 23  2  0  0  0
 22 45  1  0  0  0
 23 46  1  0  0  0
M  END
> <s_m_entry_id>
323

> <s_m_entry_name>
dock_pv.322

> <s_m_Source_Path>
/home/csk/Desktop/cluster/DUD-E-result/kif11

> <s_m_Source_File>
dock_pv.maegz

> <i_m_Source_File_Index>
322

> <chembl_id>
CHEMBL2022998

> <chembl_pref_name>
None

> <i_lp_mmshare_version>
53161

> <i_f3d_flags>
0

> <r_lp_tautomer_probability>
1

> <s_lp_Force_Field>
OPLS_2005

> <r_lp_Energy>
29.054514

> <b_lp_Chiralities_Consistent>
1

> <s_lp_Variant>
CHEMBL4581_lig835-1

> <s_i_glide_gridfile>
glide-grid_3cjo

> <i_i_glide_lignum>
1222

> <i_i_glide_rotatable_bonds>
6

> <r_i_docking_score>
-7.62215279607508

> <r_i_glide_ligand_efficiency>
-0.317589699836462

> <r_i_glide_ligand_efficiency_sa>
-0.916087215275933

> <r_i_glide_ligand_efficiency_ln>
-1.82433092190206

> <r_i_glide_gscore>
-7.62215279607508

> <r_i_glide_lipo>
-4.67442816821804

> <r_i_glide_hbond>
-0.16

> <r_i_glide_metal>
0

> <r_i_glide_rewards>
-1.23573839393939

> <r_i_glide_evdw>
-38.6211242675781

> <r_i_glide_ecoul>
-3.05137181282043

> <r_i_glide_erotb>
0.836775751384324

> <r_i_glide_esite>
0

> <r_i_glide_emodel>
-59.8049721744001

> <r_i_glide_energy>
-41.6724960803986

> <r_i_glide_einternal>
2.27895188331604

> <i_i_glide_confnum>
75

> <i_i_glide_posenum>
179

> <r_i_glide_eff_state_penalty>
0

> <s_user_duplicate_titles>
CHEMBL4581_lig835

> <s_m_subgroup_title>
dock_pv

> <s_m_subgroupid>
dock_pv

> <b_m_subgroup_collapsed>
1

$$$$
CHEMBL4581_lig591
                    3D
 Schrodinger Suite 2021-1.
 47 49  0  0  1  0            999 V2000
   18.5355   15.0683  108.0170 C   0  0  0  0  0  0
   17.1748   14.9104  108.7501 C   0  0  1  0  0  0
   16.7468   16.1929  109.5233 C   0  0  0  0  0  0
   15.4211   16.3341  109.9632 C   0  0  0  0  0  0
   15.0102   17.4753  110.6456 C   0  0  0  0  0  0
   15.9269   18.4878  110.9056 C   0  0  0  0  0  0
   17.2499   18.3650  110.4970 C   0  0  0  0  0  0
   17.6550   17.2292  109.8076 C   0  0  0  0  0  0
   15.9378   14.6081  107.4084 S   0  0  0  0  0  0
   16.6089   13.1728  106.5041 C   0  0  0  0  0  0
   15.7613   12.6764  105.3261 C   0  0  0  0  0  0
   17.0911   13.6688  109.7168 C   0  0  0  0  0  0
   17.8059   13.6725  111.0754 C   0  0  0  0  0  0
   17.3999   12.7212  112.0175 C   0  0  0  0  0  0
   17.9849   12.6804  113.2783 C   0  0  0  0  0  0
   19.0093   13.5666  113.5883 C   0  0  0  0  0  0
   19.4388   14.5077  112.6569 C   0  0  0  0  0  0
   18.8405   14.5588  111.4015 C   0  0  0  0  0  0
   15.9181   13.5625  104.1864 N   0  0  0  0  0  0
   19.6088   14.1912  108.2108 C   0  0  0  0  0  0
   19.8731   16.2479  106.3494 C   0  0  0  0  0  0
   18.6902   16.0899  107.0670 C   0  0  0  0  0  0
   20.9261   15.3604  106.5471 C   0  0  0  0  0  0
   20.7832   14.3231  107.4747 C   0  0  0  0  0  0
   22.0335   13.1621  107.7267 Cl  0  0  0  0  0  0
   22.3795   15.5643  105.6307 Cl  0  0  0  0  0  0
   14.6966   15.5588  109.7637 H   0  0  0  0  0  0
   13.9847   17.5761  110.9693 H   0  0  0  0  0  0
   15.6122   19.3759  111.4339 H   0  0  0  0  0  0
   17.9592   19.1535  110.7070 H   0  0  0  0  0  0
   18.6907   17.1738  109.5081 H   0  0  0  0  0  0
   17.6195   13.3921  106.1590 H   0  0  0  0  0  0
   16.7156   12.3618  107.2145 H   0  0  0  0  0  0
   16.0906   11.6773  105.0370 H   0  0  0  0  0  0
   14.7103   12.5973  105.6081 H   0  0  0  0  0  0
   16.0354   13.4997  109.9390 H   0  0  0  0  0  0
   17.4119   12.7600  109.2103 H   0  0  0  0  0  0
   16.6108   12.0198  111.7813 H   0  0  0  0  0  0
   17.6506   11.9639  114.0126 H   0  0  0  0  0  0
   19.4806   13.5186  114.5577 H   0  0  0  0  0  0
   20.2417   15.1868  112.9034 H   0  0  0  0  0  0
   19.2018   15.2858  110.6940 H   0  0  0  0  0  0
   16.9035   13.5600  103.9387 H   0  0  0  0  0  0
   15.4173   13.1924  103.3920 H   0  0  0  0  0  0
   19.5424   13.3714  108.9091 H   0  0  0  0  0  0
   19.9652   17.0524  105.6345 H   0  0  0  0  0  0
   17.8665   16.7618  106.8821 H   0  0  0  0  0  0
  1 20  2  0  0  0
  1  2  1  0  0  0
  1 22  1  0  0  0
  2  9  1  0  0  0
  2  3  1  0  0  0
  2 12  1  0  0  0
  3  4  2  0  0  0
  3  8  1  0  0  0
  4  5  1  0  0  0
  4 27  1  0  0  0
  5  6  2  0  0  0
  5 28  1  0  0  0
  6  7  1  0  0  0
  6 29  1  0  0  0
  7  8  2  0  0  0
  7 30  1  0  0  0
  8 31  1  0  0  0
  9 10  1  0  0  0
 10 11  1  0  0  0
 10 32  1  0  0  0
 10 33  1  0  0  0
 11 19  1  0  0  0
 11 34  1  0  0  0
 11 35  1  0  0  0
 12 13  1  0  0  0
 12 36  1  0  0  0
 12 37  1  0  0  0
 13 14  2  0  0  0
 13 18  1  0  0  0
 14 15  1  0  0  0
 14 38  1  0  0  0
 15 16  2  0  0  0
 15 39  1  0  0  0
 16 17  1  0  0  0
 16 40  1  0  0  0
 17 18  2  0  0  0
 17 41  1  0  0  0
 18 42  1  0  0  0
 19 43  1  0  0  0
 19 44  1  0  0  0
 20 24  1  0  0  0
 20 45  1  0  0  0
 21 23  1  0  0  0
 21 22  2  0  0  0
 21 46  1  0  0  0
 22 47  1  0  0  0
 23 24  2  0  0  0
 23 26  1  0  0  0
 24 25  1  0  0  0
M  END
> <s_m_entry_id>
324

> <s_m_entry_name>
dock_pv.323

> <s_m_Source_Path>
/home/csk/Desktop/cluster/DUD-E-result/kif11

> <s_m_Source_File>
dock_pv.maegz

> <i_m_Source_File_Index>
323

> <chembl_id>
CHEMBL2043411

> <chembl_pref_name>
None

> <i_lp_mmshare_version>
53161

> <i_f3d_flags>
0

> <r_lp_tautomer_probability>
1

> <s_lp_Force_Field>
OPLS_2005

> <r_lp_Energy>
24.29745

> <b_lp_Chiralities_Consistent>
1

> <s_lp_Variant>
CHEMBL4581_lig591-1

> <s_i_glide_gridfile>
glide-grid_3cjo

> <i_i_glide_lignum>
906

> <i_i_glide_rotatable_bonds>
7

> <r_i_docking_score>
-7.62106469079683

> <r_i_glide_ligand_efficiency>
-0.293117872722955

> <r_i_glide_ligand_efficiency_sa>
-0.868360544578619

> <r_i_glide_ligand_efficiency_ln>
-1.78978203588074

> <r_i_glide_gscore>
-7.62106469079683

> <r_i_glide_lipo>
-4.99957131850343

> <r_i_glide_hbond>
-0.0724658791045524

> <r_i_glide_metal>
0

> <r_i_glide_rewards>
-0.757979485603165

> <r_i_glide_evdw>
-43.6152267456055

> <r_i_glide_ecoul>
-2.2498471736908

> <r_i_glide_erotb>
0.727190405748205

> <r_i_glide_esite>
0

> <r_i_glide_emodel>
-65.9333681008154

> <r_i_glide_energy>
-45.8650739192963

> <r_i_glide_einternal>
3.71748852729797

> <i_i_glide_confnum>
20

> <i_i_glide_posenum>
63

> <r_i_glide_eff_state_penalty>
0

> <s_user_duplicate_titles>
CHEMBL4581_lig591

> <s_m_subgroup_title>
dock_pv

> <s_m_subgroupid>
dock_pv

> <b_m_subgroup_collapsed>
1

$$$$
CHEMBL4581_lig559
                    3D
 Schrodinger Suite 2021-1.
 65 68  0  0  1  0            999 V2000
   16.1866   17.0222  107.3141 N   0  0  0  0  0  0
   16.7976   15.9795  106.8509 C   0  0  0  0  0  0
   18.0532   15.5911  107.3598 N   0  0  0  0  0  0
   18.5863   16.0266  108.5694 C   0  0  0  0  0  0
   16.6748   17.5892  108.4507 C   0  0  0  0  0  0
   17.8467   17.1612  109.0695 C   0  0  0  0  0  0
   18.1648   17.9619  110.5617 S   0  0  0  0  0  0
   16.6376   18.7625  110.4413 C   0  0  0  0  0  0
   15.9948   18.5247  109.2342 C   0  0  0  0  0  0
   19.5180   15.4681  109.1526 O   0  0  0  0  0  0
   16.0486   15.1173  105.7876 C   0  0  1  0  0  0
   14.6309   14.7234  106.1832 N   0  0  0  0  0  0
   16.1795   15.7707  104.3725 C   0  0  0  0  0  0
   14.2221   14.2055  107.3928 C   0  0  0  0  0  0
   15.1585   14.1671  108.5582 C   0  0  0  0  0  0
   13.0706   13.8238  107.6241 O   0  0  0  0  0  0
   13.6494   14.5122  105.0819 C   0  0  0  0  0  0
   13.4162   13.0391  104.6506 C   0  0  0  0  0  0
   18.9101   14.5796  106.6943 C   0  0  0  0  0  0
   20.3463   15.0159  106.3630 C   0  0  0  0  0  0
   21.3942   14.1116  106.5558 C   0  0  0  0  0  0
   22.6780   14.4337  106.1315 C   0  0  0  0  0  0
   22.9327   15.7077  105.6409 C   0  0  0  0  0  0
   21.9128   16.6462  105.5128 C   0  0  0  0  0  0
   20.6140   16.2962  105.8643 C   0  0  0  0  0  0
   17.5638   16.2936  103.9697 C   0  0  0  0  0  0
   14.6553   12.2359  104.2342 C   0  0  0  0  0  0
   15.5429   11.9626  105.3529 N   0  0  0  0  0  0
   15.0435   15.1890  109.4862 C   0  0  0  0  0  0
   15.9053   15.2364  110.5608 C   0  0  0  0  0  0
   16.8177   14.2212  110.7982 C   0  0  0  0  0  0
   16.9267   13.1695  109.8758 C   0  0  0  0  0  0
   16.1161   13.1614  108.7377 C   0  0  0  0  0  0
   17.5316   14.3682  111.9693 O   0  0  0  0  0  0
   18.6227   13.5131  112.2505 C   0  0  0  0  0  0
   19.2077   13.9626  113.3600 F   0  0  0  0  0  0
   19.5181   13.5621  111.2681 F   0  0  0  0  0  0
   18.2113   12.2658  112.4806 F   0  0  0  0  0  0
   16.3138   19.4081  111.2447 H   0  0  0  0  0  0
   15.0441   18.9567  108.9587 H   0  0  0  0  0  0
   16.5486   14.1582  105.7056 H   0  0  0  0  0  0
   15.9084   15.0286  103.6212 H   0  0  0  0  0  0
   15.4670   16.5928  104.2803 H   0  0  0  0  0  0
   12.6871   14.9222  105.3979 H   0  0  0  0  0  0
   13.8952   15.0936  104.1990 H   0  0  0  0  0  0
   12.8800   12.4941  105.4277 H   0  0  0  0  0  0
   12.7258   13.0533  103.8074 H   0  0  0  0  0  0
   18.9360   13.6970  107.3371 H   0  0  0  0  0  0
   18.4870   14.2293  105.7600 H   0  0  0  0  0  0
   21.2043   13.1376  106.9694 H   0  0  0  0  0  0
   23.4734   13.7071  106.1705 H   0  0  0  0  0  0
   23.9374   15.9683  105.3595 H   0  0  0  0  0  0
   22.1244   17.6290  105.1233 H   0  0  0  0  0  0
   19.8225   17.0200  105.7460 H   0  0  0  0  0  0
   17.5806   16.5840  102.9196 H   0  0  0  0  0  0
   17.8445   17.1616  104.5584 H   0  0  0  0  0  0
   18.3170   15.5317  104.1402 H   0  0  0  0  0  0
   14.3175   11.2886  103.8134 H   0  0  0  0  0  0
   15.2039   12.7617  103.4522 H   0  0  0  0  0  0
   15.1217   11.3488  106.0462 H   0  0  0  0  0  0
   16.3889   11.5041  105.0433 H   0  0  0  0  0  0
   14.3142   15.9772  109.3586 H   0  0  0  0  0  0
   15.8300   16.0587  111.2564 H   0  0  0  0  0  0
   17.6325   12.3648  110.0165 H   0  0  0  0  0  0
   16.2258   12.3646  108.0184 H   0  0  0  0  0  0
  1  5  1  0  0  0
  1  2  2  0  0  0
  2 11  1  0  0  0
  2  3  1  0  0  0
  3 19  1  0  0  0
  3  4  1  0  0  0
  4 10  2  0  0  0
  4  6  1  0  0  0
  5  9  1  0  0  0
  5  6  2  0  0  0
  6  7  1  0  0  0
  7  8  1  0  0  0
  8  9  2  0  0  0
  8 39  1  0  0  0
  9 40  1  0  0  0
 11 12  1  0  0  0
 11 13  1  0  0  0
 11 41  1  0  0  0
 12 14  1  0  0  0
 12 17  1  0  0  0
 13 26  1  0  0  0
 13 42  1  0  0  0
 13 43  1  0  0  0
 14 15  1  0  0  0
 14 16  2  0  0  0
 15 29  2  0  0  0
 15 33  1  0  0  0
 17 18  1  0  0  0
 17 44  1  0  0  0
 17 45  1  0  0  0
 18 27  1  0  0  0
 18 46  1  0  0  0
 18 47  1  0  0  0
 19 20  1  0  0  0
 19 48  1  0  0  0
 19 49  1  0  0  0
 20 21  2  0  0  0
 20 25  1  0  0  0
 21 22  1  0  0  0
 21 50  1  0  0  0
 22 23  2  0  0  0
 22 51  1  0  0  0
 23 24  1  0  0  0
 23 52  1  0  0  0
 24 25  2  0  0  0
 24 53  1  0  0  0
 25 54  1  0  0  0
 26 55  1  0  0  0
 26 56  1  0  0  0
 26 57  1  0  0  0
 27 28  1  0  0  0
 27 58  1  0  0  0
 27 59  1  0  0  0
 28 60  1  0  0  0
 28 61  1  0  0  0
 29 30  1  0  0  0
 29 62  1  0  0  0
 30 31  2  0  0  0
 30 63  1  0  0  0
 31 32  1  0  0  0
 31 34  1  0  0  0
 32 33  2  0  0  0
 32 64  1  0  0  0
 33 65  1  0  0  0
 34 35  1  0  0  0
 35 36  1  0  0  0
 35 37  1  0  0  0
 35 38  1  0  0  0
M  END
> <s_m_entry_id>
325

> <s_m_entry_name>
dock_pv.324

> <s_m_Source_Path>
/home/csk/Desktop/cluster/DUD-E-result/kif11

> <s_m_Source_File>
dock_pv.maegz

> <i_m_Source_File_Index>
324

> <chembl_id>
CHEMBL1829404

> <chembl_pref_name>
None

> <i_lp_mmshare_version>
53161

> <i_f3d_flags>
0

> <r_lp_tautomer_probability>
1

> <s_lp_Force_Field>
OPLS_2005

> <r_lp_Energy>
58.782208

> <b_lp_Chiralities_Consistent>
1

> <s_lp_Variant>
CHEMBL4581_lig559-2

> <s_i_glide_gridfile>
glide-grid_3cjo

> <i_i_glide_lignum>
847

> <i_i_glide_rotatable_bonds>
12

> <r_i_docking_score>
-7.61330363554263

> <r_i_glide_ligand_efficiency>
-0.200350095672174

> <r_i_glide_ligand_efficiency_sa>
-0.673572093582944

> <r_i_glide_ligand_efficiency_ln>
-1.64165222452531

> <r_i_glide_gscore>
-7.61330363554263

> <r_i_glide_lipo>
-3.86058465396364

> <r_i_glide_hbond>
-0.255338448180922

> <r_i_glide_metal>
0

> <r_i_glide_rewards>
-1.38689731822073

> <r_i_glide_evdw>
-40.321964263916

> <r_i_glide_ecoul>
-4.81683015823364

> <r_i_glide_erotb>
0.628139521753516

> <r_i_glide_esite>
0

> <r_i_glide_emodel>
-42.8704912007639

> <r_i_glide_energy>
-45.1387944221497

> <r_i_glide_einternal>
9.57741641998291

> <i_i_glide_confnum>
156

> <i_i_glide_posenum>
13

> <r_i_glide_eff_state_penalty>
0

> <s_user_duplicate_titles>
CHEMBL4581_lig559

> <s_m_subgroup_title>
dock_pv

> <s_m_subgroupid>
dock_pv

> <b_m_subgroup_collapsed>
1

$$$$
CHEMBL4581_lig80
                    3D
 Schrodinger Suite 2021-1.
 45 47  0  0  1  0            999 V2000
   19.9336   16.0036  105.8113 C   0  0  0  0  0  0
   21.0667   15.2725  106.1609 C   0  0  0  0  0  0
   21.0181   14.4308  107.2714 C   0  0  0  0  0  0
   18.7630   15.8652  106.5523 C   0  0  0  0  0  0
   18.7070   15.0305  107.6745 C   0  0  0  0  0  0
   19.8692   14.3295  108.0615 C   0  0  0  0  0  0
   19.8726   13.4082  109.2841 C   0  0  0  0  0  0
   18.6527   13.5335  110.0967 N   0  0  0  0  0  0
   17.4031   13.5813  109.3187 C   0  0  0  0  0  0
   17.4141   14.8981  108.4953 C   0  0  1  0  0  0
   17.0935   16.1270  109.3597 C   0  0  0  0  0  0
   15.7731   16.3585  109.7624 C   0  0  0  0  0  0
   15.4595   17.4590  110.5588 C   0  0  0  0  0  0
   16.4600   18.3436  110.9561 C   0  0  0  0  0  0
   17.7775   18.1276  110.5591 C   0  0  0  0  0  0
   18.0897   17.0281  109.7638 C   0  0  0  0  0  0
   18.7179   13.9475  111.3910 C   0  0  0  0  0  0
   19.5659   14.7616  111.7587 O   0  0  0  0  0  0
   17.8438   13.3953  112.2768 N   0  0  0  0  0  0
   17.7489   13.8887  113.6538 C   0  0  0  0  0  0
   17.1105   12.1445  112.0541 C   0  0  0  0  0  0
   14.1693   17.6675  110.9586 O   0  0  0  0  0  0
   22.3434   15.3789  105.3469 C   0  0  0  0  0  0
   19.9507   16.6655  104.9585 H   0  0  0  0  0  0
   21.8954   13.8596  107.5384 H   0  0  0  0  0  0
   17.8819   16.4141  106.2564 H   0  0  0  0  0  0
   19.9208   12.3765  108.9349 H   0  0  0  0  0  0
   20.7745   13.5611  109.8779 H   0  0  0  0  0  0
   17.3967   12.7160  108.6534 H   0  0  0  0  0  0
   16.5069   13.4481  109.9231 H   0  0  0  0  0  0
   16.5970   14.8373  107.7739 H   0  0  0  0  0  0
   14.9866   15.6813  109.4637 H   0  0  0  0  0  0
   16.2279   19.1939  111.5797 H   0  0  0  0  0  0
   18.5581   18.8059  110.8730 H   0  0  0  0  0  0
   19.1177   16.8747  109.4773 H   0  0  0  0  0  0
   18.1584   14.8936  113.7588 H   0  0  0  0  0  0
   16.7181   13.9191  113.9947 H   0  0  0  0  0  0
   18.2984   13.2273  114.3253 H   0  0  0  0  0  0
   17.5537   11.5334  111.2669 H   0  0  0  0  0  0
   17.0932   11.5436  112.9628 H   0  0  0  0  0  0
   16.0822   12.3598  111.7638 H   0  0  0  0  0  0
   14.0821   18.4703  111.4778 H   0  0  0  0  0  0
   23.1651   15.7243  105.9748 H   0  0  0  0  0  0
   22.6205   14.3981  104.9579 H   0  0  0  0  0  0
   22.2423   16.0653  104.5058 H   0  0  0  0  0  0
  1  2  2  0  0  0
  1  4  1  0  0  0
  1 24  1  0  0  0
  2  3  1  0  0  0
  2 23  1  0  0  0
  3  6  2  0  0  0
  3 25  1  0  0  0
  4  5  2  0  0  0
  4 26  1  0  0  0
  5 10  1  0  0  0
  5  6  1  0  0  0
  6  7  1  0  0  0
  7  8  1  0  0  0
  7 27  1  0  0  0
  7 28  1  0  0  0
  8 17  1  0  0  0
  8  9  1  0  0  0
  9 10  1  0  0  0
  9 29  1  0  0  0
  9 30  1  0  0  0
 10 11  1  0  0  0
 10 31  1  0  0  0
 11 12  2  0  0  0
 11 16  1  0  0  0
 12 13  1  0  0  0
 12 32  1  0  0  0
 13 14  2  0  0  0
 13 22  1  0  0  0
 14 15  1  0  0  0
 14 33  1  0  0  0
 15 16  2  0  0  0
 15 34  1  0  0  0
 16 35  1  0  0  0
 17 18  2  0  0  0
 17 19  1  0  0  0
 19 20  1  0  0  0
 19 21  1  0  0  0
 20 36  1  0  0  0
 20 37  1  0  0  0
 20 38  1  0  0  0
 21 39  1  0  0  0
 21 40  1  0  0  0
 21 41  1  0  0  0
 22 42  1  0  0  0
 23 43  1  0  0  0
 23 44  1  0  0  0
 23 45  1  0  0  0
M  END
> <s_m_entry_id>
326

> <s_m_entry_name>
dock_pv.325

> <s_m_Source_Path>
/home/csk/Desktop/cluster/DUD-E-result/kif11

> <s_m_Source_File>
dock_pv.maegz

> <i_m_Source_File_Index>
325

> <chembl_id>
CHEMBL427386

> <chembl_pref_name>
None

> <i_lp_mmshare_version>
53161

> <i_f3d_flags>
0

> <r_lp_tautomer_probability>
0.999999999997365

> <s_lp_Force_Field>
OPLS_2005

> <r_lp_Energy>
45.99354

> <b_lp_Chiralities_Consistent>
1

> <s_lp_Variant>
CHEMBL4581_lig80-2

> <s_i_glide_gridfile>
glide-grid_3cjo

> <i_i_glide_lignum>
126

> <i_i_glide_rotatable_bonds>
4

> <r_i_docking_score>
-7.61134941470147

> <r_i_glide_ligand_efficiency>
-0.330928235421803

> <r_i_glide_ligand_efficiency_sa>
-0.941115880432989

> <r_i_glide_ligand_efficiency_ln>
-1.84049330437556

> <r_i_glide_gscore>
-7.61134941470147

> <r_i_glide_lipo>
-3.85831476819048

> <r_i_glide_hbond>
0

> <r_i_glide_metal>
0

> <r_i_glide_rewards>
-1.86492684165024

> <r_i_glide_evdw>
-38.2060050964355

> <r_i_glide_ecoul>
-2.41653370857239

> <r_i_glide_erotb>
0.384672506246895

> <r_i_glide_esite>
0

> <r_i_glide_emodel>
-57.2589018099589

> <r_i_glide_energy>
-40.6225388050079

> <r_i_glide_einternal>
2.77075433731079

> <i_i_glide_confnum>
33

> <i_i_glide_posenum>
321

> <r_i_glide_eff_state_penalty>
0

> <s_user_duplicate_titles>
CHEMBL4581_lig80,345182

> <s_m_subgroup_title>
dock_pv

> <s_m_subgroupid>
dock_pv

> <b_m_subgroup_collapsed>
1

$$$$
CHEMBL4581_lig393
                    3D
 Schrodinger Suite 2021-1.
 50 53  0  0  1  0            999 V2000
   22.1928   14.9789  105.7827 C   0  0  0  0  0  0
   22.5922   13.8200  106.4350 C   0  0  0  0  0  0
   21.8791   13.2822  107.4974 C   0  0  0  0  0  0
   21.0168   15.6384  106.1319 C   0  0  0  0  0  0
   20.2517   15.1193  107.1793 C   0  0  0  0  0  0
   20.7178   13.9609  107.8699 C   0  0  0  0  0  0
   19.7971   13.6778  108.8509 N   0  0  0  0  0  0
   19.0140   15.4877  107.7824 C   0  0  0  0  0  0
   18.7786   14.5945  108.8031 C   0  0  0  0  0  0
   17.5483   14.6076  109.7029 C   0  0  2  0  0  0
   16.8605   15.9209  109.5907 N   0  0  1  0  0  0
   16.6941   16.3087  108.1753 C   0  0  0  0  0  0
   18.0499   16.6125  107.5002 C   0  0  0  0  0  0
   17.9242   14.2026  111.1301 C   0  0  0  0  0  0
   18.9743   14.8371  111.8098 C   0  0  0  0  0  0
   19.3185   14.4390  113.1012 C   0  0  0  0  0  0
   18.5825   13.4439  113.7425 C   0  0  0  0  0  0
   17.5180   12.8398  113.0835 C   0  0  0  0  0  0
   17.2163   13.1798  111.7653 C   0  0  0  0  0  0
   16.7183   11.9618  113.7534 O   0  0  0  0  0  0
   15.5437   15.9294  110.2412 C   0  0  0  0  0  0
   23.1177   15.5645  104.7720 C   0  0  0  0  0  0
   15.2870   17.2515  110.9942 C   0  0  0  0  0  0
   15.2615   18.5286  110.1375 C   0  0  0  0  0  0
   14.8676   19.6566  110.9576 N   0  0  0  0  0  0
   23.5154   13.3534  106.1382 H   0  0  0  0  0  0
   22.2071   12.3899  108.0033 H   0  0  0  0  0  0
   20.7065   16.5373  105.6203 H   0  0  0  0  0  0
   19.8065   12.9155  109.5134 H   0  0  0  0  0  0
   16.8706   13.8417  109.3199 H   0  0  0  0  0  0
   16.0963   17.2140  108.0794 H   0  0  0  0  0  0
   16.1346   15.5438  107.6303 H   0  0  0  0  0  0
   18.4455   17.5623  107.8579 H   0  0  0  0  0  0
   17.8914   16.7517  106.4305 H   0  0  0  0  0  0
   19.5250   15.6345  111.3308 H   0  0  0  0  0  0
   20.1369   14.9204  113.6168 H   0  0  0  0  0  0
   18.8174   13.1613  114.7597 H   0  0  0  0  0  0
   16.3947   12.6920  111.2599 H   0  0  0  0  0  0
   16.0333   11.5621  113.2056 H   0  0  0  0  0  0
   15.4754   15.1142  110.9590 H   0  0  0  0  0  0
   14.7436   15.7450  109.5212 H   0  0  0  0  0  0
   22.6282   16.3215  104.1603 H   0  0  0  0  0  0
   23.9259   16.0084  105.3590 H   0  0  0  0  0  0
   23.5200   14.7941  104.1121 H   0  0  0  0  0  0
   16.0153   17.3480  111.7973 H   0  0  0  0  0  0
   14.3203   17.1618  111.4905 H   0  0  0  0  0  0
   14.5545   18.4273  109.3139 H   0  0  0  0  0  0
   16.2479   18.7257  109.7142 H   0  0  0  0  0  0
   15.5183   19.7563  111.7251 H   0  0  0  0  0  0
   14.9239   20.5171  110.4313 H   0  0  0  0  0  0
  1  2  2  0  0  0
  1 22  1  0  0  0
  1  4  1  0  0  0
  2  3  1  0  0  0
  2 26  1  0  0  0
  3  6  2  0  0  0
  3 27  1  0  0  0
  4  5  2  0  0  0
  4 28  1  0  0  0
  5  8  1  0  0  0
  5  6  1  0  0  0
  6  7  1  0  0  0
  7  9  1  0  0  0
  7 29  1  0  0  0
  8  9  2  0  0  0
  8 13  1  0  0  0
  9 10  1  0  0  0
 10 11  1  0  0  0
 10 14  1  0  0  0
 10 30  1  0  0  0
 11 12  1  0  0  0
 11 21  1  0  0  0
 12 13  1  0  0  0
 12 31  1  0  0  0
 12 32  1  0  0  0
 13 33  1  0  0  0
 13 34  1  0  0  0
 14 15  2  0  0  0
 14 19  1  0  0  0
 15 16  1  0  0  0
 15 35  1  0  0  0
 16 17  2  0  0  0
 16 36  1  0  0  0
 17 18  1  0  0  0
 17 37  1  0  0  0
 18 19  2  0  0  0
 18 20  1  0  0  0
 19 38  1  0  0  0
 20 39  1  0  0  0
 21 23  1  0  0  0
 21 40  1  0  0  0
 21 41  1  0  0  0
 22 42  1  0  0  0
 22 43  1  0  0  0
 22 44  1  0  0  0
 23 24  1  0  0  0
 23 45  1  0  0  0
 23 46  1  0  0  0
 24 25  1  0  0  0
 24 47  1  0  0  0
 24 48  1  0  0  0
 25 49  1  0  0  0
 25 50  1  0  0  0
M  END
> <s_m_entry_id>
327

> <s_m_entry_name>
dock_pv.326

> <s_m_Source_Path>
/home/csk/Desktop/cluster/DUD-E-result/kif11

> <s_m_Source_File>
dock_pv.maegz

> <i_m_Source_File_Index>
326

> <chembl_id>
CHEMBL1163628

> <chembl_pref_name>
None

> <i_lp_mmshare_version>
53161

> <i_f3d_flags>
0

> <r_lp_tautomer_probability>
0.999999999997365

> <s_lp_Force_Field>
OPLS_2005

> <r_lp_Energy>
27.046208

> <b_lp_Chiralities_Consistent>
1

> <s_lp_Variant>
CHEMBL4581_lig393-1

> <s_i_glide_gridfile>
glide-grid_3cjo

> <i_i_glide_lignum>
562

> <i_i_glide_rotatable_bonds>
5

> <r_i_docking_score>
-7.60757765675276

> <r_i_glide_ligand_efficiency>
-0.30430310627011

> <r_i_glide_ligand_efficiency_sa>
-0.889787679572372

> <r_i_glide_ligand_efficiency_ln>
-1.80322388535586

> <r_i_glide_gscore>
-7.60757765675276

> <r_i_glide_lipo>
-4.69411123976708

> <r_i_glide_hbond>
-0.22989128914607

> <r_i_glide_metal>
0

> <r_i_glide_rewards>
-1.24698159090909

> <r_i_glide_evdw>
-33.9817276000977

> <r_i_glide_ecoul>
-1.60469388961792

> <r_i_glide_erotb>
0.503196926517046

> <r_i_glide_esite>
0

> <r_i_glide_emodel>
-48.5662163311715

> <r_i_glide_energy>
-35.5864214897156

> <r_i_glide_einternal>
0.915148258209229

> <i_i_glide_confnum>
7

> <i_i_glide_posenum>
205

> <r_i_glide_eff_state_penalty>
0

> <s_user_duplicate_titles>
CHEMBL4581_lig393,644865

> <s_m_subgroup_title>
dock_pv

> <s_m_subgroupid>
dock_pv

> <b_m_subgroup_collapsed>
1

$$$$
CHEMBL4581_lig891
                    3D
 Schrodinger Suite 2021-1.
 53 55  0  0  1  0            999 V2000
   17.6845   14.7978  108.9544 C   0  0  2  0  0  0
   19.0536   14.9722  108.2243 C   0  0  0  0  0  0
   17.0141   16.1460  109.3542 C   0  0  0  0  0  0
   20.0175   13.9619  108.2958 C   0  0  0  0  0  0
   21.1193   13.9623  107.4495 C   0  0  0  0  0  0
   21.3142   15.0191  106.5589 C   0  0  0  0  0  0
   20.4136   16.0826  106.5375 C   0  0  0  0  0  0
   19.2932   16.0561  107.3637 C   0  0  0  0  0  0
   17.7994   17.2050  109.8403 C   0  0  0  0  0  0
   17.2188   18.3786  110.3062 C   0  0  0  0  0  0
   15.8360   18.5326  110.2838 C   0  0  0  0  0  0
   15.0363   17.5016  109.7984 C   0  0  0  0  0  0
   15.6186   16.3210  109.3374 C   0  0  0  0  0  0
   17.8365   14.0401  110.3140 C   0  0  0  0  0  0
   18.7824   14.4853  111.2553 C   0  0  0  0  0  0
   18.8741   13.9041  112.5162 C   0  0  0  0  0  0
   18.0370   12.8453  112.8488 C   0  0  0  0  0  0
   17.1192   12.3621  111.9239 C   0  0  0  0  0  0
   17.0202   12.9502  110.6659 C   0  0  0  0  0  0
   16.8130   13.9725  107.9193 C   0  0  0  0  0  0
   16.6334   14.5774  106.4949 C   0  0  0  0  0  0
   15.7719   13.7206  105.5421 C   0  0  2  0  0  0
   16.3180   12.3620  105.3591 N   0  0  0  0  0  0
   13.6758   17.6375  109.7918 O   0  0  0  0  0  0
   22.5072   15.0068  105.6201 C   0  0  0  0  0  0
   15.6204   14.3910  104.1537 C   0  0  0  0  0  0
   16.7180   14.2380  103.3494 O   0  0  0  0  0  0
   14.6120   15.0245  103.8515 O   0  0  0  0  0  0
   19.8676   13.1064  108.9398 H   0  0  0  0  0  0
   21.8174   13.1388  107.4810 H   0  0  0  0  0  0
   20.5600   16.9155  105.8640 H   0  0  0  0  0  0
   18.5708   16.8520  107.2778 H   0  0  0  0  0  0
   18.8741   17.1210  109.8860 H   0  0  0  0  0  0
   17.8511   19.1620  110.6945 H   0  0  0  0  0  0
   15.3946   19.4467  110.6543 H   0  0  0  0  0  0
   14.9557   15.5413  109.0010 H   0  0  0  0  0  0
   19.4427   15.3057  111.0200 H   0  0  0  0  0  0
   19.5958   14.2710  113.2316 H   0  0  0  0  0  0
   18.1055   12.3906  113.8271 H   0  0  0  0  0  0
   16.4659   11.5462  112.1886 H   0  0  0  0  0  0
   16.2819   12.5428  109.9943 H   0  0  0  0  0  0
   17.2730   12.9881  107.8033 H   0  0  0  0  0  0
   15.8196   13.7595  108.3115 H   0  0  0  0  0  0
   16.2016   15.5758  106.5825 H   0  0  0  0  0  0
   17.6065   14.6959  106.0196 H   0  0  0  0  0  0
   14.7688   13.6483  105.9656 H   0  0  0  0  0  0
   15.8252   11.8195  104.6643 H   0  0  0  0  0  0
   17.3136   12.3489  105.1466 H   0  0  0  0  0  0
   13.3916   18.4958  110.1140 H   0  0  0  0  0  0
   22.2767   15.5166  104.6833 H   0  0  0  0  0  0
   23.3663   15.4960  106.0818 H   0  0  0  0  0  0
   22.7800   13.9816  105.3564 H   0  0  0  0  0  0
   17.4043   13.6941  103.7592 H   0  0  0  0  0  0
  1  2  1  0  0  0
  1  3  1  0  0  0
  1 14  1  0  0  0
  1 20  1  0  0  0
  2  4  2  0  0  0
  2  8  1  0  0  0
  3  9  2  0  0  0
  3 13  1  0  0  0
  4  5  1  0  0  0
  4 29  1  0  0  0
  5  6  2  0  0  0
  5 30  1  0  0  0
  6  7  1  0  0  0
  6 25  1  0  0  0
  7  8  2  0  0  0
  7 31  1  0  0  0
  8 32  1  0  0  0
  9 10  1  0  0  0
  9 33  1  0  0  0
 10 11  2  0  0  0
 10 34  1  0  0  0
 11 12  1  0  0  0
 11 35  1  0  0  0
 12 13  2  0  0  0
 12 24  1  0  0  0
 13 36  1  0  0  0
 14 15  2  0  0  0
 14 19  1  0  0  0
 15 16  1  0  0  0
 15 37  1  0  0  0
 16 17  2  0  0  0
 16 38  1  0  0  0
 17 18  1  0  0  0
 17 39  1  0  0  0
 18 19  2  0  0  0
 18 40  1  0  0  0
 19 41  1  0  0  0
 20 21  1  0  0  0
 20 42  1  0  0  0
 20 43  1  0  0  0
 21 22  1  0  0  0
 21 44  1  0  0  0
 21 45  1  0  0  0
 22 23  1  0  0  0
 22 26  1  0  0  0
 22 46  1  0  0  0
 23 47  1  0  0  0
 23 48  1  0  0  0
 24 49  1  0  0  0
 25 50  1  0  0  0
 25 51  1  0  0  0
 25 52  1  0  0  0
 26 27  1  0  0  0
 26 28  2  0  0  0
 27 53  1  0  0  0
M  END
> <s_m_entry_id>
328

> <s_m_entry_name>
dock_pv.327

> <s_m_Source_Path>
/home/csk/Desktop/cluster/DUD-E-result/kif11

> <s_m_Source_File>
dock_pv.maegz

> <i_m_Source_File_Index>
327

> <chembl_id>
CHEMBL2325424

> <chembl_pref_name>
None

> <i_lp_mmshare_version>
53161

> <i_f3d_flags>
0

> <r_lp_tautomer_probability>
0.999999999997365

> <s_lp_Force_Field>
OPLS_2005

> <r_lp_Energy>
31.188884

> <b_lp_Chiralities_Consistent>
1

> <s_lp_Variant>
CHEMBL4581_lig891-1

> <s_i_glide_gridfile>
glide-grid_3cjo

> <i_i_glide_lignum>
1287

> <i_i_glide_rotatable_bonds>
9

> <r_i_docking_score>
-7.60390918105898

> <r_i_glide_ligand_efficiency>
-0.271568185037821

> <r_i_glide_ligand_efficiency_sa>
-0.824640954882178

> <r_i_glide_ligand_efficiency_ln>
-1.75520549946324

> <r_i_glide_gscore>
-7.60390918105898

> <r_i_glide_lipo>
-4.59835872014906

> <r_i_glide_hbond>
-0.152

> <r_i_glide_metal>
0

> <r_i_glide_rewards>
-0.915801666666666

> <r_i_glide_evdw>
-40.4283905029297

> <r_i_glide_ecoul>
-5.75699424743652

> <r_i_glide_erotb>
0.960696146124403

> <r_i_glide_esite>
-0.0134762781056977

> <r_i_glide_emodel>
-67.6925428483968

> <r_i_glide_energy>
-46.1853847503662

> <r_i_glide_einternal>
2.90967059135437

> <i_i_glide_confnum>
101

> <i_i_glide_posenum>
308

> <r_i_glide_eff_state_penalty>
0

> <s_user_duplicate_titles>
CHEMBL4581_lig891

> <s_m_subgroup_title>
dock_pv

> <s_m_subgroupid>
dock_pv

> <b_m_subgroup_collapsed>
1

$$$$
CHEMBL4581_lig44
                    3D
 Schrodinger Suite 2021-1.
 51 53  0  0  1  0            999 V2000
   18.1984   12.9125  113.8378 C   0  0  0  0  0  0
   17.2756   12.4156  112.9262 C   0  0  0  0  0  0
   17.2925   12.8600  111.5996 C   0  0  0  0  0  0
   18.1930   13.8561  111.1794 C   0  0  0  0  0  0
   19.0797   14.3825  112.1391 C   0  0  0  0  0  0
   19.0994   13.8937  113.4405 C   0  0  0  0  0  0
   18.1752   14.3362  109.7680 C   0  0  0  0  0  0
   17.6310   13.5415  108.5936 C   0  0  0  0  0  0
   17.6089   14.5142  107.4994 N   0  0  0  0  0  0
   18.5479   15.5912  107.8154 C   0  0  1  0  0  0
   18.6648   15.5100  109.3213 C   0  0  0  0  0  0
   19.8907   15.4773  107.0764 C   0  0  0  0  0  0
   20.2946   16.4923  106.2035 C   0  0  0  0  0  0
   21.5107   16.4003  105.5300 C   0  0  0  0  0  0
   22.3135   15.2758  105.7075 C   0  0  0  0  0  0
   21.9157   14.2485  106.5587 C   0  0  0  0  0  0
   20.7173   14.3627  107.2586 C   0  0  0  0  0  0
   16.7923   14.5547  106.4075 C   0  0  0  0  0  0
   16.8430   15.5043  105.6201 O   0  0  0  0  0  0
   19.9179   15.3983  111.8503 F   0  0  0  0  0  0
   16.3212   11.5621  113.3587 F   0  0  0  0  0  0
   15.8042   13.3747  106.0972 C   0  0  2  0  0  0
   15.0029   13.3980  104.7320 C   0  0  0  0  0  0
   14.8997   13.1621  107.2487 N   0  0  0  0  0  0
   14.0011   14.5881  104.6960 C   0  0  0  0  0  0
   14.1526   12.1023  104.6016 C   0  0  0  0  0  0
   15.9187   13.5115  103.4868 C   0  0  0  0  0  0
   18.1877   12.5640  114.8611 H   0  0  0  0  0  0
   16.5667   12.4457  110.9158 H   0  0  0  0  0  0
   19.7981   14.3064  114.1528 H   0  0  0  0  0  0
   16.6455   13.1495  108.8221 H   0  0  0  0  0  0
   18.2677   12.6896  108.3560 H   0  0  0  0  0  0
   18.0965   16.5491  107.5472 H   0  0  0  0  0  0
   19.1176   16.3070  109.8893 H   0  0  0  0  0  0
   19.6719   17.3605  106.0508 H   0  0  0  0  0  0
   21.8216   17.1889  104.8604 H   0  0  0  0  0  0
   23.2483   15.1942  105.1727 H   0  0  0  0  0  0
   22.5390   13.3755  106.6860 H   0  0  0  0  0  0
   20.4243   13.5702  107.9312 H   0  0  0  0  0  0
   16.4721   12.5124  106.0386 H   0  0  0  0  0  0
   13.9693   13.4718  107.0103 H   0  0  0  0  0  0
   14.8267   12.1579  107.3930 H   0  0  0  0  0  0
   13.4565   14.6145  103.7508 H   0  0  0  0  0  0
   14.4902   15.5565  104.7927 H   0  0  0  0  0  0
   13.2505   14.5213  105.4835 H   0  0  0  0  0  0
   14.7239   11.2135  104.8689 H   0  0  0  0  0  0
   13.2829   12.1154  105.2596 H   0  0  0  0  0  0
   13.7677   11.9619  103.5907 H   0  0  0  0  0  0
   16.7057   12.7620  103.5070 H   0  0  0  0  0  0
   15.3593   13.3766  102.5611 H   0  0  0  0  0  0
   16.4021   14.4836  103.4044 H   0  0  0  0  0  0
  1  6  1  0  0  0
  1  2  2  0  0  0
  1 28  1  0  0  0
  2 21  1  0  0  0
  2  3  1  0  0  0
  3  4  2  0  0  0
  3 29  1  0  0  0
  4  7  1  0  0  0
  4  5  1  0  0  0
  5 20  1  0  0  0
  5  6  2  0  0  0
  6 30  1  0  0  0
  7  8  1  0  0  0
  7 11  2  0  0  0
  8  9  1  0  0  0
  8 31  1  0  0  0
  8 32  1  0  0  0
  9 10  1  0  0  0
  9 18  1  0  0  0
 10 11  1  0  0  0
 10 12  1  0  0  0
 10 33  1  0  0  0
 11 34  1  0  0  0
 12 13  2  0  0  0
 12 17  1  0  0  0
 13 14  1  0  0  0
 13 35  1  0  0  0
 14 15  2  0  0  0
 14 36  1  0  0  0
 15 16  1  0  0  0
 15 37  1  0  0  0
 16 17  2  0  0  0
 16 38  1  0  0  0
 17 39  1  0  0  0
 18 19  2  0  0  0
 18 22  1  0  0  0
 22 23  1  0  0  0
 22 24  1  0  0  0
 22 40  1  0  0  0
 23 25  1  0  0  0
 23 26  1  0  0  0
 23 27  1  0  0  0
 24 41  1  0  0  0
 24 42  1  0  0  0
 25 43  1  0  0  0
 25 44  1  0  0  0
 25 45  1  0  0  0
 26 46  1  0  0  0
 26 47  1  0  0  0
 26 48  1  0  0  0
 27 49  1  0  0  0
 27 50  1  0  0  0
 27 51  1  0  0  0
M  END
> <s_m_entry_id>
329

> <s_m_entry_name>
dock_pv.328

> <s_m_Source_Path>
/home/csk/Desktop/cluster/DUD-E-result/kif11

> <s_m_Source_File>
dock_pv.maegz

> <i_m_Source_File_Index>
328

> <chembl_id>
CHEMBL204408

> <chembl_pref_name>
None

> <i_lp_mmshare_version>
53161

> <i_f3d_flags>
0

> <r_lp_tautomer_probability>
1

> <s_lp_Force_Field>
OPLS_2005

> <r_lp_Energy>
34.151135

> <b_lp_Chiralities_Consistent>
1

> <s_lp_Variant>
CHEMBL4581_lig44-1

> <s_i_glide_gridfile>
glide-grid_3cjo

> <i_i_glide_lignum>
70

> <i_i_glide_rotatable_bonds>
5

> <r_i_docking_score>
-7.603423764609

> <r_i_glide_ligand_efficiency>
-0.281608287578111

> <r_i_glide_ligand_efficiency_sa>
-0.844824861806199

> <r_i_glide_ligand_efficiency_ln>
-1.76995170016341

> <r_i_glide_gscore>
-7.603423764609

> <r_i_glide_lipo>
-4.24477533124981

> <r_i_glide_hbond>
-0.32

> <r_i_glide_metal>
0

> <r_i_glide_rewards>
-1.27204781088144

> <r_i_glide_evdw>
-38.0984802246094

> <r_i_glide_ecoul>
-2.64127635955811

> <r_i_glide_erotb>
0.562358482767677

> <r_i_glide_esite>
-0.0278436400812501

> <r_i_glide_emodel>
-55.195909332063

> <r_i_glide_energy>
-40.7397565841675

> <r_i_glide_einternal>
3.65001392364502

> <i_i_glide_confnum>
3

> <i_i_glide_posenum>
53

> <r_i_glide_eff_state_penalty>
0

> <s_user_duplicate_titles>
CHEMBL4581_lig44,343421

> <s_m_subgroup_title>
dock_pv

> <s_m_subgroupid>
dock_pv

> <b_m_subgroup_collapsed>
1

$$$$
CHEMBL4581_lig604
                    3D
 Schrodinger Suite 2021-1.
 51 53  0  0  1  0            999 V2000
   17.1464   15.9649  109.3158 C   0  0  0  0  0  0
   17.5144   14.6029  108.6622 C   0  0  2  0  0  0
   18.9771   14.5240  108.1177 C   0  0  0  0  0  0
   19.3738   15.3267  107.0329 C   0  0  0  0  0  0
   20.6238   15.1850  106.4440 C   0  0  0  0  0  0
   21.5179   14.2573  106.9576 C   0  0  0  0  0  0
   21.1957   13.5287  108.0968 C   0  0  0  0  0  0
   19.9294   13.6423  108.6585 C   0  0  0  0  0  0
   16.3646   14.2283  107.2589 S   0  0  0  0  0  0
   16.1889   15.7174  106.2142 C   0  0  0  0  0  0
   16.7048   15.4658  104.7729 C   0  0  2  0  0  0
   17.1638   13.4234  109.6489 C   0  0  0  0  0  0
   17.6716   13.4034  111.0972 C   0  0  0  0  0  0
   18.6442   14.2802  111.5961 C   0  0  0  0  0  0
   19.0503   14.1944  112.9257 C   0  0  0  0  0  0
   18.4847   13.2326  113.7591 C   0  0  0  0  0  0
   17.5155   12.3620  113.2738 C   0  0  0  0  0  0
   17.1194   12.4382  111.9436 C   0  0  0  0  0  0
   16.8339   16.7168  103.9990 N   0  0  0  0  0  0
   15.7869   14.5047  103.9767 C   0  0  0  0  0  0
   16.3180   13.2525  103.8605 O   0  0  0  0  0  0
   14.7015   14.8563  103.5136 O   0  0  0  0  0  0
   15.8467   16.1889  109.8016 C   0  0  0  0  0  0
   16.4810   18.3618  110.6397 C   0  0  0  0  0  0
   17.7710   18.1677  110.1578 C   0  0  0  0  0  0
   18.0982   16.9855  109.4978 C   0  0  0  0  0  0
   15.5197   17.3725  110.4627 C   0  0  0  0  0  0
   14.2592   17.5619  110.9571 O   0  0  0  0  0  0
   18.7186   16.0697  106.6175 H   0  0  0  0  0  0
   20.8953   15.7872  105.5893 H   0  0  0  0  0  0
   22.4881   14.1375  106.4982 H   0  0  0  0  0  0
   21.9090   12.8325  108.5103 H   0  0  0  0  0  0
   19.7054   12.9965  109.4914 H   0  0  0  0  0  0
   15.1324   15.9881  106.1971 H   0  0  0  0  0  0
   16.6847   16.5690  106.6771 H   0  0  0  0  0  0
   17.6904   15.0013  104.8311 H   0  0  0  0  0  0
   16.0772   13.3598  109.7461 H   0  0  0  0  0  0
   17.4454   12.4709  109.1941 H   0  0  0  0  0  0
   19.1063   15.0223  110.9659 H   0  0  0  0  0  0
   19.8056   14.8656  113.3064 H   0  0  0  0  0  0
   18.7967   13.1618  114.7907 H   0  0  0  0  0  0
   17.0612   11.6290  113.9222 H   0  0  0  0  0  0
   16.3693   11.7518  111.5756 H   0  0  0  0  0  0
   16.6736   16.5477  103.0158 H   0  0  0  0  0  0
   16.1278   17.3813  104.2885 H   0  0  0  0  0  0
   17.2395   13.1620  104.1587 H   0  0  0  0  0  0
   15.0835   15.4332  109.6848 H   0  0  0  0  0  0
   16.2367   19.2735  111.1630 H   0  0  0  0  0  0
   18.5227   18.9291  110.3069 H   0  0  0  0  0  0
   19.1173   16.8727  109.1616 H   0  0  0  0  0  0
   14.1667   18.4145  111.3895 H   0  0  0  0  0  0
  1 23  2  0  0  0
  1  2  1  0  0  0
  1 26  1  0  0  0
  2  9  1  0  0  0
  2  3  1  0  0  0
  2 12  1  0  0  0
  3  4  2  0  0  0
  3  8  1  0  0  0
  4  5  1  0  0  0
  4 29  1  0  0  0
  5  6  2  0  0  0
  5 30  1  0  0  0
  6  7  1  0  0  0
  6 31  1  0  0  0
  7  8  2  0  0  0
  7 32  1  0  0  0
  8 33  1  0  0  0
  9 10  1  0  0  0
 10 11  1  0  0  0
 10 34  1  0  0  0
 10 35  1  0  0  0
 11 19  1  0  0  0
 11 20  1  0  0  0
 11 36  1  0  0  0
 12 13  1  0  0  0
 12 37  1  0  0  0
 12 38  1  0  0  0
 13 14  2  0  0  0
 13 18  1  0  0  0
 14 15  1  0  0  0
 14 39  1  0  0  0
 15 16  2  0  0  0
 15 40  1  0  0  0
 16 17  1  0  0  0
 16 41  1  0  0  0
 17 18  2  0  0  0
 17 42  1  0  0  0
 18 43  1  0  0  0
 19 44  1  0  0  0
 19 45  1  0  0  0
 20 21  1  0  0  0
 20 22  2  0  0  0
 21 46  1  0  0  0
 23 27  1  0  0  0
 23 47  1  0  0  0
 24 27  2  0  0  0
 24 25  1  0  0  0
 24 48  1  0  0  0
 25 26  2  0  0  0
 25 49  1  0  0  0
 26 50  1  0  0  0
 27 28  1  0  0  0
 28 51  1  0  0  0
M  END
> <s_m_entry_id>
330

> <s_m_entry_name>
dock_pv.329

> <s_m_Source_Path>
/home/csk/Desktop/cluster/DUD-E-result/kif11

> <s_m_Source_File>
dock_pv.maegz

> <i_m_Source_File_Index>
329

> <chembl_id>
CHEMBL2043398

> <chembl_pref_name>
None

> <i_lp_mmshare_version>
53161

> <i_f3d_flags>
0

> <r_lp_tautomer_probability>
0.999999999997365

> <s_lp_Force_Field>
OPLS_2005

> <r_lp_Energy>
24.270863

> <b_lp_Chiralities_Consistent>
1

> <s_lp_Variant>
CHEMBL4581_lig604-2

> <s_i_glide_gridfile>
glide-grid_3cjo

> <i_i_glide_lignum>
933

> <i_i_glide_rotatable_bonds>
10

> <r_i_docking_score>
-7.60030177582822

> <r_i_glide_ligand_efficiency>
-0.271439349136722

> <r_i_glide_ligand_efficiency_sa>
-0.824249733206155

> <r_i_glide_ligand_efficiency_ln>
-1.75437280441796

> <r_i_glide_gscore>
-7.60030177582822

> <r_i_glide_lipo>
-4.72189655716098

> <r_i_glide_hbond>
0

> <r_i_glide_metal>
0

> <r_i_glide_rewards>
-0.826138954545453

> <r_i_glide_evdw>
-41.333251953125

> <r_i_glide_ecoul>
-6.52930450439453

> <r_i_glide_erotb>
1.00931082573152

> <r_i_glide_esite>
-0.0155188165378712

> <r_i_glide_emodel>
-61.9157502977613

> <r_i_glide_energy>
-47.8625564575195

> <r_i_glide_einternal>
17.5073146820068

> <i_i_glide_confnum>
77

> <i_i_glide_posenum>
397

> <r_i_glide_eff_state_penalty>
0

> <s_user_duplicate_titles>
CHEMBL4581_lig604

> <s_m_subgroup_title>
dock_pv

> <s_m_subgroupid>
dock_pv

> <b_m_subgroup_collapsed>
1

$$$$
CHEMBL4581_lig877
                    3D
 Schrodinger Suite 2021-1.
 47 49  0  0  1  0            999 V2000
   18.0199   14.8974  108.7028 C   0  0  0  0  0  0
   16.8083   14.3607  107.8579 C   0  0  0  0  0  0
   17.9942   14.3361  110.1707 C   0  0  0  0  0  0
   15.5017   14.4401  108.3745 C   0  0  0  0  0  0
   14.4050   13.9621  107.6638 C   0  0  0  0  0  0
   14.5966   13.3707  106.4208 C   0  0  0  0  0  0
   15.8772   13.2464  105.8947 C   0  0  0  0  0  0
   16.9690   13.7293  106.6095 C   0  0  0  0  0  0
   17.3124   13.1375  110.4649 C   0  0  0  0  0  0
   17.2673   12.6157  111.7548 C   0  0  0  0  0  0
   17.9181   13.2718  112.7964 C   0  0  0  0  0  0
   18.6491   14.4258  112.5239 C   0  0  0  0  0  0
   18.7021   14.9459  111.2300 C   0  0  0  0  0  0
   19.3969   14.5734  108.0267 C   0  0  0  0  0  0
   19.7495   15.1821  106.8046 C   0  0  0  0  0  0
   20.9453   14.8812  106.1602 C   0  0  0  0  0  0
   21.8179   13.9626  106.7282 C   0  0  0  0  0  0
   21.5210   13.3919  107.9596 C   0  0  0  0  0  0
   20.3262   13.6903  108.6050 C   0  0  0  0  0  0
   17.9315   16.7611  108.6923 S   0  0  0  0  0  0
   16.3716   17.3716  109.3968 C   0  0  0  0  0  0
   16.2151   17.1995  110.9104 C   0  0  0  0  0  0
   14.9920   17.8356  111.3590 N   0  0  0  0  0  0
   19.4656   16.0421  111.0314 F   0  0  0  0  0  0
   17.8152   12.7513  114.2164 C   0  0  0  0  0  0
   15.3278   14.8594  109.3534 H   0  0  0  0  0  0
   13.4114   14.0389  108.0804 H   0  0  0  0  0  0
   13.7497   12.9883  105.8702 H   0  0  0  0  0  0
   16.0323   12.7629  104.9413 H   0  0  0  0  0  0
   17.9365   13.5701  106.1633 H   0  0  0  0  0  0
   16.8144   12.5725  109.6902 H   0  0  0  0  0  0
   16.7138   11.7051  111.9387 H   0  0  0  0  0  0
   19.1818   14.9286  113.3169 H   0  0  0  0  0  0
   19.0736   15.8762  106.3272 H   0  0  0  0  0  0
   21.1862   15.3451  105.2157 H   0  0  0  0  0  0
   22.7437   13.7186  106.2279 H   0  0  0  0  0  0
   22.2342   12.7291  108.4168 H   0  0  0  0  0  0
   20.1354   13.1975  109.5458 H   0  0  0  0  0  0
   16.3606   18.4383  109.1691 H   0  0  0  0  0  0
   15.5207   16.9733  108.8500 H   0  0  0  0  0  0
   16.1954   16.1480  111.1944 H   0  0  0  0  0  0
   17.0652   17.6595  111.4156 H   0  0  0  0  0  0
   15.1016   18.0697  112.3425 H   0  0  0  0  0  0
   14.8955   18.7295  110.8970 H   0  0  0  0  0  0
   17.0676   11.9623  114.3076 H   0  0  0  0  0  0
   18.7780   12.3712  114.5590 H   0  0  0  0  0  0
   17.5133   13.5543  114.8868 H   0  0  0  0  0  0
  1  2  1  0  0  0
  1  3  1  0  0  0
  1 14  1  0  0  0
  1 20  1  0  0  0
  2  4  2  0  0  0
  2  8  1  0  0  0
  3  9  2  0  0  0
  3 13  1  0  0  0
  4  5  1  0  0  0
  4 26  1  0  0  0
  5  6  2  0  0  0
  5 27  1  0  0  0
  6  7  1  0  0  0
  6 28  1  0  0  0
  7  8  2  0  0  0
  7 29  1  0  0  0
  8 30  1  0  0  0
  9 10  1  0  0  0
  9 31  1  0  0  0
 10 11  2  0  0  0
 10 32  1  0  0  0
 11 12  1  0  0  0
 11 25  1  0  0  0
 12 13  2  0  0  0
 12 33  1  0  0  0
 13 24  1  0  0  0
 14 15  2  0  0  0
 14 19  1  0  0  0
 15 16  1  0  0  0
 15 34  1  0  0  0
 16 17  2  0  0  0
 16 35  1  0  0  0
 17 18  1  0  0  0
 17 36  1  0  0  0
 18 19  2  0  0  0
 18 37  1  0  0  0
 19 38  1  0  0  0
 20 21  1  0  0  0
 21 22  1  0  0  0
 21 39  1  0  0  0
 21 40  1  0  0  0
 22 23  1  0  0  0
 22 41  1  0  0  0
 22 42  1  0  0  0
 23 43  1  0  0  0
 23 44  1  0  0  0
 25 45  1  0  0  0
 25 46  1  0  0  0
 25 47  1  0  0  0
M  END
> <s_m_entry_id>
331

> <s_m_entry_name>
dock_pv.330

> <s_m_Source_Path>
/home/csk/Desktop/cluster/DUD-E-result/kif11

> <s_m_Source_File>
dock_pv.maegz

> <i_m_Source_File_Index>
330

> <chembl_id>
CHEMBL2325405

> <chembl_pref_name>
None

> <i_lp_mmshare_version>
53161

> <i_f3d_flags>
0

> <r_lp_tautomer_probability>
1

> <s_lp_Force_Field>
OPLS_2005

> <r_lp_Energy>
27.175281

> <b_lp_Chiralities_Consistent>
1

> <s_lp_Variant>
CHEMBL4581_lig877-1

> <s_i_glide_gridfile>
glide-grid_3cjo

> <i_i_glide_lignum>
1269

> <i_i_glide_rotatable_bonds>
6

> <r_i_docking_score>
-7.59994712204115

> <r_i_glide_ligand_efficiency>
-0.303997884881646

> <r_i_glide_ligand_efficiency_sa>
-0.888895206819378

> <r_i_glide_ligand_efficiency_ln>
-1.80141521996054

> <r_i_glide_gscore>
-7.59994712204115

> <r_i_glide_lipo>
-4.21410726416726

> <r_i_glide_hbond>
-0.32

> <r_i_glide_metal>
0

> <r_i_glide_rewards>
-1.37411084072748

> <r_i_glide_evdw>
-39.555850982666

> <r_i_glide_ecoul>
-3.2393045425415

> <r_i_glide_erotb>
0.771959213368108

> <r_i_glide_esite>
0

> <r_i_glide_emodel>
-57.6125623395015

> <r_i_glide_energy>
-42.7951555252075

> <r_i_glide_einternal>
6.82973289489746

> <i_i_glide_confnum>
83

> <i_i_glide_posenum>
143

> <r_i_glide_eff_state_penalty>
0

> <s_user_duplicate_titles>
CHEMBL4581_lig877

> <s_m_subgroup_title>
dock_pv

> <s_m_subgroupid>
dock_pv

> <b_m_subgroup_collapsed>
1

$$$$
CHEMBL4581_lig853
                    3D
 Schrodinger Suite 2021-1.
 49 51  0  0  1  0            999 V2000
   15.2600   17.8654  110.2703 C   0  0  0  0  0  0
   14.3284   18.0988  111.3591 N   0  0  0  0  0  0
   16.5478   17.2088  110.7924 C   0  0  0  0  0  0
   17.7668   16.8489  109.4906 S   0  0  0  0  0  0
   17.9070   14.9999  109.2712 C   0  0  0  0  0  0
   19.1958   14.7715  108.4141 C   0  0  0  0  0  0
   18.0558   14.3195  110.6724 C   0  0  0  0  0  0
   16.6339   14.5070  108.4955 C   0  0  0  0  0  0
   19.4194   15.5584  107.2703 C   0  0  0  0  0  0
   20.5218   15.3527  106.4544 C   0  0  0  0  0  0
   21.4424   14.3485  106.7615 C   0  0  0  0  0  0
   21.2458   13.5622  107.9012 C   0  0  0  0  0  0
   20.1435   13.7811  108.7257 C   0  0  0  0  0  0
   15.3625   14.6029  109.0864 C   0  0  0  0  0  0
   14.2155   14.1847  108.4178 C   0  0  0  0  0  0
   14.3211   13.6321  107.1464 C   0  0  0  0  0  0
   15.5649   13.5024  106.5421 C   0  0  0  0  0  0
   16.7077   13.9283  107.2117 C   0  0  0  0  0  0
   17.3897   13.1207  110.9845 C   0  0  0  0  0  0
   17.5179   12.5365  112.2419 C   0  0  0  0  0  0
   18.3175   13.1407  113.2067 C   0  0  0  0  0  0
   19.0075   14.3129  112.9150 C   0  0  0  0  0  0
   18.8822   14.8924  111.6552 C   0  0  0  0  0  0
   22.6702   14.0774  105.8962 C   0  0  0  0  0  0
   23.0005   15.1382  104.9592 N   0  0  0  0  0  0
   15.4959   18.8187  109.7941 H   0  0  0  0  0  0
   14.7796   17.2448  109.5128 H   0  0  0  0  0  0
   14.0679   17.2296  111.7966 H   0  0  0  0  0  0
   14.7771   18.6606  112.0733 H   0  0  0  0  0  0
   16.3295   16.3073  111.3606 H   0  0  0  0  0  0
   17.0346   17.8885  111.4912 H   0  0  0  0  0  0
   18.7140   16.3248  106.9848 H   0  0  0  0  0  0
   20.6384   15.9747  105.5799 H   0  0  0  0  0  0
   21.9475   12.7796  108.1494 H   0  0  0  0  0  0
   20.0210   13.1377  109.5841 H   0  0  0  0  0  0
   15.2477   14.9896  110.0835 H   0  0  0  0  0  0
   13.2485   14.2733  108.8896 H   0  0  0  0  0  0
   13.4351   13.2930  106.6293 H   0  0  0  0  0  0
   15.6497   13.0549  105.5621 H   0  0  0  0  0  0
   17.6456   13.7744  106.7008 H   0  0  0  0  0  0
   16.7758   12.6143  110.2539 H   0  0  0  0  0  0
   16.9922   11.6191  112.4663 H   0  0  0  0  0  0
   18.4147   12.6887  114.1836 H   0  0  0  0  0  0
   19.6419   14.7678  113.6614 H   0  0  0  0  0  0
   19.4352   15.7966  111.4448 H   0  0  0  0  0  0
   23.5182   13.9602  106.5579 H   0  0  0  0  0  0
   22.5454   13.1384  105.3590 H   0  0  0  0  0  0
   22.2883   15.2095  104.2455 H   0  0  0  0  0  0
   23.0553   16.0259  105.4387 H   0  0  0  0  0  0
  1  3  1  0  0  0
  1  2  1  0  0  0
  1 26  1  0  0  0
  1 27  1  0  0  0
  2 28  1  0  0  0
  2 29  1  0  0  0
  3  4  1  0  0  0
  3 30  1  0  0  0
  3 31  1  0  0  0
  4  5  1  0  0  0
  5  7  1  0  0  0
  5  8  1  0  0  0
  5  6  1  0  0  0
  6 13  1  0  0  0
  6  9  2  0  0  0
  7 19  2  0  0  0
  7 23  1  0  0  0
  8 14  2  0  0  0
  8 18  1  0  0  0
  9 10  1  0  0  0
  9 32  1  0  0  0
 10 11  2  0  0  0
 10 33  1  0  0  0
 11 12  1  0  0  0
 11 24  1  0  0  0
 12 13  2  0  0  0
 12 34  1  0  0  0
 13 35  1  0  0  0
 14 15  1  0  0  0
 14 36  1  0  0  0
 15 16  2  0  0  0
 15 37  1  0  0  0
 16 17  1  0  0  0
 16 38  1  0  0  0
 17 18  2  0  0  0
 17 39  1  0  0  0
 18 40  1  0  0  0
 19 20  1  0  0  0
 19 41  1  0  0  0
 20 21  2  0  0  0
 20 42  1  0  0  0
 21 22  1  0  0  0
 21 43  1  0  0  0
 22 23  2  0  0  0
 22 44  1  0  0  0
 23 45  1  0  0  0
 24 25  1  0  0  0
 24 46  1  0  0  0
 24 47  1  0  0  0
 25 48  1  0  0  0
 25 49  1  0  0  0
M  END
> <s_m_entry_id>
332

> <s_m_entry_name>
dock_pv.331

> <s_m_Source_Path>
/home/csk/Desktop/cluster/DUD-E-result/kif11

> <s_m_Source_File>
dock_pv.maegz

> <i_m_Source_File_Index>
331

> <chembl_id>
CHEMBL2024131

> <chembl_pref_name>
None

> <i_lp_mmshare_version>
53161

> <i_f3d_flags>
0

> <r_lp_tautomer_probability>
1

> <s_lp_Force_Field>
OPLS_2005

> <r_lp_Energy>
25.07769

> <b_lp_Chiralities_Consistent>
1

> <s_lp_Variant>
CHEMBL4581_lig853-1

> <s_i_glide_gridfile>
glide-grid_3cjo

> <i_i_glide_lignum>
1240

> <i_i_glide_rotatable_bonds>
7

> <r_i_docking_score>
-7.58789455418573

> <r_i_glide_ligand_efficiency>
-0.303515782167429

> <r_i_glide_ligand_efficiency_sa>
-0.887485529932879

> <r_i_glide_ligand_efficiency_ln>
-1.79855840019249

> <r_i_glide_gscore>
-7.58789455418573

> <r_i_glide_lipo>
-4.56604012084828

> <r_i_glide_hbond>
-0.32

> <r_i_glide_metal>
0

> <r_i_glide_rewards>
-1.11052347414346

> <r_i_glide_evdw>
-41.8318328857422

> <r_i_glide_ecoul>
-1.88970541954041

> <r_i_glide_erotb>
0.783716498024192

> <r_i_glide_esite>
0

> <r_i_glide_emodel>
-61.1729874255157

> <r_i_glide_energy>
-43.7215383052826

> <r_i_glide_einternal>
3.77352285385132

> <i_i_glide_confnum>
209

> <i_i_glide_posenum>
220

> <r_i_glide_eff_state_penalty>
0

> <s_user_duplicate_titles>
CHEMBL4581_lig853

> <s_m_subgroup_title>
dock_pv

> <s_m_subgroupid>
dock_pv

> <b_m_subgroup_collapsed>
1

$$$$
CHEMBL4581_lig64
                    3D
 Schrodinger Suite 2021-1.
 37 39  0  0  1  0            999 V2000
   17.4990   15.8520  107.4258 C   0  0  0  0  0  0
   16.3087   15.2322  107.9971 N   0  0  2  0  0  0
   16.5196   14.9843  109.4160 C   0  0  0  0  0  0
   17.5967   13.8900  109.6005 C   0  0  1  0  0  0
   18.7867   15.0419  107.6494 C   0  0  0  0  0  0
   18.8460   14.1406  108.7363 C   0  0  0  0  0  0
   20.0265   13.4274  108.9585 C   0  0  0  0  0  0
   21.1193   13.5621  108.1164 C   0  0  0  0  0  0
   21.0697   14.4283  107.0271 C   0  0  0  0  0  0
   19.9097   15.1918  106.8077 C   0  0  0  0  0  0
   19.8470   16.2014  105.6645 C   0  0  0  0  0  0
   22.2824   14.5076  106.1059 C   0  0  0  0  0  0
   17.8883   13.6495  111.0827 C   0  0  0  0  0  0
   18.7890   14.4690  111.7764 C   0  0  0  0  0  0
   19.0694   14.2172  113.1160 C   0  0  0  0  0  0
   18.4336   13.1613  113.7647 C   0  0  0  0  0  0
   17.5170   12.3619  113.0909 C   0  0  0  0  0  0
   17.2522   12.5950  111.7451 C   0  0  0  0  0  0
   17.6271   16.8649  107.8122 H   0  0  0  0  0  0
   17.3032   15.9389  106.3574 H   0  0  0  0  0  0
   16.1272   14.3690  107.5021 H   0  0  0  0  0  0
   15.5786   14.6689  109.8692 H   0  0  0  0  0  0
   16.8141   15.9092  109.9165 H   0  0  0  0  0  0
   17.1852   12.9531  109.2180 H   0  0  0  0  0  0
   20.0814   12.7101  109.7608 H   0  0  0  0  0  0
   22.0034   12.9686  108.2990 H   0  0  0  0  0  0
   19.5190   17.1625  106.0524 H   0  0  0  0  0  0
   19.1164   15.8788  104.9252 H   0  0  0  0  0  0
   20.7968   16.3824  105.1630 H   0  0  0  0  0  0
   23.0248   13.7418  106.3292 H   0  0  0  0  0  0
   21.9767   14.3620  105.0700 H   0  0  0  0  0  0
   22.7545   15.4879  106.1664 H   0  0  0  0  0  0
   19.2838   15.2888  111.2739 H   0  0  0  0  0  0
   19.7797   14.8325  113.6494 H   0  0  0  0  0  0
   18.6432   12.9641  114.8068 H   0  0  0  0  0  0
   17.0108   11.5620  113.6080 H   0  0  0  0  0  0
   16.5494   11.9591  111.2267 H   0  0  0  0  0  0
  1  5  1  0  0  0
  1  2  1  0  0  0
  1 19  1  0  0  0
  1 20  1  0  0  0
  2  3  1  0  0  0
  2 21  1  0  0  0
  3  4  1  0  0  0
  3 22  1  0  0  0
  3 23  1  0  0  0
  4  6  1  0  0  0
  4 13  1  0  0  0
  4 24  1  0  0  0
  5 10  1  0  0  0
  5  6  2  0  0  0
  6  7  1  0  0  0
  7  8  2  0  0  0
  7 25  1  0  0  0
  8  9  1  0  0  0
  8 26  1  0  0  0
  9 10  2  0  0  0
  9 12  1  0  0  0
 10 11  1  0  0  0
 11 27  1  0  0  0
 11 28  1  0  0  0
 11 29  1  0  0  0
 12 30  1  0  0  0
 12 31  1  0  0  0
 12 32  1  0  0  0
 13 14  2  0  0  0
 13 18  1  0  0  0
 14 15  1  0  0  0
 14 33  1  0  0  0
 15 16  2  0  0  0
 15 34  1  0  0  0
 16 17  1  0  0  0
 16 35  1  0  0  0
 17 18  2  0  0  0
 17 36  1  0  0  0
 18 37  1  0  0  0
M  END
> <s_m_entry_id>
333

> <s_m_entry_name>
dock_pv.332

> <s_m_Source_Path>
/home/csk/Desktop/cluster/DUD-E-result/kif11

> <s_m_Source_File>
dock_pv.maegz

> <i_m_Source_File_Index>
332

> <chembl_id>
CHEMBL208145

> <chembl_pref_name>
None

> <i_lp_mmshare_version>
53161

> <i_f3d_flags>
0

> <r_lp_tautomer_probability>
1

> <s_lp_Force_Field>
OPLS_2005

> <r_lp_Energy>
21.246918

> <b_lp_Chiralities_Consistent>
1

> <s_lp_Variant>
CHEMBL4581_lig64-2

> <s_i_glide_gridfile>
glide-grid_3cjo

> <i_i_glide_lignum>
95

> <i_i_glide_rotatable_bonds>
1

> <r_i_docking_score>
-7.58576951418707

> <r_i_glide_ligand_efficiency>
-0.42143163967706

> <r_i_glide_ligand_efficiency_sa>
-1.1044633418669

> <r_i_glide_ligand_efficiency_ln>
-1.94988293825403

> <r_i_glide_gscore>
-7.58576951418707

> <r_i_glide_lipo>
-4.26059373930031

> <r_i_glide_hbond>
0

> <r_i_glide_metal>
0

> <r_i_glide_rewards>
-1.89920065151515

> <r_i_glide_evdw>
-31.8294906616211

> <r_i_glide_ecoul>
-0.936706125736237

> <r_i_glide_erotb>
0.306005328569882

> <r_i_glide_esite>
0

> <r_i_glide_emodel>
-47.0787292454654

> <r_i_glide_energy>
-32.7661967873573

> <r_i_glide_einternal>
0.20375645160675

> <i_i_glide_confnum>
8

> <i_i_glide_posenum>
21

> <r_i_glide_eff_state_penalty>
0

> <s_user_duplicate_titles>
CHEMBL4581_lig64

> <s_m_subgroup_title>
dock_pv

> <s_m_subgroupid>
dock_pv

> <b_m_subgroup_collapsed>
1

$$$$
CHEMBL4581_lig97
                    3D
 Schrodinger Suite 2021-1.
 61 63  0  0  1  0            999 V2000
   22.7118   14.2326  106.0694 C   0  0  0  0  0  0
   22.6968   15.3729  105.2766 C   0  0  0  0  0  0
   21.6299   16.2593  105.3601 C   0  0  0  0  0  0
   20.5774   15.9997  106.2335 C   0  0  0  0  0  0
   20.5888   14.8600  107.0548 C   0  0  0  0  0  0
   21.6714   13.9619  106.9583 C   0  0  0  0  0  0
   21.7607   12.8582  107.7395 F   0  0  0  0  0  0
   21.6106   17.3625  104.5826 F   0  0  0  0  0  0
   19.4855   14.6420  108.0030 C   0  0  0  0  0  0
   19.5755   14.0573  109.1254 N   0  0  0  0  0  0
   18.3965   14.1091  109.8039 N   0  0  0  0  0  0
   17.3349   14.8092  109.0256 C   0  0  2  0  0  0
   18.0844   15.0878  107.7102 C   0  0  0  0  0  0
   16.9060   16.1421  109.7169 C   0  0  0  0  0  0
   15.6141   16.3522  110.2178 C   0  0  0  0  0  0
   15.2696   17.5532  110.8309 C   0  0  0  0  0  0
   16.2211   18.5583  110.9566 C   0  0  0  0  0  0
   17.5170   18.3635  110.4930 C   0  0  0  0  0  0
   17.8545   17.1660  109.8753 C   0  0  0  0  0  0
   18.4423   14.0728  111.1584 C   0  0  0  0  0  0
   17.6773   13.1089  111.6989 N   0  0  0  0  0  0
   19.1630   14.8170  111.8331 O   0  0  0  0  0  0
   17.4675   12.9232  113.1375 C   0  0  0  0  0  0
   16.1560   13.8156  108.7228 C   0  0  0  0  0  0
   18.7163   12.4576  113.8940 C   0  0  0  0  0  0
   15.0443   14.3680  107.7838 C   0  0  0  0  0  0
   14.4331   13.3568  106.7966 C   0  0  0  0  0  0
   15.3684   12.9635  105.6307 C   0  0  0  0  0  0
   14.6828   12.3621  104.4843 N   0  0  0  0  0  0
   13.9154   11.1671  104.8326 C   0  0  0  0  0  0
   13.8767   13.3117  103.7233 C   0  0  0  0  0  0
   23.5436   13.5614  105.9954 H   0  0  0  0  0  0
   23.5064   15.5558  104.5901 H   0  0  0  0  0  0
   19.7766   16.7236  106.2780 H   0  0  0  0  0  0
   17.7041   14.5137  106.8648 H   0  0  0  0  0  0
   18.0321   16.1395  107.4306 H   0  0  0  0  0  0
   14.8590   15.5901  110.1617 H   0  0  0  0  0  0
   14.2709   17.7106  111.2156 H   0  0  0  0  0  0
   15.9540   19.4898  111.4330 H   0  0  0  0  0  0
   18.2594   19.1418  110.6096 H   0  0  0  0  0  0
   18.8660   17.0353  109.5273 H   0  0  0  0  0  0
   17.1977   12.4710  111.0798 H   0  0  0  0  0  0
   17.1183   13.8594  113.5757 H   0  0  0  0  0  0
   16.6701   12.1904  113.2766 H   0  0  0  0  0  0
   15.6968   13.4705  109.6511 H   0  0  0  0  0  0
   16.5750   12.9105  108.2793 H   0  0  0  0  0  0
   18.4773   12.2244  114.9322 H   0  0  0  0  0  0
   19.1183   11.5622  113.4292 H   0  0  0  0  0  0
   19.4961   13.2203  113.9082 H   0  0  0  0  0  0
   15.4031   15.2310  107.2216 H   0  0  0  0  0  0
   14.2188   14.7511  108.3818 H   0  0  0  0  0  0
   13.4641   13.7011  106.4393 H   0  0  0  0  0  0
   14.2166   12.4495  107.3588 H   0  0  0  0  0  0
   16.1059   12.2467  105.9894 H   0  0  0  0  0  0
   15.9608   13.8178  105.3024 H   0  0  0  0  0  0
   14.5402   10.4451  105.3587 H   0  0  0  0  0  0
   13.5313   10.6768  103.9377 H   0  0  0  0  0  0
   13.0630   11.4022  105.4702 H   0  0  0  0  0  0
   14.4730   14.1765  103.4331 H   0  0  0  0  0  0
   13.5115   12.8490  102.8053 H   0  0  0  0  0  0
   13.0122   13.6650  104.2866 H   0  0  0  0  0  0
  1  6  1  0  0  0
  1  2  2  0  0  0
  1 32  1  0  0  0
  2  3  1  0  0  0
  2 33  1  0  0  0
  3  4  2  0  0  0
  3  8  1  0  0  0
  4  5  1  0  0  0
  4 34  1  0  0  0
  5  9  1  0  0  0
  5  6  2  0  0  0
  6  7  1  0  0  0
  9 10  2  0  0  0
  9 13  1  0  0  0
 10 11  1  0  0  0
 11 20  1  0  0  0
 11 12  1  0  0  0
 12 24  1  0  0  0
 12 13  1  0  0  0
 12 14  1  0  0  0
 13 35  1  0  0  0
 13 36  1  0  0  0
 14 15  2  0  0  0
 14 19  1  0  0  0
 15 16  1  0  0  0
 15 37  1  0  0  0
 16 17  2  0  0  0
 16 38  1  0  0  0
 17 18  1  0  0  0
 17 39  1  0  0  0
 18 19  2  0  0  0
 18 40  1  0  0  0
 19 41  1  0  0  0
 20 21  1  0  0  0
 20 22  2  0  0  0
 21 23  1  0  0  0
 21 42  1  0  0  0
 23 25  1  0  0  0
 23 43  1  0  0  0
 23 44  1  0  0  0
 24 26  1  0  0  0
 24 45  1  0  0  0
 24 46  1  0  0  0
 25 47  1  0  0  0
 25 48  1  0  0  0
 25 49  1  0  0  0
 26 27  1  0  0  0
 26 50  1  0  0  0
 26 51  1  0  0  0
 27 28  1  0  0  0
 27 52  1  0  0  0
 27 53  1  0  0  0
 28 29  1  0  0  0
 28 54  1  0  0  0
 28 55  1  0  0  0
 29 30  1  0  0  0
 29 31  1  0  0  0
 30 56  1  0  0  0
 30 57  1  0  0  0
 30 58  1  0  0  0
 31 59  1  0  0  0
 31 60  1  0  0  0
 31 61  1  0  0  0
M  END
> <s_m_entry_id>
334

> <s_m_entry_name>
dock_pv.333

> <s_m_Source_Path>
/home/csk/Desktop/cluster/DUD-E-result/kif11

> <s_m_Source_File>
dock_pv.maegz

> <i_m_Source_File_Index>
333

> <chembl_id>
CHEMBL210672

> <chembl_pref_name>
None

> <i_lp_mmshare_version>
53161

> <i_f3d_flags>
0

> <r_lp_tautomer_probability>
1

> <s_lp_Force_Field>
OPLS_2005

> <r_lp_Energy>
41.324063

> <b_lp_Chiralities_Consistent>
1

> <s_lp_Variant>
CHEMBL4581_lig97-1

> <s_i_glide_gridfile>
glide-grid_3cjo

> <i_i_glide_lignum>
162

> <i_i_glide_rotatable_bonds>
10

> <r_i_docking_score>
-7.58373798602282

> <r_i_glide_ligand_efficiency>
-0.244636709226543

> <r_i_glide_ligand_efficiency_sa>
-0.76849702434929

> <r_i_glide_ligand_efficiency_ln>
-1.71036532950559

> <r_i_glide_gscore>
-7.58373798602282

> <r_i_glide_lipo>
-3.53130535509763

> <r_i_glide_hbond>
0

> <r_i_glide_metal>
0

> <r_i_glide_rewards>
-2.16821488295524

> <r_i_glide_evdw>
-47.6931457519531

> <r_i_glide_ecoul>
-2.43320679664612

> <r_i_glide_erotb>
0.865420559124623

> <r_i_glide_esite>
0

> <r_i_glide_emodel>
-69.5631907458264

> <r_i_glide_energy>
-50.1263525485992

> <r_i_glide_einternal>
7.47430562973022

> <i_i_glide_confnum>
24

> <i_i_glide_posenum>
175

> <r_i_glide_eff_state_penalty>
0

> <s_user_duplicate_titles>
CHEMBL4581_lig97

> <s_m_subgroup_title>
dock_pv

> <s_m_subgroupid>
dock_pv

> <b_m_subgroup_collapsed>
1

$$$$
CHEMBL4581_lig754
                    3D
 Schrodinger Suite 2021-1.
 42 44  0  0  1  0            999 V2000
   18.3519   15.1947  108.6265 C   0  0  0  0  0  0
   17.4473   15.4246  107.6278 C   0  0  0  0  0  0
   15.9627   16.6881  109.0860 C   0  0  0  0  0  0
   18.1703   15.8120  110.0359 C   0  0  1  0  0  0
   16.3202   16.2236  107.8250 N   0  0  0  0  0  0
   16.8664   16.4895  110.0856 N   0  0  0  0  0  0
   19.6161   14.4483  108.4109 C   0  0  0  0  0  0
   18.3699   14.8860  111.2366 C   0  0  0  0  0  0
   14.5656   17.4770  109.5599 S   0  0  0  0  0  0
   19.8888   13.4856  109.1296 O   0  0  0  0  0  0
   17.5182   13.7928  111.4457 C   0  0  0  0  0  0
   20.5476   14.8602  107.3044 C   0  0  0  0  0  0
   17.5387   14.7650  106.2383 C   0  0  0  0  0  0
   15.4323   16.6225  106.7027 C   0  0  0  0  0  0
   17.6594   13.0020  112.5870 C   0  0  0  0  0  0
   16.8138   11.9582  112.8301 O   0  0  0  0  0  0
   19.3761   15.1585  112.1663 C   0  0  0  0  0  0
   19.5159   14.3627  113.3042 C   0  0  0  0  0  0
   20.5213   16.1631  106.7788 C   0  0  0  0  0  0
   21.5197   13.9622  106.8387 C   0  0  0  0  0  0
   18.6565   13.2865  113.5151 C   0  0  0  0  0  0
   22.4401   14.3618  105.8697 C   0  0  0  0  0  0
   21.4362   16.5568  105.8041 C   0  0  0  0  0  0
   22.3963   15.6544  105.3595 C   0  0  0  0  0  0
   18.8893   16.6307  110.1122 H   0  0  0  0  0  0
   16.6093   16.9544  110.9450 H   0  0  0  0  0  0
   16.7408   13.5733  110.7271 H   0  0  0  0  0  0
   18.2491   13.9420  106.1929 H   0  0  0  0  0  0
   16.5839   14.3340  105.9369 H   0  0  0  0  0  0
   17.8490   15.4910  105.4900 H   0  0  0  0  0  0
   15.1017   17.6594  106.7804 H   0  0  0  0  0  0
   15.9224   16.5664  105.7336 H   0  0  0  0  0  0
   14.5508   15.9803  106.6742 H   0  0  0  0  0  0
   16.1446   11.7886  112.1592 H   0  0  0  0  0  0
   20.0387   15.9977  112.0213 H   0  0  0  0  0  0
   20.2895   14.5856  114.0247 H   0  0  0  0  0  0
   19.8087   16.8961  107.1300 H   0  0  0  0  0  0
   21.5766   12.9545  107.2262 H   0  0  0  0  0  0
   18.7602   12.6823  114.4041 H   0  0  0  0  0  0
   23.1798   13.6616  105.5086 H   0  0  0  0  0  0
   21.4079   17.5620  105.4048 H   0  0  0  0  0  0
   23.1151   15.9514  104.6098 H   0  0  0  0  0  0
  1  2  2  0  0  0
  1  4  1  0  0  0
  1  7  1  0  0  0
  2  5  1  0  0  0
  2 13  1  0  0  0
  3  6  1  0  0  0
  3  9  2  0  0  0
  3  5  1  0  0  0
  4  6  1  0  0  0
  4  8  1  0  0  0
  4 25  1  0  0  0
  5 14  1  0  0  0
  6 26  1  0  0  0
  7 10  2  0  0  0
  7 12  1  0  0  0
  8 11  2  0  0  0
  8 17  1  0  0  0
 11 15  1  0  0  0
 11 27  1  0  0  0
 12 19  2  0  0  0
 12 20  1  0  0  0
 13 28  1  0  0  0
 13 29  1  0  0  0
 13 30  1  0  0  0
 14 31  1  0  0  0
 14 32  1  0  0  0
 14 33  1  0  0  0
 15 16  1  0  0  0
 15 21  2  0  0  0
 16 34  1  0  0  0
 17 18  2  0  0  0
 17 35  1  0  0  0
 18 21  1  0  0  0
 18 36  1  0  0  0
 19 23  1  0  0  0
 19 37  1  0  0  0
 20 22  2  0  0  0
 20 38  1  0  0  0
 21 39  1  0  0  0
 22 24  1  0  0  0
 22 40  1  0  0  0
 23 24  2  0  0  0
 23 41  1  0  0  0
 24 42  1  0  0  0
M  END
> <s_m_entry_id>
335

> <s_m_entry_name>
dock_pv.334

> <s_m_Source_Path>
/home/csk/Desktop/cluster/DUD-E-result/kif11

> <s_m_Source_File>
dock_pv.maegz

> <i_m_Source_File_Index>
334

> <chembl_id>
CHEMBL1213953

> <chembl_pref_name>
None

> <i_lp_mmshare_version>
53161

> <i_f3d_flags>
0

> <r_lp_tautomer_probability>
0.999999999997365

> <s_lp_Force_Field>
OPLS_2005

> <r_lp_Energy>
50.208181

> <b_lp_Chiralities_Consistent>
1

> <s_lp_Variant>
CHEMBL4581_lig754-2

> <s_i_glide_gridfile>
glide-grid_3cjo

> <i_i_glide_lignum>
1115

> <i_i_glide_rotatable_bonds>
4

> <r_i_docking_score>
-7.58111060931394

> <r_i_glide_ligand_efficiency>
-0.315879608721414

> <r_i_glide_ligand_efficiency_sa>
-0.911154458929431

> <r_i_glide_ligand_efficiency_ln>
-1.81450764330688

> <r_i_glide_gscore>
-7.58111060931394

> <r_i_glide_lipo>
-3.79074075518588

> <r_i_glide_hbond>
-0.206416336710178

> <r_i_glide_metal>
0

> <r_i_glide_rewards>
-1.68649836778614

> <r_i_glide_evdw>
-42.5312881469727

> <r_i_glide_ecoul>
-1.77508080005646

> <r_i_glide_erotb>
0.495371377725353

> <r_i_glide_esite>
0

> <r_i_glide_emodel>
-63.4057174520101

> <r_i_glide_energy>
-44.3063689470291

> <r_i_glide_einternal>
2.60603857040405

> <i_i_glide_confnum>
3

> <i_i_glide_posenum>
320

> <r_i_glide_eff_state_penalty>
0

> <s_user_duplicate_titles>
CHEMBL4581_lig754,CHEMBL4581_lig256,485219

> <s_m_subgroup_title>
dock_pv

> <s_m_subgroupid>
dock_pv

> <b_m_subgroup_collapsed>
1

$$$$
CHEMBL4581_lig578
                    3D
 Schrodinger Suite 2021-1.
 51 54  0  0  1  0            999 V2000
   17.5196   12.4920  112.2661 C   0  0  0  0  0  0
   18.6215   13.1628  112.7803 C   0  0  0  0  0  0
   18.9843   14.3951  112.2496 C   0  0  0  0  0  0
   16.7805   13.0518  111.2271 C   0  0  0  0  0  0
   17.1068   14.3069  110.6821 C   0  0  0  0  0  0
   18.2138   14.9802  111.2436 C   0  0  0  0  0  0
   18.6874   16.5563  110.6392 S   0  0  0  0  0  0
   16.2137   14.9887  109.8246 N   0  0  0  0  0  0
   16.0077   16.3722  109.9728 C   0  0  0  0  0  0
   17.0710   17.1979  110.3920 C   0  0  0  0  0  0
   16.8814   18.5623  110.5641 C   0  0  0  0  0  0
   15.6180   19.1272  110.4272 C   0  0  0  0  0  0
   14.5326   18.3126  110.1242 C   0  0  0  0  0  0
   14.7242   16.9472  109.9179 C   0  0  0  0  0  0
   12.9483   18.9875  110.0147 Cl  0  0  0  0  0  0
   15.2954   14.2150  108.9543 C   0  0  0  0  0  0
   15.9633   13.5005  107.7435 C   0  0  1  0  0  0
   16.3293   14.4136  106.5467 C   0  0  0  0  0  0
   17.3366   15.3863  106.9364 N   0  0  1  0  0  0
   17.1076   12.7588  108.1182 O   0  0  0  0  0  0
   18.0234   16.0416  105.8389 C   0  0  0  0  0  0
   19.3306   16.6465  106.3927 C   0  0  0  0  0  0
   20.3915   15.5896  106.6548 C   0  0  0  0  0  0
   20.2531   14.7286  107.7479 C   0  0  0  0  0  0
   21.1182   13.6551  107.9025 C   0  0  0  0  0  0
   22.1232   13.4586  106.9612 C   0  0  0  0  0  0
   22.3227   14.3605  105.9168 C   0  0  0  0  0  0
   21.4513   15.4312  105.7602 C   0  0  0  0  0  0
   17.2149   11.5528  112.6940 H   0  0  0  0  0  0
   19.1892   12.7299  113.5910 H   0  0  0  0  0  0
   19.8428   14.9163  112.6484 H   0  0  0  0  0  0
   15.9182   12.5045  110.8825 H   0  0  0  0  0  0
   17.7306   19.1621  110.8468 H   0  0  0  0  0  0
   15.4818   20.1870  110.5887 H   0  0  0  0  0  0
   13.8503   16.3481  109.7190 H   0  0  0  0  0  0
   14.6574   13.5494  109.5331 H   0  0  0  0  0  0
   14.5805   14.8842  108.4797 H   0  0  0  0  0  0
   15.2443   12.7690  107.3703 H   0  0  0  0  0  0
   16.7039   13.7881  105.7330 H   0  0  0  0  0  0
   15.4439   14.9288  106.1718 H   0  0  0  0  0  0
   16.9892   16.0297  107.6338 H   0  0  0  0  0  0
   16.8939   11.8242  108.0206 H   0  0  0  0  0  0
   18.2892   15.2842  105.0975 H   0  0  0  0  0  0
   17.3965   16.7710  105.3291 H   0  0  0  0  0  0
   19.7238   17.3856  105.6949 H   0  0  0  0  0  0
   19.1333   17.1829  107.3218 H   0  0  0  0  0  0
   19.4325   14.8448  108.4394 H   0  0  0  0  0  0
   20.9735   12.9560  108.7123 H   0  0  0  0  0  0
   22.7393   12.5803  107.0309 H   0  0  0  0  0  0
   23.1127   14.1936  105.1992 H   0  0  0  0  0  0
   21.5678   16.0963  104.9174 H   0  0  0  0  0  0
  1  2  2  0  0  0
  1  4  1  0  0  0
  1 29  1  0  0  0
  2  3  1  0  0  0
  2 30  1  0  0  0
  3  6  2  0  0  0
  3 31  1  0  0  0
  4  5  2  0  0  0
  4 32  1  0  0  0
  5  8  1  0  0  0
  5  6  1  0  0  0
  6  7  1  0  0  0
  7 10  1  0  0  0
  8 16  1  0  0  0
  8  9  1  0  0  0
  9 14  1  0  0  0
  9 10  2  0  0  0
 10 11  1  0  0  0
 11 12  2  0  0  0
 11 33  1  0  0  0
 12 13  1  0  0  0
 12 34  1  0  0  0
 13 14  2  0  0  0
 13 15  1  0  0  0
 14 35  1  0  0  0
 16 17  1  0  0  0
 16 36  1  0  0  0
 16 37  1  0  0  0
 17 18  1  0  0  0
 17 20  1  0  0  0
 17 38  1  0  0  0
 18 19  1  0  0  0
 18 39  1  0  0  0
 18 40  1  0  0  0
 19 21  1  0  0  0
 19 41  1  0  0  0
 20 42  1  0  0  0
 21 22  1  0  0  0
 21 43  1  0  0  0
 21 44  1  0  0  0
 22 23  1  0  0  0
 22 45  1  0  0  0
 22 46  1  0  0  0
 23 24  2  0  0  0
 23 28  1  0  0  0
 24 25  1  0  0  0
 24 47  1  0  0  0
 25 26  2  0  0  0
 25 48  1  0  0  0
 26 27  1  0  0  0
 26 49  1  0  0  0
 27 28  2  0  0  0
 27 50  1  0  0  0
 28 51  1  0  0  0
M  END
> <s_m_entry_id>
336

> <s_m_entry_name>
dock_pv.335

> <s_m_Source_Path>
/home/csk/Desktop/cluster/DUD-E-result/kif11

> <s_m_Source_File>
dock_pv.maegz

> <i_m_Source_File_Index>
335

> <chembl_id>
CHEMBL1938593

> <chembl_pref_name>
None

> <i_lp_mmshare_version>
53161

> <i_f3d_flags>
0

> <r_lp_tautomer_probability>
1

> <s_lp_Force_Field>
OPLS_2005

> <r_lp_Energy>
38.990105

> <b_lp_Chiralities_Consistent>
1

> <s_lp_Variant>
CHEMBL4581_lig578-2

> <s_i_glide_gridfile>
glide-grid_3cjo

> <i_i_glide_lignum>
887

> <i_i_glide_rotatable_bonds>
8

> <r_i_docking_score>
-7.57720563383751

> <r_i_glide_ligand_efficiency>
-0.270614486922768

> <r_i_glide_ligand_efficiency_sa>
-0.821744965706728

> <r_i_glide_ligand_efficiency_ln>
-1.74904153671431

> <r_i_glide_gscore>
-7.57720563383751

> <r_i_glide_lipo>
-4.52212672482684

> <r_i_glide_hbond>
-0.32

> <r_i_glide_metal>
0

> <r_i_glide_rewards>
-0.830000338330722

> <r_i_glide_evdw>
-41.0284156799316

> <r_i_glide_ecoul>
-2.91356444358826

> <r_i_glide_erotb>
0.583376879854866

> <r_i_glide_esite>
0

> <r_i_glide_emodel>
-62.365844985215

> <r_i_glide_energy>
-43.9419801235199

> <r_i_glide_einternal>
4.98719310760498

> <i_i_glide_confnum>
250

> <i_i_glide_posenum>
123

> <r_i_glide_eff_state_penalty>
0

> <s_user_duplicate_titles>
CHEMBL4581_lig578

> <s_m_subgroup_title>
dock_pv

> <s_m_subgroupid>
dock_pv

> <b_m_subgroup_collapsed>
1

$$$$
CHEMBL4581_lig93
                    3D
 Schrodinger Suite 2021-1.
 66 69  0  0  1  0            999 V2000
   22.5612   14.0191  105.9931 C   0  0  0  0  0  0
   22.7185   15.1476  105.1962 C   0  0  0  0  0  0
   21.8578   16.2296  105.3590 C   0  0  0  0  0  0
   20.8435   16.1792  106.3143 C   0  0  0  0  0  0
   20.6867   15.0506  107.1374 C   0  0  0  0  0  0
   21.5652   13.9618  106.9616 C   0  0  0  0  0  0
   21.5184   12.8671  107.7586 F   0  0  0  0  0  0
   21.9864   17.3191  104.5714 F   0  0  0  0  0  0
   19.6372   15.0374  108.1742 C   0  0  0  0  0  0
   19.5461   14.2094  109.1324 N   0  0  0  0  0  0
   18.4794   14.4863  109.9240 N   0  0  0  0  0  0
   17.6462   15.5855  109.3793 C   0  0  1  0  0  0
   18.5440   16.0681  108.2234 C   0  0  0  0  0  0
   16.2924   15.0101  108.8635 C   0  0  0  0  0  0
   16.3011   14.0327  107.8531 C   0  0  0  0  0  0
   15.1116   13.5488  107.3200 C   0  0  0  0  0  0
   13.8934   14.0185  107.7988 C   0  0  0  0  0  0
   13.8605   14.9660  108.8151 C   0  0  0  0  0  0
   15.0494   15.4482  109.3533 C   0  0  0  0  0  0
   18.4774   14.0373  111.2024 C   0  0  0  0  0  0
   17.4393   13.2257  111.4808 N   0  0  0  0  0  0
   19.3684   14.3112  112.0088 O   0  0  0  0  0  0
   17.3081   12.3516  112.6533 C   0  0  0  0  0  0
   17.4919   16.7584  110.4154 C   0  0  0  0  0  0
   17.4176   13.0365  114.0309 C   0  0  0  0  0  0
   16.8873   18.0731  109.8585 C   0  0  0  0  0  0
   16.0846   18.8362  110.9217 C   0  0  0  0  0  0
   15.2789   20.0264  110.3655 C   0  0  0  0  0  0
   14.6397   20.8012  111.4307 N   0  0  0  0  0  0
   13.5153   20.4200  112.0693 C   0  0  0  0  0  0
   13.0866   21.2529  113.2602 C   0  0  0  0  0  0
   12.8789   19.4151  111.7388 O   0  0  0  0  0  0
   12.2527   20.6475  114.1565 N   0  0  0  0  0  0
   11.8380   21.3503  115.2428 C   0  0  0  0  0  0
   12.2308   22.6667  115.4843 C   0  0  0  0  0  0
   13.0859   23.2824  114.5697 C   0  0  0  0  0  0
   13.5205   22.5771  113.4444 C   0  0  0  0  0  0
   23.1895   13.1619  105.8521 H   0  0  0  0  0  0
   23.4814   15.1630  104.4331 H   0  0  0  0  0  0
   20.2011   17.0432  106.4072 H   0  0  0  0  0  0
   18.0030   16.1230  107.2768 H   0  0  0  0  0  0
   18.9874   17.0483  108.4090 H   0  0  0  0  0  0
   17.2333   13.6525  107.4599 H   0  0  0  0  0  0
   15.1349   12.7983  106.5430 H   0  0  0  0  0  0
   12.9708   13.6384  107.3850 H   0  0  0  0  0  0
   12.9138   15.3287  109.1902 H   0  0  0  0  0  0
   14.9693   16.1789  110.1401 H   0  0  0  0  0  0
   16.7611   13.0778  110.7462 H   0  0  0  0  0  0
   16.3387   11.8517  112.5871 H   0  0  0  0  0  0
   18.0580   11.5630  112.5786 H   0  0  0  0  0  0
   18.4659   16.9992  110.8486 H   0  0  0  0  0  0
   16.9040   16.4010  111.2630 H   0  0  0  0  0  0
   17.2023   12.3258  114.8300 H   0  0  0  0  0  0
   18.4250   13.4090  114.2163 H   0  0  0  0  0  0
   16.7186   13.8642  114.1357 H   0  0  0  0  0  0
   16.2424   17.8667  109.0048 H   0  0  0  0  0  0
   17.6813   18.7155  109.4715 H   0  0  0  0  0  0
   16.7600   19.1619  111.7139 H   0  0  0  0  0  0
   15.3829   18.1529  111.4043 H   0  0  0  0  0  0
   14.5426   19.6678  109.6417 H   0  0  0  0  0  0
   15.9183   20.6786  109.7657 H   0  0  0  0  0  0
   15.1223   21.6384  111.7385 H   0  0  0  0  0  0
   11.1736   20.8431  115.9297 H   0  0  0  0  0  0
   11.8766   23.1962  116.3592 H   0  0  0  0  0  0
   13.4105   24.3004  114.7292 H   0  0  0  0  0  0
   14.1825   23.0656  112.7434 H   0  0  0  0  0  0
  1  6  1  0  0  0
  1  2  2  0  0  0
  1 38  1  0  0  0
  2  3  1  0  0  0
  2 39  1  0  0  0
  3  4  2  0  0  0
  3  8  1  0  0  0
  4  5  1  0  0  0
  4 40  1  0  0  0
  5  9  1  0  0  0
  5  6  2  0  0  0
  6  7  1  0  0  0
  9 10  2  0  0  0
  9 13  1  0  0  0
 10 11  1  0  0  0
 11 20  1  0  0  0
 11 12  1  0  0  0
 12 24  1  0  0  0
 12 13  1  0  0  0
 12 14  1  0  0  0
 13 41  1  0  0  0
 13 42  1  0  0  0
 14 19  1  0  0  0
 14 15  2  0  0  0
 15 16  1  0  0  0
 15 43  1  0  0  0
 16 17  2  0  0  0
 16 44  1  0  0  0
 17 18  1  0  0  0
 17 45  1  0  0  0
 18 19  2  0  0  0
 18 46  1  0  0  0
 19 47  1  0  0  0
 20 21  1  0  0  0
 20 22  2  0  0  0
 21 23  1  0  0  0
 21 48  1  0  0  0
 23 25  1  0  0  0
 23 49  1  0  0  0
 23 50  1  0  0  0
 24 26  1  0  0  0
 24 51  1  0  0  0
 24 52  1  0  0  0
 25 53  1  0  0  0
 25 54  1  0  0  0
 25 55  1  0  0  0
 26 27  1  0  0  0
 26 56  1  0  0  0
 26 57  1  0  0  0
 27 28  1  0  0  0
 27 58  1  0  0  0
 27 59  1  0  0  0
 28 29  1  0  0  0
 28 60  1  0  0  0
 28 61  1  0  0  0
 29 30  1  0  0  0
 29 62  1  0  0  0
 30 31  1  0  0  0
 30 32  2  0  0  0
 31 33  2  0  0  0
 31 37  1  0  0  0
 33 34  1  0  0  0
 34 35  2  0  0  0
 34 63  1  0  0  0
 35 36  1  0  0  0
 35 64  1  0  0  0
 36 37  2  0  0  0
 36 65  1  0  0  0
 37 66  1  0  0  0
M  END
> <s_m_entry_id>
337

> <s_m_entry_name>
dock_pv.336

> <s_m_Source_Path>
/home/csk/Desktop/cluster/DUD-E-result/kif11

> <s_m_Source_File>
dock_pv.maegz

> <i_m_Source_File_Index>
336

> <chembl_id>
CHEMBL425420

> <chembl_pref_name>
None

> <i_lp_mmshare_version>
53161

> <i_f3d_flags>
0

> <r_lp_tautomer_probability>
1

> <s_lp_Force_Field>
OPLS_2005

> <r_lp_Energy>
37.305848

> <b_lp_Chiralities_Consistent>
1

> <s_lp_Variant>
CHEMBL4581_lig93-2

> <s_i_glide_gridfile>
glide-grid_3cjo

> <i_i_glide_lignum>
153

> <i_i_glide_rotatable_bonds>
12

> <r_i_docking_score>
-7.57488423967994

> <r_i_glide_ligand_efficiency>
-0.204726601072431

> <r_i_glide_ligand_efficiency_sa>
-0.682194452885642

> <r_i_glide_ligand_efficiency_ln>
-1.64281481110471

> <r_i_glide_gscore>
-7.57488423967994

> <r_i_glide_lipo>
-3.4906086241042

> <r_i_glide_hbond>
-0.0313995780132889

> <r_i_glide_metal>
0

> <r_i_glide_rewards>
-1.67062958497337

> <r_i_glide_evdw>
-48.7966766357422

> <r_i_glide_ecoul>
-4.63941478729248

> <r_i_glide_erotb>
0.800272380830385

> <r_i_glide_esite>
-0.0467727835384932

> <r_i_glide_emodel>
-73.9640567980597

> <r_i_glide_energy>
-53.4360914230347

> <r_i_glide_einternal>
10.1958608627319

> <i_i_glide_confnum>
1

> <i_i_glide_posenum>
329

> <r_i_glide_eff_state_penalty>
0

> <s_user_duplicate_titles>
CHEMBL4581_lig93

> <s_m_subgroup_title>
dock_pv

> <s_m_subgroupid>
dock_pv

> <b_m_subgroup_collapsed>
1

$$$$
CHEMBL4581_lig302
                    3D
 Schrodinger Suite 2021-1.
 47 50  0  0  1  0            999 V2000
   18.8939   16.1368  107.1593 N   0  0  0  0  0  0
   19.9286   14.4217  108.1787 C   0  0  0  0  0  0
   18.7795   15.1903  108.1461 C   0  0  0  0  0  0
   17.5516   14.9804  109.0361 C   0  0  1  0  0  0
   17.8550   13.8833  109.9960 N   0  0  0  0  0  0
   19.2554   13.7887  110.4763 C   0  0  0  0  0  0
   20.1377   13.3783  109.2689 C   0  0  0  0  0  0
   20.1000   15.9988  106.5109 C   0  0  0  0  0  0
   20.7179   14.8316  107.0538 C   0  0  0  0  0  0
   21.8974   14.3610  106.4641 C   0  0  0  0  0  0
   22.4471   15.0760  105.4058 C   0  0  0  0  0  0
   21.8979   16.2811  104.9768 C   0  0  0  0  0  0
   20.6968   16.7615  105.5010 C   0  0  0  0  0  0
   17.0885   16.2676  109.7122 C   0  0  0  0  0  0
   18.0106   17.1998  110.2011 C   0  0  0  0  0  0
   17.5654   18.3620  110.8176 C   0  0  0  0  0  0
   16.1989   18.6015  110.9585 C   0  0  0  0  0  0
   15.2740   17.6656  110.5038 C   0  0  0  0  0  0
   15.7188   16.4976  109.8868 C   0  0  0  0  0  0
   16.8515   13.1031  110.4810 C   0  0  0  0  0  0
   15.6729   13.2789  110.1655 O   0  0  0  0  0  0
   17.1833   11.8723  111.3452 C   0  0  0  0  0  0
   16.9743   12.0148  112.8668 C   0  0  0  0  0  0
   17.6264   13.1824  113.4378 N   0  0  0  0  0  0
   13.9346   17.8975  110.6611 O   0  0  0  0  0  0
   23.5180   14.5513  104.7499 O   0  0  0  0  0  0
   18.1812   16.8325  106.9961 H   0  0  0  0  0  0
   16.7159   14.6710  108.4049 H   0  0  0  0  0  0
   19.3996   13.1724  111.3623 H   0  0  0  0  0  0
   19.5483   14.7811  110.8221 H   0  0  0  0  0  0
   21.1816   13.3670  109.5796 H   0  0  0  0  0  0
   19.9071   12.3623  108.9538 H   0  0  0  0  0  0
   22.3568   13.4515  106.8188 H   0  0  0  0  0  0
   22.3625   16.8125  104.1595 H   0  0  0  0  0  0
   20.2383   17.6593  105.1160 H   0  0  0  0  0  0
   19.0733   17.0326  110.1017 H   0  0  0  0  0  0
   18.2819   19.0827  111.1841 H   0  0  0  0  0  0
   15.8595   19.5091  111.4356 H   0  0  0  0  0  0
   15.0030   15.7696  109.5340 H   0  0  0  0  0  0
   18.2032   11.5608  111.1664 H   0  0  0  0  0  0
   16.5850   11.0424  110.9699 H   0  0  0  0  0  0
   17.4213   11.1622  113.3590 H   0  0  0  0  0  0
   15.9180   11.9620  113.1291 H   0  0  0  0  0  0
   17.2004   14.0277  113.0855 H   0  0  0  0  0  0
   17.5013   13.1896  114.4406 H   0  0  0  0  0  0
   13.3821   17.2364  110.2396 H   0  0  0  0  0  0
   23.6692   13.6354  104.9928 H   0  0  0  0  0  0
  1  8  1  0  0  0
  1  3  1  0  0  0
  1 27  1  0  0  0
  2  7  1  0  0  0
  2  9  1  0  0  0
  2  3  2  0  0  0
  3  4  1  0  0  0
  4  5  1  0  0  0
  4 14  1  0  0  0
  4 28  1  0  0  0
  5  6  1  0  0  0
  5 20  1  0  0  0
  6  7  1  0  0  0
  6 29  1  0  0  0
  6 30  1  0  0  0
  7 31  1  0  0  0
  7 32  1  0  0  0
  8 13  1  0  0  0
  8  9  2  0  0  0
  9 10  1  0  0  0
 10 11  2  0  0  0
 10 33  1  0  0  0
 11 12  1  0  0  0
 11 26  1  0  0  0
 12 13  2  0  0  0
 12 34  1  0  0  0
 13 35  1  0  0  0
 14 15  2  0  0  0
 14 19  1  0  0  0
 15 16  1  0  0  0
 15 36  1  0  0  0
 16 17  2  0  0  0
 16 37  1  0  0  0
 17 18  1  0  0  0
 17 38  1  0  0  0
 18 19  2  0  0  0
 18 25  1  0  0  0
 19 39  1  0  0  0
 20 21  2  0  0  0
 20 22  1  0  0  0
 22 23  1  0  0  0
 22 40  1  0  0  0
 22 41  1  0  0  0
 23 24  1  0  0  0
 23 42  1  0  0  0
 23 43  1  0  0  0
 24 44  1  0  0  0
 24 45  1  0  0  0
 25 46  1  0  0  0
 26 47  1  0  0  0
M  END
> <s_m_entry_id>
338

> <s_m_entry_name>
dock_pv.337

> <s_m_Source_Path>
/home/csk/Desktop/cluster/DUD-E-result/kif11

> <s_m_Source_File>
dock_pv.maegz

> <i_m_Source_File_Index>
337

> <chembl_id>
CHEMBL604670

> <chembl_pref_name>
None

> <i_lp_mmshare_version>
53161

> <i_f3d_flags>
0

> <r_lp_tautomer_probability>
0.999999999997365

> <s_lp_Force_Field>
OPLS_2005

> <r_lp_Energy>
20.377629

> <b_lp_Chiralities_Consistent>
1

> <s_lp_Variant>
CHEMBL4581_lig302-2

> <s_i_glide_gridfile>
glide-grid_3cjo

> <i_i_glide_lignum>
443

> <i_i_glide_rotatable_bonds>
6

> <r_i_docking_score>
-7.57304374300926

> <r_i_glide_ligand_efficiency>
-0.291270913192664

> <r_i_glide_ligand_efficiency_sa>
-0.862888934237566

> <r_i_glide_ligand_efficiency_ln>
-1.77850447386241

> <r_i_glide_gscore>
-7.57304374300926

> <r_i_glide_lipo>
-4.37300552566758

> <r_i_glide_hbond>
0

> <r_i_glide_metal>
0

> <r_i_glide_rewards>
-1.53760463227415

> <r_i_glide_evdw>
-41.8409156799316

> <r_i_glide_ecoul>
-0.225039377808571

> <r_i_glide_erotb>
0.463368105600331

> <r_i_glide_esite>
0

> <r_i_glide_emodel>
-56.2451733933174

> <r_i_glide_energy>
-42.0659550577402

> <r_i_glide_einternal>
2.97288036346436

> <i_i_glide_confnum>
2

> <i_i_glide_posenum>
231

> <r_i_glide_eff_state_penalty>
0

> <s_user_duplicate_titles>
CHEMBL4581_lig302

> <s_m_subgroup_title>
dock_pv

> <s_m_subgroupid>
dock_pv

> <b_m_subgroup_collapsed>
1

$$$$
CHEMBL4581_lig775
                    3D
 Schrodinger Suite 2021-1.
 47 50  0  0  1  0            999 V2000
   16.5733   15.4011  108.2991 C   0  0  2  0  0  0
   15.2611   14.8651  107.6019 C   0  0  2  0  0  0
   13.9927   15.0862  108.4639 C   0  0  0  0  0  0
   13.8495   16.4519  108.8393 O   0  0  0  0  0  0
   17.6019   15.9619  106.9278 S   0  0  0  0  0  0
   19.0050   15.0657  107.5731 C   0  0  0  0  0  0
   18.7493   14.3136  108.5632 N   0  0  0  0  0  0
   17.4504   14.3986  108.9690 N   0  0  0  0  0  0
   20.3141   15.2183  106.9010 C   0  0  0  0  0  0
   20.5635   16.3618  106.1214 C   0  0  0  0  0  0
   21.7207   16.4716  105.3587 C   0  0  0  0  0  0
   22.6497   15.4393  105.3588 C   0  0  0  0  0  0
   22.4480   14.3212  106.1588 C   0  0  0  0  0  0
   21.3089   14.2210  106.9583 C   0  0  0  0  0  0
   17.0454   13.7030  110.0761 C   0  0  0  0  0  0
   18.0111   12.7622  110.8089 C   0  0  0  0  0  0
   15.9189   13.7967  110.5588 O   0  0  0  0  0  0
   21.2204   13.1634  107.7993 F   0  0  0  0  0  0
   21.9178   17.5594  104.5828 F   0  0  0  0  0  0
   16.2712   16.6060  109.2097 C   0  0  0  0  0  0
   14.9464   17.0210  109.4448 C   0  0  0  0  0  0
   14.6641   18.0979  110.2839 C   0  0  0  0  0  0
   15.7007   18.7694  110.9246 C   0  0  0  0  0  0
   17.0173   18.3627  110.7282 C   0  0  0  0  0  0
   17.2949   17.2949  109.8816 C   0  0  0  0  0  0
   15.3220   13.4435  106.9947 C   0  0  0  0  0  0
   14.1475   13.0899  106.0586 C   0  0  0  0  0  0
   14.4178   11.8490  105.3590 N   0  0  0  0  0  0
   15.0619   15.5216  106.7508 H   0  0  0  0  0  0
   13.9706   14.4358  109.3347 H   0  0  0  0  0  0
   13.0977   14.8391  107.8933 H   0  0  0  0  0  0
   19.8597   17.1796  106.0703 H   0  0  0  0  0  0
   23.5185   15.5033  104.7292 H   0  0  0  0  0  0
   23.1798   13.5293  106.1621 H   0  0  0  0  0  0
   18.7886   12.3688  110.1583 H   0  0  0  0  0  0
   18.4878   13.2881  111.6358 H   0  0  0  0  0  0
   17.4647   11.9099  111.2139 H   0  0  0  0  0  0
   13.6419   18.4131  110.4338 H   0  0  0  0  0  0
   15.4865   19.6045  111.5755 H   0  0  0  0  0  0
   17.8234   18.8755  111.2326 H   0  0  0  0  0  0
   18.3252   16.9991  109.7453 H   0  0  0  0  0  0
   16.2585   13.3382  106.4427 H   0  0  0  0  0  0
   15.3728   12.7318  107.8139 H   0  0  0  0  0  0
   13.2229   12.9781  106.6264 H   0  0  0  0  0  0
   13.9856   13.8766  105.3203 H   0  0  0  0  0  0
   14.7467   11.1630  106.0349 H   0  0  0  0  0  0
   13.5615   11.4771  104.9726 H   0  0  0  0  0  0
  1  2  1  0  0  0
  1 20  1  0  0  0
  1  8  1  0  0  0
  1  5  1  0  0  0
  2  3  1  0  0  0
  2 26  1  0  0  0
  2 29  1  0  0  0
  3  4  1  0  0  0
  3 30  1  0  0  0
  3 31  1  0  0  0
  4 21  1  0  0  0
  5  6  1  0  0  0
  6  7  2  0  0  0
  6  9  1  0  0  0
  7  8  1  0  0  0
  8 15  1  0  0  0
  9 10  2  0  0  0
  9 14  1  0  0  0
 10 11  1  0  0  0
 10 32  1  0  0  0
 11 12  2  0  0  0
 11 19  1  0  0  0
 12 13  1  0  0  0
 12 33  1  0  0  0
 13 14  2  0  0  0
 13 34  1  0  0  0
 14 18  1  0  0  0
 15 16  1  0  0  0
 15 17  2  0  0  0
 16 35  1  0  0  0
 16 36  1  0  0  0
 16 37  1  0  0  0
 20 21  2  0  0  0
 20 25  1  0  0  0
 21 22  1  0  0  0
 22 23  2  0  0  0
 22 38  1  0  0  0
 23 24  1  0  0  0
 23 39  1  0  0  0
 24 25  2  0  0  0
 24 40  1  0  0  0
 25 41  1  0  0  0
 26 27  1  0  0  0
 26 42  1  0  0  0
 26 43  1  0  0  0
 27 28  1  0  0  0
 27 44  1  0  0  0
 27 45  1  0  0  0
 28 46  1  0  0  0
 28 47  1  0  0  0
M  END
> <s_m_entry_id>
340

> <s_m_entry_name>
dock_pv.339

> <s_m_Source_Path>
/home/csk/Desktop/cluster/DUD-E-result/kif11

> <s_m_Source_File>
dock_pv.maegz

> <i_m_Source_File_Index>
339

> <chembl_id>
CHEMBL3403382

> <chembl_pref_name>
None

> <i_lp_mmshare_version>
53161

> <i_f3d_flags>
0

> <r_lp_tautomer_probability>
1

> <s_lp_Force_Field>
OPLS_2005

> <r_lp_Energy>
34.604834

> <b_lp_Chiralities_Consistent>
1

> <s_lp_Variant>
CHEMBL4581_lig775-1

> <s_i_glide_gridfile>
glide-grid_3cjo

> <i_i_glide_lignum>
1155

> <i_i_glide_rotatable_bonds>
4

> <r_i_docking_score>
-7.56421559572284

> <r_i_glide_ligand_efficiency>
-0.270150556990101

> <r_i_glide_ligand_efficiency_sa>
-0.820336201191034

> <r_i_glide_ligand_efficiency_ln>
-1.74604305451335

> <r_i_glide_gscore>
-7.56421559572284

> <r_i_glide_lipo>
-2.82148888513136

> <r_i_glide_hbond>
-0.32

> <r_i_glide_metal>
0

> <r_i_glide_rewards>
-2.10320273972813

> <r_i_glide_evdw>
-37.4901885986328

> <r_i_glide_ecoul>
-4.57505750656128

> <r_i_glide_erotb>
0.241244085052481

> <r_i_glide_esite>
0

> <r_i_glide_emodel>
-58.6999230241605

> <r_i_glide_energy>
-42.0652461051941

> <r_i_glide_einternal>
0.764502048492432

> <i_i_glide_confnum>
9

> <i_i_glide_posenum>
51

> <r_i_glide_eff_state_penalty>
0

> <s_user_duplicate_titles>
CHEMBL4581_lig775,CHEMBL4581_lig777

> <s_m_subgroup_title>
dock_pv

> <s_m_subgroupid>
dock_pv

> <b_m_subgroup_collapsed>
1

$$$$
CHEMBL4581_lig597
                    3D
 Schrodinger Suite 2021-1.
 47 49  0  0  1  0            999 V2000
   19.4526   15.2152  107.4618 C   0  0  0  0  0  0
   18.4884   14.6853  108.5782 C   0  0  1  0  0  0
   17.5623   15.7862  109.1970 C   0  0  0  0  0  0
   16.2085   15.5542  109.5041 C   0  0  0  0  0  0
   15.4257   16.5471  110.0908 C   0  0  0  0  0  0
   15.9864   17.7787  110.4017 C   0  0  0  0  0  0
   17.3229   18.0326  110.1220 C   0  0  0  0  0  0
   18.0955   17.0444  109.5242 C   0  0  0  0  0  0
   17.5170   13.3236  107.8073 S   0  0  0  0  0  0
   16.8239   13.9948  106.2725 C   0  0  0  0  0  0
   15.9264   12.9863  105.5386 C   0  0  0  0  0  0
   19.3352   14.0783  109.7462 C   0  0  0  0  0  0
   18.6509   13.6799  111.0616 C   0  0  0  0  0  0
   19.1748   14.1649  112.2601 C   0  0  0  0  0  0
   18.7186   13.6683  113.4755 C   0  0  0  0  0  0
   17.6822   12.7456  113.5060 C   0  0  0  0  0  0
   17.1213   12.2936  112.3182 C   0  0  0  0  0  0
   17.6083   12.7492  111.0982 C   0  0  0  0  0  0
   15.9089   13.2870  104.1195 N   0  0  0  0  0  0
   20.7062   14.6224  107.1817 C   0  0  0  0  0  0
   19.8745   16.7632  105.6285 C   0  0  0  0  0  0
   19.0609   16.2878  106.6501 C   0  0  0  0  0  0
   21.1196   16.2011  105.4011 C   0  0  0  0  0  0
   21.5276   15.1097  106.1572 C   0  0  0  0  0  0
   23.0325   14.3617  105.7630 Cl  0  0  0  0  0  0
   15.7435   14.6017  109.3017 H   0  0  0  0  0  0
   14.3853   16.3629  110.3107 H   0  0  0  0  0  0
   15.3798   18.5448  110.8615 H   0  0  0  0  0  0
   17.7570   18.9915  110.3641 H   0  0  0  0  0  0
   19.1205   17.2715  109.3063 H   0  0  0  0  0  0
   16.2812   14.9202  106.4737 H   0  0  0  0  0  0
   17.6699   14.2534  105.6356 H   0  0  0  0  0  0
   16.3150   11.9726  105.6610 H   0  0  0  0  0  0
   14.9167   12.9917  105.9539 H   0  0  0  0  0  0
   19.8479   13.1765  109.4126 H   0  0  0  0  0  0
   20.1251   14.7911  109.9813 H   0  0  0  0  0  0
   19.9945   14.8688  112.2561 H   0  0  0  0  0  0
   19.1967   13.9620  114.3933 H   0  0  0  0  0  0
   17.3255   12.3614  114.4512 H   0  0  0  0  0  0
   16.3297   11.5615  112.3422 H   0  0  0  0  0  0
   17.2009   12.3196  110.1980 H   0  0  0  0  0  0
   16.8664   13.1639  103.7882 H   0  0  0  0  0  0
   15.3506   12.5987  103.6394 H   0  0  0  0  0  0
   21.0533   13.7628  107.7337 H   0  0  0  0  0  0
   19.5360   17.5775  105.0084 H   0  0  0  0  0  0
   18.0969   16.7527  106.7957 H   0  0  0  0  0  0
   21.7456   16.5796  104.6056 H   0  0  0  0  0  0
  1 20  2  0  0  0
  1  2  1  0  0  0
  1 22  1  0  0  0
  2  9  1  0  0  0
  2  3  1  0  0  0
  2 12  1  0  0  0
  3  4  2  0  0  0
  3  8  1  0  0  0
  4  5  1  0  0  0
  4 26  1  0  0  0
  5  6  2  0  0  0
  5 27  1  0  0  0
  6  7  1  0  0  0
  6 28  1  0  0  0
  7  8  2  0  0  0
  7 29  1  0  0  0
  8 30  1  0  0  0
  9 10  1  0  0  0
 10 11  1  0  0  0
 10 31  1  0  0  0
 10 32  1  0  0  0
 11 19  1  0  0  0
 11 33  1  0  0  0
 11 34  1  0  0  0
 12 13  1  0  0  0
 12 35  1  0  0  0
 12 36  1  0  0  0
 13 14  2  0  0  0
 13 18  1  0  0  0
 14 15  1  0  0  0
 14 37  1  0  0  0
 15 16  2  0  0  0
 15 38  1  0  0  0
 16 17  1  0  0  0
 16 39  1  0  0  0
 17 18  2  0  0  0
 17 40  1  0  0  0
 18 41  1  0  0  0
 19 42  1  0  0  0
 19 43  1  0  0  0
 20 24  1  0  0  0
 20 44  1  0  0  0
 21 23  1  0  0  0
 21 22  2  0  0  0
 21 45  1  0  0  0
 22 46  1  0  0  0
 23 24  2  0  0  0
 23 47  1  0  0  0
 24 25  1  0  0  0
M  END
> <s_m_entry_id>
342

> <s_m_entry_name>
dock_pv.341

> <s_m_Source_Path>
/home/csk/Desktop/cluster/DUD-E-result/kif11

> <s_m_Source_File>
dock_pv.maegz

> <i_m_Source_File_Index>
341

> <chembl_id>
CHEMBL2043405

> <chembl_pref_name>
None

> <i_lp_mmshare_version>
53161

> <i_f3d_flags>
0

> <r_lp_tautomer_probability>
1

> <s_lp_Force_Field>
OPLS_2005

> <r_lp_Energy>
23.377964

> <b_lp_Chiralities_Consistent>
1

> <s_lp_Variant>
CHEMBL4581_lig597-1

> <s_i_glide_gridfile>
glide-grid_3cjo

> <i_i_glide_lignum>
918

> <i_i_glide_rotatable_bonds>
7

> <r_i_docking_score>
-7.56337217160057

> <r_i_glide_ligand_efficiency>
-0.302534886864023

> <r_i_glide_ligand_efficiency_sa>
-0.884617374669468

> <r_i_glide_ligand_efficiency_ln>
-1.7927458606433

> <r_i_glide_gscore>
-7.56337217160057

> <r_i_glide_lipo>
-5.01341935737207

> <r_i_glide_hbond>
-0.0954634161479007

> <r_i_glide_metal>
0

> <r_i_glide_rewards>
-0.985534463770021

> <r_i_glide_evdw>
-41.8965454101562

> <r_i_glide_ecoul>
-1.51956415176392

> <r_i_glide_erotb>
0.853806958961816

> <r_i_glide_esite>
0

> <r_i_glide_emodel>
-59.3718290601063

> <r_i_glide_energy>
-43.4161095619202

> <r_i_glide_einternal>
6.38960647583008

> <i_i_glide_confnum>
63

> <i_i_glide_posenum>
242

> <r_i_glide_eff_state_penalty>
0

> <s_user_duplicate_titles>
CHEMBL4581_lig597

> <s_m_subgroup_title>
dock_pv

> <s_m_subgroupid>
dock_pv

> <b_m_subgroup_collapsed>
1

$$$$
CHEMBL4581_lig869
                    3D
 Schrodinger Suite 2021-1.
 50 52  0  0  1  0            999 V2000
   17.7063   14.4900  109.6196 C   0  0  0  0  0  0
   16.6166   13.3135  108.6713 S   0  0  0  0  0  0
   16.6172   13.8424  106.9295 C   0  0  0  0  0  0
   15.6857   13.0256  106.0256 C   0  0  0  0  0  0
   19.0072   14.5481  108.7623 C   0  0  0  0  0  0
   17.0072   15.8725  109.8135 C   0  0  0  0  0  0
   17.9647   13.9386  111.0630 C   0  0  0  0  0  0
   19.1420   15.4791  107.7150 C   0  0  0  0  0  0
   20.2043   15.4042  106.8215 C   0  0  0  0  0  0
   21.1669   14.4179  106.9879 C   0  0  0  0  0  0
   21.1187   13.5618  108.0846 C   0  0  0  0  0  0
   20.0382   13.6159  108.9604 C   0  0  0  0  0  0
   17.7669   17.0444  109.9810 C   0  0  0  0  0  0
   17.1574   18.2766  110.1954 C   0  0  0  0  0  0
   15.7671   18.3651  110.2439 C   0  0  0  0  0  0
   14.9938   17.2165  110.0757 C   0  0  0  0  0  0
   15.6081   15.9849  109.8653 C   0  0  0  0  0  0
   18.8991   14.5941  111.8817 C   0  0  0  0  0  0
   19.1200   14.1820  113.1930 C   0  0  0  0  0  0
   18.4287   13.0895  113.7049 C   0  0  0  0  0  0
   17.5181   12.4056  112.9085 C   0  0  0  0  0  0
   17.2878   12.8251  111.6009 C   0  0  0  0  0  0
   15.9182   13.3711  104.6347 N   0  0  0  0  0  0
   15.0993   19.7088  110.4982 C   0  0  0  0  0  0
   15.2676   20.6995  109.3347 C   0  0  0  0  0  0
   16.3721   14.9046  106.8742 H   0  0  0  0  0  0
   17.6321   13.7144  106.5512 H   0  0  0  0  0  0
   15.8907   11.9622  106.1514 H   0  0  0  0  0  0
   14.6395   13.1889  106.2893 H   0  0  0  0  0  0
   18.3775   16.2171  107.5272 H   0  0  0  0  0  0
   20.2650   16.0887  105.9891 H   0  0  0  0  0  0
   21.9850   14.3439  106.2856 H   0  0  0  0  0  0
   21.8895   12.8181  108.2148 H   0  0  0  0  0  0
   19.9766   12.8815  109.7515 H   0  0  0  0  0  0
   18.8455   17.0083  109.9619 H   0  0  0  0  0  0
   17.7636   19.1610  110.3350 H   0  0  0  0  0  0
   13.9158   17.2729  110.1145 H   0  0  0  0  0  0
   14.9743   15.1188  109.7595 H   0  0  0  0  0  0
   19.4541   15.4407  111.5065 H   0  0  0  0  0  0
   19.8362   14.7048  113.8085 H   0  0  0  0  0  0
   18.6014   12.7653  114.7225 H   0  0  0  0  0  0
   16.9736   11.5621  113.3078 H   0  0  0  0  0  0
   16.5541   12.2675  111.0406 H   0  0  0  0  0  0
   16.8900   13.1625  104.4119 H   0  0  0  0  0  0
   15.3600   12.7726  104.0436 H   0  0  0  0  0  0
   15.5152   20.1338  111.4142 H   0  0  0  0  0  0
   14.0375   19.5646  110.7031 H   0  0  0  0  0  0
   14.7654   21.6410  109.5584 H   0  0  0  0  0  0
   14.8399   20.3036  108.4118 H   0  0  0  0  0  0
   16.3176   20.9274  109.1469 H   0  0  0  0  0  0
  1  2  1  0  0  0
  1  7  1  0  0  0
  1  5  1  0  0  0
  1  6  1  0  0  0
  2  3  1  0  0  0
  3  4  1  0  0  0
  3 26  1  0  0  0
  3 27  1  0  0  0
  4 23  1  0  0  0
  4 28  1  0  0  0
  4 29  1  0  0  0
  5  8  2  0  0  0
  5 12  1  0  0  0
  6 13  2  0  0  0
  6 17  1  0  0  0
  7 18  2  0  0  0
  7 22  1  0  0  0
  8  9  1  0  0  0
  8 30  1  0  0  0
  9 10  2  0  0  0
  9 31  1  0  0  0
 10 11  1  0  0  0
 10 32  1  0  0  0
 11 12  2  0  0  0
 11 33  1  0  0  0
 12 34  1  0  0  0
 13 14  1  0  0  0
 13 35  1  0  0  0
 14 15  2  0  0  0
 14 36  1  0  0  0
 15 16  1  0  0  0
 15 24  1  0  0  0
 16 17  2  0  0  0
 16 37  1  0  0  0
 17 38  1  0  0  0
 18 19  1  0  0  0
 18 39  1  0  0  0
 19 20  2  0  0  0
 19 40  1  0  0  0
 20 21  1  0  0  0
 20 41  1  0  0  0
 21 22  2  0  0  0
 21 42  1  0  0  0
 22 43  1  0  0  0
 23 44  1  0  0  0
 23 45  1  0  0  0
 24 25  1  0  0  0
 24 46  1  0  0  0
 24 47  1  0  0  0
 25 48  1  0  0  0
 25 49  1  0  0  0
 25 50  1  0  0  0
M  END
> <s_m_entry_id>
343

> <s_m_entry_name>
dock_pv.342

> <s_m_Source_Path>
/home/csk/Desktop/cluster/DUD-E-result/kif11

> <s_m_Source_File>
dock_pv.maegz

> <i_m_Source_File_Index>
342

> <chembl_id>
CHEMBL1945653

> <chembl_pref_name>
None

> <i_lp_mmshare_version>
53161

> <i_f3d_flags>
0

> <r_lp_tautomer_probability>
1

> <s_lp_Force_Field>
OPLS_2005

> <r_lp_Energy>
24.035865

> <b_lp_Chiralities_Consistent>
1

> <s_lp_Variant>
CHEMBL4581_lig869-1

> <s_i_glide_gridfile>
glide-grid_3cjo

> <i_i_glide_lignum>
1260

> <i_i_glide_rotatable_bonds>
7

> <r_i_docking_score>
-7.56317592788026

> <r_i_glide_ligand_efficiency>
-0.30252703711521

> <r_i_glide_ligand_efficiency_sa>
-0.884594421864724

> <r_i_glide_ligand_efficiency_ln>
-1.79269934500064

> <r_i_glide_gscore>
-7.56317592788026

> <r_i_glide_lipo>
-4.69564072422993

> <r_i_glide_hbond>
-0.106484717819935

> <r_i_glide_metal>
0

> <r_i_glide_rewards>
-1.15632143939394

> <r_i_glide_evdw>
-42.4337501525879

> <r_i_glide_ecoul>
-1.80481040477753

> <r_i_glide_erotb>
0.787680021909562

> <r_i_glide_esite>
0

> <r_i_glide_emodel>
-63.3012911109611

> <r_i_glide_energy>
-44.2385605573654

> <r_i_glide_einternal>
2.93468356132507

> <i_i_glide_confnum>
138

> <i_i_glide_posenum>
52

> <r_i_glide_eff_state_penalty>
0

> <s_user_duplicate_titles>
CHEMBL4581_lig869

> <s_m_subgroup_title>
dock_pv

> <s_m_subgroupid>
dock_pv

> <b_m_subgroup_collapsed>
1

$$$$
CHEMBL4581_lig300
                    3D
 Schrodinger Suite 2021-1.
 47 50  0  0  1  0            999 V2000
   19.1149   16.2568  107.5970 N   0  0  0  0  0  0
   19.9311   14.3101  108.3457 C   0  0  0  0  0  0
   18.9206   15.2348  108.4959 C   0  0  0  0  0  0
   17.8354   15.1814  109.5700 C   0  0  2  0  0  0
   18.1169   14.0139  110.4630 N   0  0  0  0  0  0
   18.6657   12.7896  109.8572 C   0  0  0  0  0  0
   20.0555   13.1169  109.2678 C   0  0  0  0  0  0
   20.2177   15.9949  106.8094 C   0  0  0  0  0  0
   20.7177   14.7283  107.2318 C   0  0  0  0  0  0
   21.8052   14.1670  106.5591 C   0  0  0  0  0  0
   22.3894   14.8736  105.5143 C   0  0  0  0  0  0
   21.9265   16.1423  105.1565 C   0  0  0  0  0  0
   20.8244   16.7302  105.7830 C   0  0  0  0  0  0
   16.4221   15.1423  108.9846 C   0  0  0  0  0  0
   15.4508   16.0326  109.4574 C   0  0  0  0  0  0
   14.1489   15.9851  108.9596 C   0  0  0  0  0  0
   13.8000   15.0278  108.0074 C   0  0  0  0  0  0
   14.7538   14.1236  107.5464 C   0  0  0  0  0  0
   16.0638   14.1884  108.0206 C   0  0  0  0  0  0
   17.8903   14.1034  111.7963 C   0  0  0  0  0  0
   17.5181   15.1617  112.2836 O   0  0  0  0  0  0
   18.0502   12.8673  112.7189 C   0  0  0  0  0  0
   17.4473   12.9852  114.1384 C   0  0  0  0  0  0
   14.3972   13.1614  106.6433 O   0  0  0  0  0  0
   23.5148   14.1987  104.7655 C   0  0  0  0  0  0
   18.5209   17.0738  107.5676 H   0  0  0  0  0  0
   17.8880   16.0995  110.1584 H   0  0  0  0  0  0
   17.9914   12.4523  109.0707 H   0  0  0  0  0  0
   18.7174   11.9621  110.5591 H   0  0  0  0  0  0
   20.7722   13.3027  110.0670 H   0  0  0  0  0  0
   20.4286   12.2537  108.7228 H   0  0  0  0  0  0
   22.1767   13.1924  106.8392 H   0  0  0  0  0  0
   22.4005   16.6714  104.3431 H   0  0  0  0  0  0
   20.4552   17.6986  105.4777 H   0  0  0  0  0  0
   15.7044   16.7626  110.2129 H   0  0  0  0  0  0
   13.4050   16.6793  109.3227 H   0  0  0  0  0  0
   12.7869   14.9810  107.6341 H   0  0  0  0  0  0
   16.7975   13.4909  107.6470 H   0  0  0  0  0  0
   19.1179   12.6647  112.8093 H   0  0  0  0  0  0
   17.5826   11.9989  112.2546 H   0  0  0  0  0  0
   17.9380   12.2990  114.8272 H   0  0  0  0  0  0
   17.5181   13.9831  114.5586 H   0  0  0  0  0  0
   16.3922   12.7120  114.1448 H   0  0  0  0  0  0
   15.0547   12.4638  106.5596 H   0  0  0  0  0  0
   23.8821   14.7636  103.9123 H   0  0  0  0  0  0
   24.3180   13.9894  105.4647 H   0  0  0  0  0  0
   23.1844   13.2288  104.4031 H   0  0  0  0  0  0
  1  8  1  0  0  0
  1  3  1  0  0  0
  1 26  1  0  0  0
  2  7  1  0  0  0
  2  9  1  0  0  0
  2  3  2  0  0  0
  3  4  1  0  0  0
  4  5  1  0  0  0
  4 14  1  0  0  0
  4 27  1  0  0  0
  5  6  1  0  0  0
  5 20  1  0  0  0
  6  7  1  0  0  0
  6 28  1  0  0  0
  6 29  1  0  0  0
  7 30  1  0  0  0
  7 31  1  0  0  0
  8 13  1  0  0  0
  8  9  2  0  0  0
  9 10  1  0  0  0
 10 11  2  0  0  0
 10 32  1  0  0  0
 11 12  1  0  0  0
 11 25  1  0  0  0
 12 13  2  0  0  0
 12 33  1  0  0  0
 13 34  1  0  0  0
 14 15  2  0  0  0
 14 19  1  0  0  0
 15 16  1  0  0  0
 15 35  1  0  0  0
 16 17  2  0  0  0
 16 36  1  0  0  0
 17 18  1  0  0  0
 17 37  1  0  0  0
 18 19  2  0  0  0
 18 24  1  0  0  0
 19 38  1  0  0  0
 20 21  2  0  0  0
 20 22  1  0  0  0
 22 23  1  0  0  0
 22 39  1  0  0  0
 22 40  1  0  0  0
 23 41  1  0  0  0
 23 42  1  0  0  0
 23 43  1  0  0  0
 24 44  1  0  0  0
 25 45  1  0  0  0
 25 46  1  0  0  0
 25 47  1  0  0  0
M  END
> <s_m_entry_id>
344

> <s_m_entry_name>
dock_pv.343

> <s_m_Source_Path>
/home/csk/Desktop/cluster/DUD-E-result/kif11

> <s_m_Source_File>
dock_pv.maegz

> <i_m_Source_File_Index>
343

> <chembl_id>
CHEMBL601305

> <chembl_pref_name>
None

> <i_lp_mmshare_version>
53161

> <i_f3d_flags>
0

> <r_lp_tautomer_probability>
0.999999999997365

> <s_lp_Force_Field>
OPLS_2005

> <r_lp_Energy>
25.321889

> <b_lp_Chiralities_Consistent>
1

> <s_lp_Variant>
CHEMBL4581_lig300-1

> <s_i_glide_gridfile>
glide-grid_3cjo

> <i_i_glide_lignum>
438

> <i_i_glide_rotatable_bonds>
4

> <r_i_docking_score>
-7.55996911083415

> <r_i_glide_ligand_efficiency>
-0.302398764433366

> <r_i_glide_ligand_efficiency_sa>
-0.884219350268086

> <r_i_glide_ligand_efficiency_ln>
-1.79193923326016

> <r_i_glide_gscore>
-7.55996911083415

> <r_i_glide_lipo>
-3.88158778186927

> <r_i_glide_hbond>
-0.0638970732678035

> <r_i_glide_metal>
0

> <r_i_glide_rewards>
-1.65518456940201

> <r_i_glide_evdw>
-32.4737243652344

> <r_i_glide_ecoul>
-4.48607444763184

> <r_i_glide_erotb>
0.337297699111424

> <r_i_glide_esite>
0

> <r_i_glide_emodel>
-52.0879636704296

> <r_i_glide_energy>
-36.9597988128662

> <r_i_glide_einternal>
3.08198237419128

> <i_i_glide_confnum>
1

> <i_i_glide_posenum>
294

> <r_i_glide_eff_state_penalty>
0

> <s_user_duplicate_titles>
CHEMBL4581_lig300,591060

> <s_m_subgroup_title>
dock_pv

> <s_m_subgroupid>
dock_pv

> <b_m_subgroup_collapsed>
1

$$$$
CHEMBL4581_lig792
                    3D
 Schrodinger Suite 2021-1.
 47 49  0  0  1  0            999 V2000
   15.6088   13.6928  105.8377 C   0  0  2  0  0  0
   15.6790   14.6423  104.6220 C   0  0  0  0  0  0
   14.8687   15.5530  104.4662 O   0  0  0  0  0  0
   16.9352   13.6424  106.6344 C   0  0  0  0  0  0
   15.1971   12.3608  105.3590 N   0  0  0  0  0  0
   16.6180   13.5618  108.4347 S   0  0  0  0  0  0
   17.7272   14.7826  109.3083 C   0  0  0  0  0  0
   19.0764   14.7562  108.5244 C   0  0  0  0  0  0
   19.4345   15.7605  107.6077 C   0  0  0  0  0  0
   20.5629   15.6182  106.8057 C   0  0  0  0  0  0
   21.3772   14.4998  106.9525 C   0  0  0  0  0  0
   21.1182   13.5621  107.9426 C   0  0  0  0  0  0
   19.9625   13.6784  108.7066 C   0  0  0  0  0  0
   17.0217   16.1896  109.3043 C   0  0  0  0  0  0
   16.3365   16.6622  108.1683 C   0  0  0  0  0  0
   15.6890   17.8946  108.1635 C   0  0  0  0  0  0
   15.7103   18.6894  109.3021 C   0  0  0  0  0  0
   16.3645   18.2511  110.4456 C   0  0  0  0  0  0
   17.0035   17.0146  110.4452 C   0  0  0  0  0  0
   17.9748   14.2757  110.7767 C   0  0  0  0  0  0
   19.0512   14.8041  111.5139 C   0  0  0  0  0  0
   19.3403   14.3497  112.7969 C   0  0  0  0  0  0
   18.5870   13.3168  113.3455 C   0  0  0  0  0  0
   17.5194   12.7732  112.6438 C   0  0  0  0  0  0
   17.2078   13.2573  111.3775 C   0  0  0  0  0  0
   16.7180   14.3618  103.7807 O   0  0  0  0  0  0
   18.9057   12.8191  114.5587 F   0  0  0  0  0  0
   14.8366   14.0951  106.4963 H   0  0  0  0  0  0
   17.5646   14.4950  106.3979 H   0  0  0  0  0  0
   17.5195   12.7655  106.3562 H   0  0  0  0  0  0
   15.3304   11.6667  106.0913 H   0  0  0  0  0  0
   14.2144   12.3424  105.1238 H   0  0  0  0  0  0
   18.8220   16.6348  107.4548 H   0  0  0  0  0  0
   20.8008   16.3714  106.0687 H   0  0  0  0  0  0
   22.2484   14.3860  106.3236 H   0  0  0  0  0  0
   21.7762   12.7164  108.0739 H   0  0  0  0  0  0
   19.7332   12.8896  109.4088 H   0  0  0  0  0  0
   16.2977   16.0891  107.2601 H   0  0  0  0  0  0
   15.1734   18.2331  107.2766 H   0  0  0  0  0  0
   15.2127   19.6485  109.3009 H   0  0  0  0  0  0
   16.3750   18.8663  111.3341 H   0  0  0  0  0  0
   17.4896   16.7322  111.3595 H   0  0  0  0  0  0
   19.6686   15.5813  111.0858 H   0  0  0  0  0  0
   20.1717   14.7635  113.3484 H   0  0  0  0  0  0
   16.9354   11.9740  113.0780 H   0  0  0  0  0  0
   16.3629   12.8020  110.8850 H   0  0  0  0  0  0
   17.2826   13.6368  104.0897 H   0  0  0  0  0  0
  1  4  1  0  0  0
  1  5  1  0  0  0
  1  2  1  0  0  0
  1 28  1  0  0  0
  2  3  2  0  0  0
  2 26  1  0  0  0
  4  6  1  0  0  0
  4 29  1  0  0  0
  4 30  1  0  0  0
  5 31  1  0  0  0
  5 32  1  0  0  0
  6  7  1  0  0  0
  7  8  1  0  0  0
  7 14  1  0  0  0
  7 20  1  0  0  0
  8  9  2  0  0  0
  8 13  1  0  0  0
  9 10  1  0  0  0
  9 33  1  0  0  0
 10 11  2  0  0  0
 10 34  1  0  0  0
 11 12  1  0  0  0
 11 35  1  0  0  0
 12 13  2  0  0  0
 12 36  1  0  0  0
 13 37  1  0  0  0
 14 15  2  0  0  0
 14 19  1  0  0  0
 15 16  1  0  0  0
 15 38  1  0  0  0
 16 17  2  0  0  0
 16 39  1  0  0  0
 17 18  1  0  0  0
 17 40  1  0  0  0
 18 19  2  0  0  0
 18 41  1  0  0  0
 19 42  1  0  0  0
 20 21  2  0  0  0
 20 25  1  0  0  0
 21 22  1  0  0  0
 21 43  1  0  0  0
 22 23  2  0  0  0
 22 44  1  0  0  0
 23 24  1  0  0  0
 23 27  1  0  0  0
 24 25  2  0  0  0
 24 45  1  0  0  0
 25 46  1  0  0  0
 26 47  1  0  0  0
M  END
> <s_m_entry_id>
345

> <s_m_entry_name>
dock_pv.344

> <s_m_Source_Path>
/home/csk/Desktop/cluster/DUD-E-result/kif11

> <s_m_Source_File>
dock_pv.maegz

> <i_m_Source_File_Index>
344

> <chembl_id>
CHEMBL412251

> <chembl_pref_name>
None

> <i_lp_mmshare_version>
53161

> <i_f3d_flags>
0

> <r_lp_tautomer_probability>
1

> <s_lp_Force_Field>
OPLS_2005

> <r_lp_Energy>
22.081595

> <b_lp_Chiralities_Consistent>
1

> <s_lp_Variant>
CHEMBL4581_lig792-1

> <s_i_glide_gridfile>
glide-grid_3cjo

> <i_i_glide_lignum>
1175

> <i_i_glide_rotatable_bonds>
8

> <r_i_docking_score>
-7.55896331008063

> <r_i_glide_ligand_efficiency>
-0.27996160407706

> <r_i_glide_ligand_efficiency_sa>
-0.839884811308473

> <r_i_glide_ligand_efficiency_ln>
-1.75960203933708

> <r_i_glide_gscore>
-7.55896331008063

> <r_i_glide_lipo>
-4.2011680545328

> <r_i_glide_hbond>
-0.304124669608817

> <r_i_glide_metal>
0

> <r_i_glide_rewards>
-1.1271915126852

> <r_i_glide_evdw>
-38.5649604797363

> <r_i_glide_ecoul>
-6.15233325958252

> <r_i_glide_erotb>
0.933784232062624

> <r_i_glide_esite>
-0.0091652923922433

> <r_i_glide_emodel>
-60.4341683187748

> <r_i_glide_energy>
-44.7172937393188

> <r_i_glide_einternal>
9.79959869384766

> <i_i_glide_confnum>
47

> <i_i_glide_posenum>
69

> <r_i_glide_eff_state_penalty>
0

> <s_user_duplicate_titles>
CHEMBL4581_lig792

> <s_m_subgroup_title>
dock_pv

> <s_m_subgroupid>
dock_pv

> <b_m_subgroup_collapsed>
1

$$$$
CHEMBL4581_lig479
                    3D
 Schrodinger Suite 2021-1.
 52 54  0  0  1  0            999 V2000
   16.4777   13.5184  108.7384 S   0  0  0  0  0  0
   15.7586   14.6525  107.4874 C   0  0  0  0  0  0
   16.2361   14.5225  106.0279 C   0  0  1  0  0  0
   15.7538   13.2328  105.3355 C   0  0  0  0  0  0
   16.3180   13.1620  104.0398 O   0  0  0  0  0  0
   15.7606   15.6855  105.2865 N   0  0  0  0  0  0
   17.7108   14.5135  109.7154 C   0  0  0  0  0  0
   17.1170   15.9130  110.0356 C   0  0  0  0  0  0
   17.9954   13.8947  111.1180 C   0  0  0  0  0  0
   17.9079   17.0659  109.9931 C   0  0  0  0  0  0
   17.3498   18.3096  110.2448 C   0  0  0  0  0  0
   15.9951   18.4430  110.5442 C   0  0  0  0  0  0
   15.2047   17.2923  110.6316 C   0  0  0  0  0  0
   15.7660   16.0443  110.3929 C   0  0  0  0  0  0
   17.3035   12.7828  111.6276 C   0  0  0  0  0  0
   17.5149   12.3614  112.9374 C   0  0  0  0  0  0
   18.4286   13.0205  113.7494 C   0  0  0  0  0  0
   19.1448   14.1044  113.2556 C   0  0  0  0  0  0
   18.9347   14.5308  111.9492 C   0  0  0  0  0  0
   18.9697   14.5099  108.7967 C   0  0  0  0  0  0
   19.0491   15.3741  107.6932 C   0  0  0  0  0  0
   20.1071   15.2950  106.7953 C   0  0  0  0  0  0
   21.1190   14.3675  107.0100 C   0  0  0  0  0  0
   21.1153   13.5620  108.1437 C   0  0  0  0  0  0
   20.0312   13.6133  109.0163 C   0  0  0  0  0  0
   15.5173   19.7231  110.7326 O   0  0  0  0  0  0
   14.1504   19.9227  111.0703 C   0  0  0  0  0  0
   14.6767   14.5205  107.5313 H   0  0  0  0  0  0
   15.9271   15.6823  107.7968 H   0  0  0  0  0  0
   17.3249   14.5330  105.9987 H   0  0  0  0  0  0
   16.0723   12.3570  105.9031 H   0  0  0  0  0  0
   14.6647   13.1956  105.2663 H   0  0  0  0  0  0
   17.2781   13.0186  104.1399 H   0  0  0  0  0  0
   15.9606   15.5111  104.3110 H   0  0  0  0  0  0
   14.7523   15.7355  105.3506 H   0  0  0  0  0  0
   18.9629   17.0161  109.7705 H   0  0  0  0  0  0
   17.9940   19.1653  110.2009 H   0  0  0  0  0  0
   14.1557   17.3484  110.8750 H   0  0  0  0  0  0
   15.1315   15.1748  110.4663 H   0  0  0  0  0  0
   16.5685   12.2491  111.0456 H   0  0  0  0  0  0
   16.9483   11.5292  113.3285 H   0  0  0  0  0  0
   18.5834   12.6886  114.7666 H   0  0  0  0  0  0
   19.8609   14.6139  113.8833 H   0  0  0  0  0  0
   19.4891   15.3839  111.5880 H   0  0  0  0  0  0
   18.2605   16.0838  107.4922 H   0  0  0  0  0  0
   20.1327   15.9367  105.9273 H   0  0  0  0  0  0
   21.9357   14.2968  106.3072 H   0  0  0  0  0  0
   21.9185   12.8599  108.3083 H   0  0  0  0  0  0
   20.0118   12.9207  109.8436 H   0  0  0  0  0  0
   13.9670   20.9889  111.1996 H   0  0  0  0  0  0
   13.4888   19.5662  110.2797 H   0  0  0  0  0  0
   13.8912   19.4280  112.0074 H   0  0  0  0  0  0
  1  2  1  0  0  0
  1  7  1  0  0  0
  2  3  1  0  0  0
  2 28  1  0  0  0
  2 29  1  0  0  0
  3  4  1  0  0  0
  3  6  1  0  0  0
  3 30  1  0  0  0
  4  5  1  0  0  0
  4 31  1  0  0  0
  4 32  1  0  0  0
  5 33  1  0  0  0
  6 34  1  0  0  0
  6 35  1  0  0  0
  7  8  1  0  0  0
  7  9  1  0  0  0
  7 20  1  0  0  0
  8 14  1  0  0  0
  8 10  2  0  0  0
  9 15  2  0  0  0
  9 19  1  0  0  0
 10 11  1  0  0  0
 10 36  1  0  0  0
 11 12  2  0  0  0
 11 37  1  0  0  0
 12 13  1  0  0  0
 12 26  1  0  0  0
 13 14  2  0  0  0
 13 38  1  0  0  0
 14 39  1  0  0  0
 15 16  1  0  0  0
 15 40  1  0  0  0
 16 17  2  0  0  0
 16 41  1  0  0  0
 17 18  1  0  0  0
 17 42  1  0  0  0
 18 19  2  0  0  0
 18 43  1  0  0  0
 19 44  1  0  0  0
 20 21  2  0  0  0
 20 25  1  0  0  0
 21 22  1  0  0  0
 21 45  1  0  0  0
 22 23  2  0  0  0
 22 46  1  0  0  0
 23 24  1  0  0  0
 23 47  1  0  0  0
 24 25  2  0  0  0
 24 48  1  0  0  0
 25 49  1  0  0  0
 26 27  1  0  0  0
 27 50  1  0  0  0
 27 51  1  0  0  0
 27 52  1  0  0  0
M  END
> <s_m_entry_id>
346

> <s_m_entry_name>
dock_pv.345

> <s_m_Source_Path>
/home/csk/Desktop/cluster/DUD-E-result/kif11

> <s_m_Source_File>
dock_pv.maegz

> <i_m_Source_File_Index>
345

> <chembl_id>
CHEMBL1818527

> <chembl_pref_name>
None

> <i_lp_mmshare_version>
53161

> <i_f3d_flags>
0

> <r_lp_tautomer_probability>
1

> <s_lp_Force_Field>
OPLS_2005

> <r_lp_Energy>
37.974342

> <b_lp_Chiralities_Consistent>
1

> <s_lp_Variant>
CHEMBL4581_lig479-1

> <s_i_glide_gridfile>
glide-grid_3cjo

> <i_i_glide_lignum>
702

> <i_i_glide_rotatable_bonds>
9

> <r_i_docking_score>
-7.55705942680701

> <r_i_glide_ligand_efficiency>
-0.279891089881741

> <r_i_glide_ligand_efficiency_sa>
-0.839673268722748

> <r_i_glide_ligand_efficiency_ln>
-1.75915884669895

> <r_i_glide_gscore>
-7.55705942680701

> <r_i_glide_lipo>
-4.66935433886569

> <r_i_glide_hbond>
-0.16

> <r_i_glide_metal>
0

> <r_i_glide_rewards>
-0.938146717759508

> <r_i_glide_evdw>
-41.5163688659668

> <r_i_glide_ecoul>
-4.37420034408569

> <r_i_glide_erotb>
0.942390124729382

> <r_i_glide_esite>
0

> <r_i_glide_emodel>
-65.5228119743285

> <r_i_glide_energy>
-45.8905692100525

> <r_i_glide_einternal>
4.48117542266846

> <i_i_glide_confnum>
34

> <i_i_glide_posenum>
330

> <r_i_glide_eff_state_penalty>
0

> <s_user_duplicate_titles>
CHEMBL4581_lig479

> <s_m_subgroup_title>
dock_pv

> <s_m_subgroupid>
dock_pv

> <b_m_subgroup_collapsed>
1

$$$$
CHEMBL4581_lig80
                    3D
 Schrodinger Suite 2021-1.
 45 47  0  0  1  0            999 V2000
   21.1107   14.7264  106.9246 C   0  0  0  0  0  0
   20.7219   15.8275  106.1698 C   0  0  0  0  0  0
   19.4301   16.3273  106.3190 C   0  0  0  0  0  0
   20.2223   14.1544  107.8319 C   0  0  0  0  0  0
   18.9072   14.6198  107.9614 C   0  0  0  0  0  0
   18.5193   15.7595  107.2179 C   0  0  0  0  0  0
   17.1150   16.3548  107.3777 C   0  0  0  0  0  0
   16.4950   15.8597  108.6133 N   0  0  0  0  0  0
   16.4307   14.3949  108.6486 C   0  0  0  0  0  0
   17.8836   13.8905  108.8660 C   0  0  2  0  0  0
   18.2104   13.8535  110.3625 C   0  0  0  0  0  0
   17.5544   12.9135  111.1681 C   0  0  0  0  0  0
   17.7970   12.8634  112.5389 C   0  0  0  0  0  0
   18.7169   13.7372  113.1134 C   0  0  0  0  0  0
   19.3744   14.6797  112.3240 C   0  0  0  0  0  0
   19.1182   14.7415  110.9550 C   0  0  0  0  0  0
   16.0103   16.6293  109.6313 C   0  0  0  0  0  0
   15.1304   16.2023  110.3803 O   0  0  0  0  0  0
   16.5127   17.8822  109.8066 N   0  0  0  0  0  0
   17.9202   18.2441  109.6289 C   0  0  0  0  0  0
   15.7146   18.9522  110.4077 C   0  0  0  0  0  0
   17.1180   11.9721  113.3239 O   0  0  0  0  0  0
   21.6906   16.4646  105.1895 C   0  0  0  0  0  0
   22.1037   14.3146  106.8176 H   0  0  0  0  0  0
   19.1235   17.1624  105.7135 H   0  0  0  0  0  0
   20.5406   13.2966  108.4061 H   0  0  0  0  0  0
   17.1181   17.4413  107.3590 H   0  0  0  0  0  0
   16.5081   16.0384  106.5286 H   0  0  0  0  0  0
   15.6950   14.0133  109.3586 H   0  0  0  0  0  0
   16.0497   14.0515  107.6855 H   0  0  0  0  0  0
   17.9133   12.8428  108.5582 H   0  0  0  0  0  0
   16.8458   12.2286  110.7248 H   0  0  0  0  0  0
   18.9164   13.6868  114.1709 H   0  0  0  0  0  0
   20.0842   15.3596  112.7706 H   0  0  0  0  0  0
   19.6287   15.4858  110.3622 H   0  0  0  0  0  0
   18.5536   17.3842  109.4120 H   0  0  0  0  0  0
   18.0197   18.9517  108.8071 H   0  0  0  0  0  0
   18.3144   18.7105  110.5327 H   0  0  0  0  0  0
   14.6549   18.6973  110.4729 H   0  0  0  0  0  0
   16.0715   19.1667  111.4162 H   0  0  0  0  0  0
   15.7987   19.8660  109.8178 H   0  0  0  0  0  0
   16.4110   11.5166  112.8577 H   0  0  0  0  0  0
   21.1728   17.0752  104.4488 H   0  0  0  0  0  0
   22.4159   17.0828  105.7175 H   0  0  0  0  0  0
   22.2382   15.6972  104.6401 H   0  0  0  0  0  0
  1  2  2  0  0  0
  1  4  1  0  0  0
  1 24  1  0  0  0
  2  3  1  0  0  0
  2 23  1  0  0  0
  3  6  2  0  0  0
  3 25  1  0  0  0
  4  5  2  0  0  0
  4 26  1  0  0  0
  5 10  1  0  0  0
  5  6  1  0  0  0
  6  7  1  0  0  0
  7  8  1  0  0  0
  7 27  1  0  0  0
  7 28  1  0  0  0
  8 17  1  0  0  0
  8  9  1  0  0  0
  9 10  1  0  0  0
  9 29  1  0  0  0
  9 30  1  0  0  0
 10 11  1  0  0  0
 10 31  1  0  0  0
 11 12  2  0  0  0
 11 16  1  0  0  0
 12 13  1  0  0  0
 12 32  1  0  0  0
 13 14  2  0  0  0
 13 22  1  0  0  0
 14 15  1  0  0  0
 14 33  1  0  0  0
 15 16  2  0  0  0
 15 34  1  0  0  0
 16 35  1  0  0  0
 17 18  2  0  0  0
 17 19  1  0  0  0
 19 20  1  0  0  0
 19 21  1  0  0  0
 20 36  1  0  0  0
 20 37  1  0  0  0
 20 38  1  0  0  0
 21 39  1  0  0  0
 21 40  1  0  0  0
 21 41  1  0  0  0
 22 42  1  0  0  0
 23 43  1  0  0  0
 23 44  1  0  0  0
 23 45  1  0  0  0
M  END
> <s_m_entry_id>
347

> <s_m_entry_name>
dock_pv.346

> <s_m_Source_Path>
/home/csk/Desktop/cluster/DUD-E-result/kif11

> <s_m_Source_File>
dock_pv.maegz

> <i_m_Source_File_Index>
346

> <chembl_id>
CHEMBL427386

> <chembl_pref_name>
None

> <i_lp_mmshare_version>
53161

> <i_f3d_flags>
0

> <r_lp_tautomer_probability>
0.999999999997365

> <s_lp_Force_Field>
OPLS_2005

> <r_lp_Energy>
45.993513

> <b_lp_Chiralities_Consistent>
1

> <s_lp_Variant>
CHEMBL4581_lig80-1

> <s_i_glide_gridfile>
glide-grid_3cjo

> <i_i_glide_lignum>
125

> <i_i_glide_rotatable_bonds>
4

> <r_i_docking_score>
-7.55568468191224

> <r_i_glide_ligand_efficiency>
-0.328508029648358

> <r_i_glide_ligand_efficiency_sa>
-0.934233137156637

> <r_i_glide_ligand_efficiency_ln>
-1.82703306724724

> <r_i_glide_gscore>
-7.55568468191224

> <r_i_glide_lipo>
-4.15758937057178

> <r_i_glide_hbond>
-0.0708890942754263

> <r_i_glide_metal>
0

> <r_i_glide_rewards>
-1.56153458993485

> <r_i_glide_evdw>
-35.3038215637207

> <r_i_glide_ecoul>
-2.56768703460693

> <r_i_glide_erotb>
0.384672506246895

> <r_i_glide_esite>
0

> <r_i_glide_emodel>
-52.9991086126435

> <r_i_glide_energy>
-37.8715085983276

> <r_i_glide_einternal>
1.34355390071869

> <i_i_glide_confnum>
38

> <i_i_glide_posenum>
279

> <r_i_glide_eff_state_penalty>
0

> <s_user_duplicate_titles>
CHEMBL4581_lig80

> <s_m_subgroup_title>
dock_pv

> <s_m_subgroupid>
dock_pv

> <b_m_subgroup_collapsed>
1

$$$$
CHEMBL4581_lig70
                    3D
 Schrodinger Suite 2021-1.
 51 53  0  0  1  0            999 V2000
   16.7019   13.4736  109.1032 C   0  0  0  0  0  0
   16.9007   14.0587  107.7704 N   0  0  2  0  0  0
   17.1572   15.4983  107.9031 C   0  0  0  0  0  0
   18.5058   15.7385  108.6267 C   0  0  1  0  0  0
   17.7152   13.8786  110.1864 C   0  0  0  0  0  0
   18.5199   15.0194  109.9852 C   0  0  0  0  0  0
   19.3219   15.4717  111.0357 C   0  0  0  0  0  0
   19.3833   14.7927  112.2446 C   0  0  0  0  0  0
   18.6191   13.6486  112.4470 C   0  0  0  0  0  0
   17.7796   13.1914  111.4172 C   0  0  0  0  0  0
   16.8707   11.9864  111.6281 C   0  0  0  0  0  0
   18.7200   12.9375  113.7891 C   0  0  0  0  0  0
   19.7088   15.4234  107.7105 C   0  0  0  0  0  0
   20.0710   16.3480  106.7237 C   0  0  0  0  0  0
   21.1389   16.0890  105.8683 C   0  0  0  0  0  0
   21.8454   14.8946  105.9866 C   0  0  0  0  0  0
   21.4997   13.9617  106.9599 C   0  0  0  0  0  0
   20.4436   14.2357  107.8308 C   0  0  0  0  0  0
   15.7244   13.7431  106.9431 C   0  0  0  0  0  0
   15.9797   13.6815  105.4223 C   0  0  0  0  0  0
   16.4519   14.9800  104.7274 C   0  0  0  0  0  0
   16.2272   15.0388  103.2041 C   0  0  0  0  0  0
   16.7180   13.8373  102.5578 N   0  0  0  0  0  0
   15.7071   13.7263  109.4784 H   0  0  0  0  0  0
   16.7316   12.3888  108.9775 H   0  0  0  0  0  0
   17.2209   15.9818  106.9339 H   0  0  0  0  0  0
   16.3261   15.9875  108.4165 H   0  0  0  0  0  0
   18.5802   16.8066  108.8361 H   0  0  0  0  0  0
   19.9172   16.3620  110.9137 H   0  0  0  0  0  0
   20.0314   15.1625  113.0256 H   0  0  0  0  0  0
   16.8143   11.6256  112.6532 H   0  0  0  0  0  0
   15.8685   12.3057  111.3587 H   0  0  0  0  0  0
   17.1319   11.1620  110.9629 H   0  0  0  0  0  0
   17.7785   13.0049  114.3345 H   0  0  0  0  0  0
   18.9436   11.8833  113.6350 H   0  0  0  0  0  0
   19.5134   13.3443  114.4163 H   0  0  0  0  0  0
   19.5179   17.2678  106.6122 H   0  0  0  0  0  0
   21.4079   16.8050  105.1054 H   0  0  0  0  0  0
   22.6616   14.6818  105.3113 H   0  0  0  0  0  0
   22.0487   13.0342  107.0422 H   0  0  0  0  0  0
   20.1782   13.5023  108.5756 H   0  0  0  0  0  0
   14.9258   14.4568  107.1530 H   0  0  0  0  0  0
   15.3244   12.7650  107.2226 H   0  0  0  0  0  0
   15.0339   13.3879  104.9637 H   0  0  0  0  0  0
   16.6602   12.8557  105.2058 H   0  0  0  0  0  0
   17.5146   15.1172  104.9353 H   0  0  0  0  0  0
   15.9364   15.8355  105.1636 H   0  0  0  0  0  0
   16.7366   15.9073  102.7849 H   0  0  0  0  0  0
   15.1652   15.1515  102.9784 H   0  0  0  0  0  0
   17.5910   13.5698  103.0238 H   0  0  0  0  0  0
   16.0828   13.0870  102.7879 H   0  0  0  0  0  0
  1  5  1  0  0  0
  1  2  1  0  0  0
  1 24  1  0  0  0
  1 25  1  0  0  0
  2  3  1  0  0  0
  2 19  1  0  0  0
  3  4  1  0  0  0
  3 26  1  0  0  0
  3 27  1  0  0  0
  4  6  1  0  0  0
  4 13  1  0  0  0
  4 28  1  0  0  0
  5  6  2  0  0  0
  5 10  1  0  0  0
  6  7  1  0  0  0
  7  8  2  0  0  0
  7 29  1  0  0  0
  8  9  1  0  0  0
  8 30  1  0  0  0
  9 12  1  0  0  0
  9 10  2  0  0  0
 10 11  1  0  0  0
 11 31  1  0  0  0
 11 32  1  0  0  0
 11 33  1  0  0  0
 12 34  1  0  0  0
 12 35  1  0  0  0
 12 36  1  0  0  0
 13 14  2  0  0  0
 13 18  1  0  0  0
 14 15  1  0  0  0
 14 37  1  0  0  0
 15 16  2  0  0  0
 15 38  1  0  0  0
 16 17  1  0  0  0
 16 39  1  0  0  0
 17 18  2  0  0  0
 17 40  1  0  0  0
 18 41  1  0  0  0
 19 20  1  0  0  0
 19 42  1  0  0  0
 19 43  1  0  0  0
 20 21  1  0  0  0
 20 44  1  0  0  0
 20 45  1  0  0  0
 21 22  1  0  0  0
 21 46  1  0  0  0
 21 47  1  0  0  0
 22 23  1  0  0  0
 22 48  1  0  0  0
 22 49  1  0  0  0
 23 50  1  0  0  0
 23 51  1  0  0  0
M  END
> <s_m_entry_id>
348

> <s_m_entry_name>
dock_pv.347

> <s_m_Source_Path>
/home/csk/Desktop/cluster/DUD-E-result/kif11

> <s_m_Source_File>
dock_pv.maegz

> <i_m_Source_File_Index>
347

> <chembl_id>
CHEMBL205863

> <chembl_pref_name>
None

> <i_lp_mmshare_version>
53161

> <i_f3d_flags>
0

> <r_lp_tautomer_probability>
1

> <s_lp_Force_Field>
OPLS_2005

> <r_lp_Energy>
27.60747

> <b_lp_Chiralities_Consistent>
1

> <s_lp_Variant>
CHEMBL4581_lig70-2

> <s_i_glide_gridfile>
glide-grid_3cjo

> <i_i_glide_lignum>
107

> <i_i_glide_rotatable_bonds>
5

> <r_i_docking_score>
-7.55405676157593

> <r_i_glide_ligand_efficiency>
-0.328437250503301

> <r_i_glide_ligand_efficiency_sa>
-0.934031850683358

> <r_i_glide_ligand_efficiency_ln>
-1.82663942134875

> <r_i_glide_gscore>
-7.55405676157593

> <r_i_glide_lipo>
-4.08502288662761

> <r_i_glide_hbond>
-0.395050724888128

> <r_i_glide_metal>
0

> <r_i_glide_rewards>
-1.39581313483863

> <r_i_glide_evdw>
-34.7009620666504

> <r_i_glide_ecoul>
-4.80625009536743

> <r_i_glide_erotb>
0.777815602416074

> <r_i_glide_esite>
0

> <r_i_glide_emodel>
-53.2680965212971

> <r_i_glide_energy>
-39.5072121620178

> <r_i_glide_einternal>
4.51151466369629

> <i_i_glide_confnum>
91

> <i_i_glide_posenum>
113

> <r_i_glide_eff_state_penalty>
0

> <s_user_duplicate_titles>
CHEMBL4581_lig70

> <s_m_subgroup_title>
dock_pv

> <s_m_subgroupid>
dock_pv

> <b_m_subgroup_collapsed>
1

$$$$
CHEMBL4581_lig583
                    3D
 Schrodinger Suite 2021-1.
 53 55  0  0  1  0            999 V2000
   17.8250   14.3368  110.1418 C   0  0  0  0  0  0
   17.6055   14.8608  108.6847 C   0  0  0  0  0  0
   18.9653   14.9596  107.9318 C   0  0  0  0  0  0
   19.2459   15.9659  106.9948 C   0  0  0  0  0  0
   20.4313   15.9622  106.2663 C   0  0  0  0  0  0
   21.3641   14.9482  106.4698 C   0  0  0  0  0  0
   21.1195   13.9621  107.4216 C   0  0  0  0  0  0
   19.9413   13.9774  108.1586 C   0  0  0  0  0  0
   16.6978   16.4592  108.8618 S   0  0  0  0  0  0
   17.8778   17.7567  109.3671 C   0  0  0  0  0  0
   17.6736   18.2682  110.7968 C   0  0  0  0  0  0
   16.6790   13.8895  107.8559 C   0  0  0  0  0  0
   16.3165   14.1499  106.3767 C   0  0  0  0  0  0
   15.9027   13.0494  105.6179 C   0  0  0  0  0  0
   15.4942   13.2077  104.2964 C   0  0  0  0  0  0
   15.5115   14.4675  103.7098 C   0  0  0  0  0  0
   15.9152   15.5760  104.4445 C   0  0  0  0  0  0
   16.3027   15.4179  105.7719 C   0  0  0  0  0  0
   16.3175   18.7615  110.9591 N   0  0  0  0  0  0
   18.7871   14.9540  110.9571 C   0  0  0  0  0  0
   19.0316   14.5123  112.2517 C   0  0  0  0  0  0
   17.3859   12.7727  111.9564 C   0  0  0  0  0  0
   17.1267   13.2338  110.6679 C   0  0  0  0  0  0
   18.3253   13.4224  112.7542 C   0  0  0  0  0  0
   22.6396   14.9122  105.6470 C   0  0  0  0  0  0
   18.6026   12.9231  114.1568 C   0  0  0  0  0  0
   18.5478   16.7617  106.8053 H   0  0  0  0  0  0
   20.6141   16.7390  105.5396 H   0  0  0  0  0  0
   21.8385   13.1727  107.5860 H   0  0  0  0  0  0
   19.7684   13.1780  108.8628 H   0  0  0  0  0  0
   18.9020   17.4138  109.2515 H   0  0  0  0  0  0
   17.7725   18.5849  108.6656 H   0  0  0  0  0  0
   17.8539   17.4637  111.5081 H   0  0  0  0  0  0
   18.3845   19.0642  111.0227 H   0  0  0  0  0  0
   17.1386   12.8984  107.8876 H   0  0  0  0  0  0
   15.7167   13.7951  108.3597 H   0  0  0  0  0  0
   15.8806   12.0625  106.0576 H   0  0  0  0  0  0
   15.1560   12.3587  103.7278 H   0  0  0  0  0  0
   15.1957   14.5886  102.6829 H   0  0  0  0  0  0
   15.9112   16.5582  103.9946 H   0  0  0  0  0  0
   16.5658   16.3124  106.3009 H   0  0  0  0  0  0
   15.6647   18.0433  110.6785 H   0  0  0  0  0  0
   16.1346   18.9526  111.9393 H   0  0  0  0  0  0
   19.3740   15.7781  110.5840 H   0  0  0  0  0  0
   19.7785   15.0105  112.8527 H   0  0  0  0  0  0
   16.8405   11.9197  112.3361 H   0  0  0  0  0  0
   16.3856   12.6968  110.0981 H   0  0  0  0  0  0
   22.4564   15.2743  104.6344 H   0  0  0  0  0  0
   23.4131   15.5301  106.1054 H   0  0  0  0  0  0
   23.0124   13.8901  105.5464 H   0  0  0  0  0  0
   18.7368   11.8442  114.1456 H   0  0  0  0  0  0
   19.5179   13.3518  114.5593 H   0  0  0  0  0  0
   17.7698   13.1497  114.8236 H   0  0  0  0  0  0
  1 20  2  0  0  0
  1  2  1  0  0  0
  1 23  1  0  0  0
  2  9  1  0  0  0
  2  3  1  0  0  0
  2 12  1  0  0  0
  3  4  2  0  0  0
  3  8  1  0  0  0
  4  5  1  0  0  0
  4 27  1  0  0  0
  5  6  2  0  0  0
  5 28  1  0  0  0
  6  7  1  0  0  0
  6 25  1  0  0  0
  7  8  2  0  0  0
  7 29  1  0  0  0
  8 30  1  0  0  0
  9 10  1  0  0  0
 10 11  1  0  0  0
 10 31  1  0  0  0
 10 32  1  0  0  0
 11 19  1  0  0  0
 11 33  1  0  0  0
 11 34  1  0  0  0
 12 13  1  0  0  0
 12 35  1  0  0  0
 12 36  1  0  0  0
 13 14  2  0  0  0
 13 18  1  0  0  0
 14 15  1  0  0  0
 14 37  1  0  0  0
 15 16  2  0  0  0
 15 38  1  0  0  0
 16 17  1  0  0  0
 16 39  1  0  0  0
 17 18  2  0  0  0
 17 40  1  0  0  0
 18 41  1  0  0  0
 19 42  1  0  0  0
 19 43  1  0  0  0
 20 21  1  0  0  0
 20 44  1  0  0  0
 21 24  2  0  0  0
 21 45  1  0  0  0
 22 24  1  0  0  0
 22 23  2  0  0  0
 22 46  1  0  0  0
 23 47  1  0  0  0
 24 26  1  0  0  0
 25 48  1  0  0  0
 25 49  1  0  0  0
 25 50  1  0  0  0
 26 51  1  0  0  0
 26 52  1  0  0  0
 26 53  1  0  0  0
M  END
> <s_m_entry_id>
349

> <s_m_entry_name>
dock_pv.348

> <s_m_Source_Path>
/home/csk/Desktop/cluster/DUD-E-result/kif11

> <s_m_Source_File>
dock_pv.maegz

> <i_m_Source_File_Index>
348

> <chembl_id>
CHEMBL2043419

> <chembl_pref_name>
None

> <i_lp_mmshare_version>
53161

> <i_f3d_flags>
0

> <r_lp_tautomer_probability>
1

> <s_lp_Force_Field>
OPLS_2005

> <r_lp_Energy>
22.695789

> <b_lp_Chiralities_Consistent>
1

> <s_lp_Variant>
CHEMBL4581_lig583-1

> <s_i_glide_gridfile>
glide-grid_3cjo

> <i_i_glide_lignum>
896

> <i_i_glide_rotatable_bonds>
7

> <r_i_docking_score>
-7.55069692733972

> <r_i_glide_ligand_efficiency>
-0.290411420282297

> <r_i_glide_ligand_efficiency_sa>
-0.860342689872546

> <r_i_glide_ligand_efficiency_ln>
-1.77325639752831

> <r_i_glide_gscore>
-7.55069692733972

> <r_i_glide_lipo>
-4.7035132978653

> <r_i_glide_hbond>
-0.317746128617834

> <r_i_glide_metal>
0

> <r_i_glide_rewards>
-0.994303325496127

> <r_i_glide_evdw>
-42.0747184753418

> <r_i_glide_ecoul>
-2.08221435546875

> <r_i_glide_erotb>
0.880933901726942

> <r_i_glide_esite>
0

> <r_i_glide_emodel>
-61.0356878732411

> <r_i_glide_energy>
-44.1569328308105

> <r_i_glide_einternal>
6.39411926269531

> <i_i_glide_confnum>
64

> <i_i_glide_posenum>
251

> <r_i_glide_eff_state_penalty>
0

> <s_user_duplicate_titles>
CHEMBL4581_lig583

> <s_m_subgroup_title>
dock_pv

> <s_m_subgroupid>
dock_pv

> <b_m_subgroup_collapsed>
1

$$$$
CHEMBL4581_lig358
                    3D
 Schrodinger Suite 2021-1.
 65 68  0  0  1  0            999 V2000
   14.9434   15.3893  107.1209 N   0  0  0  0  0  0
   21.5038   15.4674  106.1609 C   0  0  0  0  0  0
   21.9131   14.1905  106.5574 C   0  0  0  0  0  0
   21.2997   13.5720  107.6445 C   0  0  0  0  0  0
   20.4414   16.0863  106.8167 C   0  0  0  0  0  0
   19.8365   15.5025  107.9276 C   0  0  0  0  0  0
   20.2720   14.2257  108.3304 C   0  0  0  0  0  0
   19.6879   13.5658  109.4218 N   0  0  0  0  0  0
   18.4949   14.1249  110.0598 C   0  0  2  0  0  0
   18.7574   16.2612  108.6896 C   0  0  2  0  0  0
   18.5796   15.6806  110.1085 C   0  0  1  0  0  0
   17.3689   16.3704  110.7840 C   0  0  0  0  0  0
   16.1185   16.3635  109.8914 C   0  0  0  0  0  0
   16.4425   16.8805  108.4729 C   0  0  1  0  0  0
   17.5566   16.1641  107.9352 O   0  0  0  0  0  0
   18.2818   13.4983  111.4291 C   0  0  0  0  0  0
   19.0853   13.8802  112.5081 C   0  0  0  0  0  0
   18.8826   13.3132  113.7587 C   0  0  0  0  0  0
   17.8762   12.3699  113.9360 C   0  0  0  0  0  0
   17.0979   11.9626  112.8605 C   0  0  0  0  0  0
   17.2919   12.5290  111.6061 C   0  0  0  0  0  0
   22.2643   16.2323  105.1003 C   0  0  0  0  0  0
   23.2805   16.8371  105.7238 F   0  0  0  0  0  0
   22.7185   15.4017  104.1720 F   0  0  0  0  0  0
   21.5182   17.1633  104.5068 F   0  0  0  0  0  0
   15.2426   16.7681  107.5125 C   0  0  0  0  0  0
   15.4443   14.7930  106.0312 C   0  0  0  0  0  0
   15.3131   13.4607  106.0872 N   0  0  0  0  0  0
   15.9362   15.3965  105.0739 O   0  0  0  0  0  0
   15.3268   12.5900  104.9140 C   0  0  0  0  0  0
   14.1346   12.8179  103.9433 C   0  0  0  0  0  0
   12.8520   12.2072  104.3182 N   0  0  0  0  0  0
   12.8865   10.7520  104.4563 C   0  0  0  0  0  0
   12.2486   12.8223  105.4969 C   0  0  0  0  0  0
   19.4724   15.9725  110.6657 H   0  0  0  0  0  0
   19.0482   17.3118  108.7695 H   0  0  0  0  0  0
   14.3460   14.8588  107.7363 H   0  0  0  0  0  0
   22.7288   13.6927  106.0533 H   0  0  0  0  0  0
   21.6337   12.5935  107.9552 H   0  0  0  0  0  0
   20.1264   17.0761  106.5185 H   0  0  0  0  0  0
   19.7955   12.5664  109.5385 H   0  0  0  0  0  0
   17.6356   13.8480  109.4434 H   0  0  0  0  0  0
   17.6320   17.4048  111.0120 H   0  0  0  0  0  0
   17.1405   15.9128  111.7491 H   0  0  0  0  0  0
   15.3415   16.9759  110.3458 H   0  0  0  0  0  0
   15.7089   15.3524  109.8374 H   0  0  0  0  0  0
   16.6947   17.9438  108.5338 H   0  0  0  0  0  0
   19.8763   14.6085  112.3834 H   0  0  0  0  0  0
   19.5178   13.6050  114.5780 H   0  0  0  0  0  0
   17.7098   11.9628  114.9212 H   0  0  0  0  0  0
   16.3188   11.2265  112.9967 H   0  0  0  0  0  0
   16.6765   12.2108  110.7762 H   0  0  0  0  0  0
   14.3540   17.2034  107.9701 H   0  0  0  0  0  0
   15.4414   17.3748  106.6261 H   0  0  0  0  0  0
   15.1959   13.0094  106.9822 H   0  0  0  0  0  0
   15.3502   11.5624  105.2740 H   0  0  0  0  0  0
   16.2682   12.7171  104.3756 H   0  0  0  0  0  0
   14.3826   12.3530  102.9914 H   0  0  0  0  0  0
   14.0123   13.8761  103.7053 H   0  0  0  0  0  0
   11.8739   10.3617  104.5579 H   0  0  0  0  0  0
   13.3258   10.2846  103.5738 H   0  0  0  0  0  0
   13.4493   10.4321  105.3326 H   0  0  0  0  0  0
   11.2445   12.4336  105.6611 H   0  0  0  0  0  0
   12.8341   12.6321  106.3989 H   0  0  0  0  0  0
   12.1721   13.9033  105.3687 H   0  0  0  0  0  0
  1 26  1  0  0  0
  1 27  1  0  0  0
  1 37  1  0  0  0
  2  3  2  0  0  0
  2  5  1  0  0  0
  2 22  1  0  0  0
  3  4  1  0  0  0
  3 38  1  0  0  0
  4  7  2  0  0  0
  4 39  1  0  0  0
  5  6  2  0  0  0
  5 40  1  0  0  0
  6  7  1  0  0  0
  6 10  1  0  0  0
  7  8  1  0  0  0
  8  9  1  0  0  0
  8 41  1  0  0  0
  9 11  1  0  0  0
  9 16  1  0  0  0
  9 42  1  0  0  0
 10 11  1  0  0  0
 10 15  1  0  0  0
 10 36  1  0  0  0
 11 12  1  0  0  0
 11 35  1  0  0  0
 12 13  1  0  0  0
 12 43  1  0  0  0
 12 44  1  0  0  0
 13 14  1  0  0  0
 13 45  1  0  0  0
 13 46  1  0  0  0
 14 15  1  0  0  0
 14 26  1  0  0  0
 14 47  1  0  0  0
 16 17  2  0  0  0
 16 21  1  0  0  0
 17 18  1  0  0  0
 17 48  1  0  0  0
 18 19  2  0  0  0
 18 49  1  0  0  0
 19 20  1  0  0  0
 19 50  1  0  0  0
 20 21  2  0  0  0
 20 51  1  0  0  0
 21 52  1  0  0  0
 22 23  1  0  0  0
 22 24  1  0  0  0
 22 25  1  0  0  0
 26 53  1  0  0  0
 26 54  1  0  0  0
 27 28  1  0  0  0
 27 29  2  0  0  0
 28 30  1  0  0  0
 28 55  1  0  0  0
 30 31  1  0  0  0
 30 56  1  0  0  0
 30 57  1  0  0  0
 31 32  1  0  0  0
 31 58  1  0  0  0
 31 59  1  0  0  0
 32 33  1  0  0  0
 32 34  1  0  0  0
 33 60  1  0  0  0
 33 61  1  0  0  0
 33 62  1  0  0  0
 34 63  1  0  0  0
 34 64  1  0  0  0
 34 65  1  0  0  0
M  END
> <s_m_entry_id>
350

> <s_m_entry_name>
dock_pv.349

> <s_m_Source_Path>
/home/csk/Desktop/cluster/DUD-E-result/kif11

> <s_m_Source_File>
dock_pv.maegz

> <i_m_Source_File_Index>
349

> <chembl_id>
CHEMBL1077204

> <chembl_pref_name>
None

> <i_lp_mmshare_version>
53161

> <i_f3d_flags>
0

> <r_lp_tautomer_probability>
1

> <s_lp_Force_Field>
OPLS_2005

> <r_lp_Energy>
30.107082

> <b_lp_Chiralities_Consistent>
1

> <s_lp_Variant>
CHEMBL4581_lig358-1

> <s_i_glide_gridfile>
glide-grid_3cjo

> <i_i_glide_lignum>
511

> <i_i_glide_rotatable_bonds>
9

> <r_i_docking_score>
-7.55011536706908

> <r_i_glide_ligand_efficiency>
-0.222062216678502

> <r_i_glide_ligand_efficiency_sa>
-0.719395376923898

> <r_i_glide_ligand_efficiency_ln>
-1.66803225814836

> <r_i_glide_gscore>
-7.55011536706908

> <r_i_glide_lipo>
-4.83291467936597

> <r_i_glide_hbond>
-0.0384171697877205

> <r_i_glide_metal>
0

> <r_i_glide_rewards>
-0.999311864643981

> <r_i_glide_evdw>
-40.2337684631348

> <r_i_glide_ecoul>
-1.88501000404358

> <r_i_glide_erotb>
0.624229890532913

> <r_i_glide_esite>
-0.00926162004104759

> <r_i_glide_emodel>
-54.5654117532564

> <r_i_glide_energy>
-42.1187784671783

> <r_i_glide_einternal>
4.11428356170654

> <i_i_glide_confnum>
22

> <i_i_glide_posenum>
199

> <r_i_glide_eff_state_penalty>
0

> <s_user_duplicate_titles>
CHEMBL4581_lig358,615664

> <s_m_subgroup_title>
dock_pv

> <s_m_subgroupid>
dock_pv

> <b_m_subgroup_collapsed>
1

$$$$
CHEMBL4581_lig601
                    3D
 Schrodinger Suite 2021-1.
 53 55  0  0  1  0            999 V2000
   19.5233   15.1610  107.7473 C   0  0  0  0  0  0
   18.4780   14.6982  108.8015 C   0  0  1  0  0  0
   17.6422   15.8748  109.4030 C   0  0  0  0  0  0
   16.2373   15.9313  109.3461 C   0  0  0  0  0  0
   15.5415   16.9936  109.9176 C   0  0  0  0  0  0
   16.2382   18.0125  110.5593 C   0  0  0  0  0  0
   17.6259   17.9747  110.6374 C   0  0  0  0  0  0
   18.3171   16.9104  110.0703 C   0  0  0  0  0  0
   17.4223   13.4647  107.9175 S   0  0  0  0  0  0
   17.0021   14.2425  106.3208 C   0  0  0  0  0  0
   15.9184   13.4483  105.5600 C   0  0  2  0  0  0
   19.2298   14.0055  109.9891 C   0  0  0  0  0  0
   18.4159   13.5612  111.1984 C   0  0  0  0  0  0
   18.6262   14.1305  112.4600 C   0  0  0  0  0  0
   17.9854   13.5848  113.5732 C   0  0  0  0  0  0
   17.1378   12.4973  113.4386 C   0  0  0  0  0  0
   16.9283   11.9619  112.1822 C   0  0  0  0  0  0
   17.5473   12.4827  111.0672 C   0  0  0  0  0  0
   15.9324   13.7490  104.1148 N   0  0  0  0  0  0
   14.5063   13.7462  106.1159 C   0  0  0  0  0  0
   14.0847   12.7619  106.9589 O   0  0  0  0  0  0
   13.8706   14.7654  105.8447 O   0  0  0  0  0  0
   19.3502   16.3624  107.0569 C   0  0  0  0  0  0
   20.2436   16.7621  106.0700 C   0  0  0  0  0  0
   21.5181   14.7521  106.4091 C   0  0  0  0  0  0
   20.6266   14.3620  107.4026 C   0  0  0  0  0  0
   21.3404   15.9687  105.7589 C   0  0  0  0  0  0
   22.3179   16.4184  104.6913 C   0  0  0  0  0  0
   15.6542   15.1612  108.8667 H   0  0  0  0  0  0
   14.4630   17.0254  109.8632 H   0  0  0  0  0  0
   15.7000   18.8356  111.0067 H   0  0  0  0  0  0
   18.1647   18.7618  111.1452 H   0  0  0  0  0  0
   19.3908   16.8935  110.1597 H   0  0  0  0  0  0
   16.7030   15.2807  106.4745 H   0  0  0  0  0  0
   17.9163   14.2741  105.7300 H   0  0  0  0  0  0
   16.1287   12.3837  105.6808 H   0  0  0  0  0  0
   19.7397   13.1034  109.6524 H   0  0  0  0  0  0
   20.0208   14.6628  110.3385 H   0  0  0  0  0  0
   19.3099   14.9573  112.5857 H   0  0  0  0  0  0
   18.1453   13.9621  114.5586 H   0  0  0  0  0  0
   16.6577   12.0648  114.3046 H   0  0  0  0  0  0
   16.3180   11.0929  112.0621 H   0  0  0  0  0  0
   17.3963   11.9841  110.1239 H   0  0  0  0  0  0
   16.8644   13.5618  103.7582 H   0  0  0  0  0  0
   15.2997   13.1451  103.6115 H   0  0  0  0  0  0
   14.7223   12.0473  107.0719 H   0  0  0  0  0  0
   18.5155   17.0058  107.2852 H   0  0  0  0  0  0
   20.0880   17.7031  105.5638 H   0  0  0  0  0  0
   22.3499   14.1111  106.1537 H   0  0  0  0  0  0
   20.7979   13.4068  107.8701 H   0  0  0  0  0  0
   21.8236   17.0293  103.9345 H   0  0  0  0  0  0
   23.1180   17.0042  105.1418 H   0  0  0  0  0  0
   22.7460   15.5628  104.1683 H   0  0  0  0  0  0
  1 23  2  0  0  0
  1  2  1  0  0  0
  1 26  1  0  0  0
  2  9  1  0  0  0
  2  3  1  0  0  0
  2 12  1  0  0  0
  3  4  2  0  0  0
  3  8  1  0  0  0
  4  5  1  0  0  0
  4 29  1  0  0  0
  5  6  2  0  0  0
  5 30  1  0  0  0
  6  7  1  0  0  0
  6 31  1  0  0  0
  7  8  2  0  0  0
  7 32  1  0  0  0
  8 33  1  0  0  0
  9 10  1  0  0  0
 10 11  1  0  0  0
 10 34  1  0  0  0
 10 35  1  0  0  0
 11 19  1  0  0  0
 11 20  1  0  0  0
 11 36  1  0  0  0
 12 13  1  0  0  0
 12 37  1  0  0  0
 12 38  1  0  0  0
 13 14  2  0  0  0
 13 18  1  0  0  0
 14 15  1  0  0  0
 14 39  1  0  0  0
 15 16  2  0  0  0
 15 40  1  0  0  0
 16 17  1  0  0  0
 16 41  1  0  0  0
 17 18  2  0  0  0
 17 42  1  0  0  0
 18 43  1  0  0  0
 19 44  1  0  0  0
 19 45  1  0  0  0
 20 21  1  0  0  0
 20 22  2  0  0  0
 21 46  1  0  0  0
 23 24  1  0  0  0
 23 47  1  0  0  0
 24 27  2  0  0  0
 24 48  1  0  0  0
 25 27  1  0  0  0
 25 26  2  0  0  0
 25 49  1  0  0  0
 26 50  1  0  0  0
 27 28  1  0  0  0
 28 51  1  0  0  0
 28 52  1  0  0  0
 28 53  1  0  0  0
M  END
> <s_m_entry_id>
351

> <s_m_entry_name>
dock_pv.350

> <s_m_Source_Path>
/home/csk/Desktop/cluster/DUD-E-result/kif11

> <s_m_Source_File>
dock_pv.maegz

> <i_m_Source_File_Index>
350

> <chembl_id>
CHEMBL2043401

> <chembl_pref_name>
None

> <i_lp_mmshare_version>
53161

> <i_f3d_flags>
0

> <r_lp_tautomer_probability>
1

> <s_lp_Force_Field>
OPLS_2005

> <r_lp_Energy>
21.047059

> <b_lp_Chiralities_Consistent>
1

> <s_lp_Variant>
CHEMBL4581_lig601-1

> <s_i_glide_gridfile>
glide-grid_3cjo

> <i_i_glide_lignum>
926

> <i_i_glide_rotatable_bonds>
9

> <r_i_docking_score>
-7.5444728143171

> <r_i_glide_ligand_efficiency>
-0.269445457654182

> <r_i_glide_ligand_efficiency_sa>
-0.818195104325882

> <r_i_glide_ligand_efficiency_ln>
-1.74148584089166

> <r_i_glide_gscore>
-7.5444728143171

> <r_i_glide_lipo>
-4.84606494541476

> <r_i_glide_hbond>
-0.0488756209177506

> <r_i_glide_metal>
0

> <r_i_glide_rewards>
-0.785352003309688

> <r_i_glide_evdw>
-38.4962310791016

> <r_i_glide_ecoul>
-6.34626531600952

> <r_i_glide_erotb>
1.0184679673745

> <r_i_glide_esite>
-0.00589686069289082

> <r_i_glide_emodel>
-63.4829332983724

> <r_i_glide_energy>
-44.8424963951111

> <r_i_glide_einternal>
5.05945682525635

> <i_i_glide_confnum>
173

> <i_i_glide_posenum>
22

> <r_i_glide_eff_state_penalty>
0

> <s_user_duplicate_titles>
CHEMBL4581_lig601

> <s_m_subgroup_title>
dock_pv

> <s_m_subgroupid>
dock_pv

> <b_m_subgroup_collapsed>
1

$$$$
CHEMBL4581_lig368
                    3D
 Schrodinger Suite 2021-1.
 69 72  0  0  1  0            999 V2000
   21.2798   15.4543  106.3374 C   0  0  0  0  0  0
   21.7051   14.1830  106.7695 C   0  0  0  0  0  0
   21.1181   13.5637  107.8615 C   0  0  0  0  0  0
   20.1777   16.0308  106.9749 C   0  0  0  0  0  0
   19.5633   15.4258  108.0707 C   0  0  0  0  0  0
   20.0620   14.1893  108.5178 C   0  0  0  0  0  0
   19.5009   13.5281  109.6165 N   0  0  0  0  0  0
   18.2594   14.0071  110.2137 C   0  0  2  0  0  0
   18.3827   16.0942  108.7517 C   0  0  2  0  0  0
   18.2092   15.5652  110.1900 C   0  0  1  0  0  0
   16.9215   16.1812  110.7764 C   0  0  0  0  0  0
   15.7053   15.9731  109.8574 C   0  0  0  0  0  0
   16.0128   16.3829  108.3940 C   0  0  1  0  0  0
   17.2377   15.7928  107.9575 O   0  0  0  0  0  0
   18.0960   13.4170  111.6049 C   0  0  0  0  0  0
   17.1070   12.4640  111.8468 C   0  0  0  0  0  0
   16.9323   11.9621  113.1347 C   0  0  0  0  0  0
   17.7803   12.3631  114.1571 C   0  0  0  0  0  0
   18.8142   13.2497  113.8973 C   0  0  0  0  0  0
   18.9587   13.8040  112.6334 C   0  0  0  0  0  0
   14.8828   16.1108  107.3609 C   0  0  0  0  0  0
   14.3133   14.7563  107.2407 N   0  0  2  0  0  0
   19.0509   15.9553  110.7660 H   0  0  0  0  0  0
   18.5420   17.1745  108.7811 H   0  0  0  0  0  0
   13.3125   14.4543  108.2743 C   0  0  0  0  0  0
   22.0274   16.2155  105.2200 C   0  0  0  0  0  0
   22.7383   15.1947  104.3227 C   0  0  0  0  0  0
   23.1051   17.1305  105.8045 C   0  0  0  0  0  0
   21.0913   17.1622  104.4167 C   0  0  0  0  0  0
   12.1287   13.6543  107.7043 C   0  0  0  0  0  0
   15.2701   13.6619  107.0096 C   0  0  0  0  0  0
   16.0415   13.8180  105.6890 C   0  0  0  0  0  0
   11.4019   14.4585  106.8012 O   0  0  0  0  0  0
   22.5399   13.6722  106.3160 H   0  0  0  0  0  0
   21.4880   12.6021  108.1844 H   0  0  0  0  0  0
   19.8069   16.9966  106.6684 H   0  0  0  0  0  0
   19.6601   12.5383  109.7465 H   0  0  0  0  0  0
   17.4436   13.6183  109.6019 H   0  0  0  0  0  0
   17.0733   17.2504  110.9401 H   0  0  0  0  0  0
   16.7180   15.7577  111.7561 H   0  0  0  0  0  0
   14.8568   16.5446  110.2351 H   0  0  0  0  0  0
   15.4130   14.9266  109.9019 H   0  0  0  0  0  0
   16.1489   17.4663  108.3729 H   0  0  0  0  0  0
   16.4502   12.1341  111.0553 H   0  0  0  0  0  0
   16.1519   11.2458  113.3477 H   0  0  0  0  0  0
   17.6531   11.9608  115.1516 H   0  0  0  0  0  0
   19.5008   13.5256  114.6767 H   0  0  0  0  0  0
   19.7543   14.5097  112.4461 H   0  0  0  0  0  0
   15.2538   16.3939  106.3758 H   0  0  0  0  0  0
   14.0702   16.8170  107.5344 H   0  0  0  0  0  0
   12.9537   15.3174  108.8385 H   0  0  0  0  0  0
   13.7848   13.8301  109.0335 H   0  0  0  0  0  0
   22.0866   14.3620  104.1591 H   0  0  0  0  0  0
   23.0257   15.5620  103.3594 H   0  0  0  0  0  0
   23.6440   14.7919  104.7757 H   0  0  0  0  0  0
   22.6655   17.7679  106.5588 H   0  0  0  0  0  0
   23.9176   16.5602  106.2443 H   0  0  0  0  0  0
   23.5229   17.7968  105.0501 H   0  0  0  0  0  0
   20.8413   18.0191  105.0310 H   0  0  0  0  0  0
   21.5584   17.5462  103.5076 H   0  0  0  0  0  0
   20.1238   16.7475  104.1590 H   0  0  0  0  0  0
   11.4655   13.3252  108.5045 H   0  0  0  0  0  0
   12.4744   12.7620  107.1885 H   0  0  0  0  0  0
   14.7348   12.7118  106.9683 H   0  0  0  0  0  0
   15.9663   13.5806  107.8430 H   0  0  0  0  0  0
   16.6866   12.9537  105.5189 H   0  0  0  0  0  0
   15.3592   13.8928  104.8405 H   0  0  0  0  0  0
   16.6809   14.7008  105.6861 H   0  0  0  0  0  0
   12.0283   14.7721  106.1436 H   0  0  0  0  0  0
  1  4  1  0  0  0
  1 26  1  0  0  0
  1  2  2  0  0  0
  2  3  1  0  0  0
  2 34  1  0  0  0
  3  6  2  0  0  0
  3 35  1  0  0  0
  4  5  2  0  0  0
  4 36  1  0  0  0
  5  6  1  0  0  0
  5  9  1  0  0  0
  6  7  1  0  0  0
  7  8  1  0  0  0
  7 37  1  0  0  0
  8 10  1  0  0  0
  8 15  1  0  0  0
  8 38  1  0  0  0
  9 10  1  0  0  0
  9 24  1  0  0  0
  9 14  1  0  0  0
 10 23  1  0  0  0
 10 11  1  0  0  0
 11 12  1  0  0  0
 11 39  1  0  0  0
 11 40  1  0  0  0
 12 13  1  0  0  0
 12 41  1  0  0  0
 12 42  1  0  0  0
 13 21  1  0  0  0
 13 14  1  0  0  0
 13 43  1  0  0  0
 15 16  2  0  0  0
 15 20  1  0  0  0
 16 17  1  0  0  0
 16 44  1  0  0  0
 17 18  2  0  0  0
 17 45  1  0  0  0
 18 19  1  0  0  0
 18 46  1  0  0  0
 19 20  2  0  0  0
 19 47  1  0  0  0
 20 48  1  0  0  0
 21 22  1  0  0  0
 21 49  1  0  0  0
 21 50  1  0  0  0
 22 25  1  0  0  0
 22 31  1  0  0  0
 25 30  1  0  0  0
 25 51  1  0  0  0
 25 52  1  0  0  0
 26 27  1  0  0  0
 26 28  1  0  0  0
 26 29  1  0  0  0
 27 53  1  0  0  0
 27 54  1  0  0  0
 27 55  1  0  0  0
 28 56  1  0  0  0
 28 57  1  0  0  0
 28 58  1  0  0  0
 29 59  1  0  0  0
 29 60  1  0  0  0
 29 61  1  0  0  0
 30 33  1  0  0  0
 30 62  1  0  0  0
 30 63  1  0  0  0
 31 32  1  0  0  0
 31 64  1  0  0  0
 31 65  1  0  0  0
 32 66  1  0  0  0
 32 67  1  0  0  0
 32 68  1  0  0  0
 33 69  1  0  0  0
M  END
> <s_m_entry_id>
352

> <s_m_entry_name>
dock_pv.351

> <s_m_Source_Path>
/home/csk/Desktop/cluster/DUD-E-result/kif11

> <s_m_Source_File>
dock_pv.maegz

> <i_m_Source_File_Index>
351

> <chembl_id>
CHEMBL1084935

> <chembl_pref_name>
None

> <i_lp_mmshare_version>
53161

> <i_f3d_flags>
0

> <r_lp_tautomer_probability>
1

> <s_lp_Force_Field>
OPLS_2005

> <r_lp_Energy>
47.281619

> <b_lp_Chiralities_Consistent>
1

> <s_lp_Variant>
CHEMBL4581_lig368-1

> <s_i_glide_gridfile>
glide-grid_3cjo

> <i_i_glide_lignum>
521

> <i_i_glide_rotatable_bonds>
8

> <r_i_docking_score>
-7.54299134585239

> <r_i_glide_ligand_efficiency>
-0.243322301479109

> <r_i_glide_ligand_efficiency_sa>
-0.764367969286876

> <r_i_glide_ligand_efficiency_ln>
-1.70117571341261

> <r_i_glide_gscore>
-7.54299134585239

> <r_i_glide_lipo>
-5.61296964630939

> <r_i_glide_hbond>
-0.077796656921498

> <r_i_glide_metal>
0

> <r_i_glide_rewards>
-0.677708045454544

> <r_i_glide_evdw>
-31.5361232757568

> <r_i_glide_ecoul>
-1.01584899425507

> <r_i_glide_erotb>
0.554666515759145

> <r_i_glide_esite>
0

> <r_i_glide_emodel>
-47.4953783503773

> <r_i_glide_energy>
-32.5519722700119

> <r_i_glide_einternal>
5.07782554626465

> <i_i_glide_confnum>
12

> <i_i_glide_posenum>
306

> <r_i_glide_eff_state_penalty>
0

> <s_user_duplicate_titles>
CHEMBL4581_lig368

> <s_m_subgroup_title>
dock_pv

> <s_m_subgroupid>
dock_pv

> <b_m_subgroup_collapsed>
1

$$$$
CHEMBL4581_lig84
                    3D
 Schrodinger Suite 2021-1.
 47 49  0  0  1  0            999 V2000
   17.9881   16.1121  107.0680 C   0  0  0  0  0  0
   17.0729   15.6426  108.1281 N   0  0  0  0  0  0
   17.0203   14.1778  108.2409 C   0  0  0  0  0  0
   18.4065   13.7436  108.7694 C   0  0  1  0  0  0
   19.3397   15.3791  107.0394 C   0  0  0  0  0  0
   19.5525   14.2812  107.8953 C   0  0  0  0  0  0
   20.8011   13.6490  107.9048 C   0  0  0  0  0  0
   21.7664   13.9639  106.9594 C   0  0  0  0  0  0
   21.5801   15.0533  106.1158 C   0  0  0  0  0  0
   20.3693   15.7725  106.1586 C   0  0  0  0  0  0
   20.1267   16.9584  105.2192 C   0  0  0  0  0  0
   22.7186   15.4297  105.1796 C   0  0  0  0  0  0
   16.0697   16.4064  108.6565 C   0  0  0  0  0  0
   14.9937   15.8988  108.9929 O   0  0  0  0  0  0
   16.2752   17.7460  108.8042 N   0  0  0  0  0  0
   17.5383   18.3563  109.2303 C   0  0  0  0  0  0
   15.1559   18.6909  108.8283 C   0  0  0  0  0  0
   18.5713   14.0618  110.2519 C   0  0  0  0  0  0
   19.1921   15.2458  110.6567 C   0  0  0  0  0  0
   19.4221   15.5016  112.0004 C   0  0  0  0  0  0
   18.9870   14.5907  112.9591 C   0  0  0  0  0  0
   18.3038   13.4403  112.5713 C   0  0  0  0  0  0
   18.1081   13.1674  111.2205 C   0  0  0  0  0  0
   17.6846   12.3621  113.7609 Cl  0  0  0  0  0  0
   17.4983   16.0033  106.1008 H   0  0  0  0  0  0
   18.2035   17.1595  107.1946 H   0  0  0  0  0  0
   16.8267   13.7423  107.2579 H   0  0  0  0  0  0
   16.2251   13.8207  108.9004 H   0  0  0  0  0  0
   18.4459   12.6568  108.6960 H   0  0  0  0  0  0
   20.9716   12.8154  108.5710 H   0  0  0  0  0  0
   22.6860   13.4013  106.9359 H   0  0  0  0  0  0
   20.9430   17.1717  104.5359 H   0  0  0  0  0  0
   19.2407   16.7705  104.6154 H   0  0  0  0  0  0
   19.9366   17.8646  105.7893 H   0  0  0  0  0  0
   22.3763   15.4198  104.1475 H   0  0  0  0  0  0
   23.0774   16.4364  105.4062 H   0  0  0  0  0  0
   23.5636   14.7429  105.2524 H   0  0  0  0  0  0
   18.3684   17.6526  109.2671 H   0  0  0  0  0  0
   17.8137   19.1614  108.5530 H   0  0  0  0  0  0
   17.4331   18.7829  110.2323 H   0  0  0  0  0  0
   14.2280   18.2486  108.4608 H   0  0  0  0  0  0
   14.9826   19.0466  109.8452 H   0  0  0  0  0  0
   15.3726   19.5575  108.2042 H   0  0  0  0  0  0
   19.5227   15.9610  109.9230 H   0  0  0  0  0  0
   19.9471   16.4006  112.2838 H   0  0  0  0  0  0
   19.1772   14.7802  114.0022 H   0  0  0  0  0  0
   17.6001   12.2591  110.9262 H   0  0  0  0  0  0
  1  5  1  0  0  0
  1  2  1  0  0  0
  1 25  1  0  0  0
  1 26  1  0  0  0
  2 13  1  0  0  0
  2  3  1  0  0  0
  3  4  1  0  0  0
  3 27  1  0  0  0
  3 28  1  0  0  0
  4  6  1  0  0  0
  4 18  1  0  0  0
  4 29  1  0  0  0
  5  6  2  0  0  0
  5 10  1  0  0  0
  6  7  1  0  0  0
  7  8  2  0  0  0
  7 30  1  0  0  0
  8  9  1  0  0  0
  8 31  1  0  0  0
  9 12  1  0  0  0
  9 10  2  0  0  0
 10 11  1  0  0  0
 11 32  1  0  0  0
 11 33  1  0  0  0
 11 34  1  0  0  0
 12 35  1  0  0  0
 12 36  1  0  0  0
 12 37  1  0  0  0
 13 14  2  0  0  0
 13 15  1  0  0  0
 15 16  1  0  0  0
 15 17  1  0  0  0
 16 38  1  0  0  0
 16 39  1  0  0  0
 16 40  1  0  0  0
 17 41  1  0  0  0
 17 42  1  0  0  0
 17 43  1  0  0  0
 18 19  2  0  0  0
 18 23  1  0  0  0
 19 20  1  0  0  0
 19 44  1  0  0  0
 20 21  2  0  0  0
 20 45  1  0  0  0
 21 22  1  0  0  0
 21 46  1  0  0  0
 22 23  2  0  0  0
 22 24  1  0  0  0
 23 47  1  0  0  0
M  END
> <s_m_entry_id>
353

> <s_m_entry_name>
dock_pv.352

> <s_m_Source_Path>
/home/csk/Desktop/cluster/DUD-E-result/kif11

> <s_m_Source_File>
dock_pv.maegz

> <i_m_Source_File_Index>
352

> <chembl_id>
CHEMBL207601

> <chembl_pref_name>
None

> <i_lp_mmshare_version>
53161

> <i_f3d_flags>
0

> <r_lp_tautomer_probability>
1

> <s_lp_Force_Field>
OPLS_2005

> <r_lp_Energy>
48.496098

> <b_lp_Chiralities_Consistent>
1

> <s_lp_Variant>
CHEMBL4581_lig84-2

> <s_i_glide_gridfile>
glide-grid_3cjo

> <i_i_glide_lignum>
134

> <i_i_glide_rotatable_bonds>
3

> <r_i_docking_score>
-7.54240507365996

> <r_i_glide_ligand_efficiency>
-0.314266878069165

> <r_i_glide_ligand_efficiency_sa>
-0.906502538753903

> <r_i_glide_ligand_efficiency_ln>
-1.80524363254358

> <r_i_glide_gscore>
-7.54240507365996

> <r_i_glide_lipo>
-4.72978296952019

> <r_i_glide_hbond>
0

> <r_i_glide_metal>
0

> <r_i_glide_rewards>
-1.38181657119801

> <r_i_glide_evdw>
-33.0375709533691

> <r_i_glide_ecoul>
-0.677558183670044

> <r_i_glide_erotb>
0.322706742277195

> <r_i_glide_esite>
0

> <r_i_glide_emodel>
-49.936780678326

> <r_i_glide_energy>
-33.7151291370392

> <r_i_glide_einternal>
1.1614156961441

> <i_i_glide_confnum>
39

> <i_i_glide_posenum>
205

> <r_i_glide_eff_state_penalty>
0

> <s_user_duplicate_titles>
CHEMBL4581_lig84

> <s_m_subgroup_title>
dock_pv

> <s_m_subgroupid>
dock_pv

> <b_m_subgroup_collapsed>
1

$$$$
CHEMBL4581_lig79
                    3D
 Schrodinger Suite 2021-1.
 46 48  0  0  1  0            999 V2000
   21.0313   14.4343  107.2320 C   0  0  0  0  0  0
   20.7183   15.5213  106.4240 C   0  0  0  0  0  0
   19.4423   16.0937  106.5371 C   0  0  0  0  0  0
   20.1124   13.9605  108.1583 C   0  0  0  0  0  0
   18.8167   14.4761  108.2289 C   0  0  0  0  0  0
   18.4842   15.5866  107.4230 C   0  0  0  0  0  0
   17.0921   16.2187  107.5146 C   0  0  0  0  0  0
   16.4496   15.8373  108.7833 N   0  0  0  0  0  0
   16.3369   14.3841  108.9378 C   0  0  0  0  0  0
   17.7734   13.8439  109.1730 C   0  0  2  0  0  0
   18.1475   13.8830  110.6578 C   0  0  0  0  0  0
   17.4980   13.0089  111.5352 C   0  0  0  0  0  0
   17.8158   13.0060  112.8899 C   0  0  0  0  0  0
   18.8250   13.8352  113.3694 C   0  0  0  0  0  0
   19.4704   14.7235  112.5131 C   0  0  0  0  0  0
   19.1224   14.7555  111.1647 C   0  0  0  0  0  0
   16.0229   16.6896  109.7587 C   0  0  0  0  0  0
   15.1202   16.3642  110.5348 O   0  0  0  0  0  0
   16.6191   17.9073  109.8601 N   0  0  0  0  0  0
   18.0565   18.1333  109.6898 C   0  0  0  0  0  0
   15.9056   19.0665  110.3966 C   0  0  0  0  0  0
   17.1182   12.2089  113.7532 O   0  0  0  0  0  0
   21.7056   15.9621  105.5656 O   0  0  0  0  0  0
   21.5102   17.1859  104.8692 C   0  0  0  0  0  0
   22.0023   13.9657  107.1567 H   0  0  0  0  0  0
   19.1728   16.9371  105.9229 H   0  0  0  0  0  0
   20.3855   13.1221  108.7835 H   0  0  0  0  0  0
   17.1197   17.2974  107.3756 H   0  0  0  0  0  0
   16.4896   15.8293  106.6933 H   0  0  0  0  0  0
   15.5999   14.0830  109.6840 H   0  0  0  0  0  0
   15.9310   13.9813  108.0087 H   0  0  0  0  0  0
   17.7617   12.7795  108.9265 H   0  0  0  0  0  0
   16.7315   12.3446  111.1625 H   0  0  0  0  0  0
   19.1051   13.7866  114.4106 H   0  0  0  0  0  0
   20.2448   15.3757  112.8892 H   0  0  0  0  0  0
   19.6368   15.4497  110.5179 H   0  0  0  0  0  0
   18.6134   17.2086  109.5509 H   0  0  0  0  0  0
   18.2392   18.7626  108.8219 H   0  0  0  0  0  0
   18.4746   18.6285  110.5676 H   0  0  0  0  0  0
   14.8263   18.9075  110.4387 H   0  0  0  0  0  0
   16.2506   19.2843  111.4080 H   0  0  0  0  0  0
   16.0847   19.9456  109.7752 H   0  0  0  0  0  0
   16.4370   11.6851  113.3229 H   0  0  0  0  0  0
   22.3933   17.4183  104.2751 H   0  0  0  0  0  0
   21.3621   17.9986  105.5801 H   0  0  0  0  0  0
   20.6589   17.1557  104.1876 H   0  0  0  0  0  0
  1  2  2  0  0  0
  1  4  1  0  0  0
  1 25  1  0  0  0
  2  3  1  0  0  0
  2 23  1  0  0  0
  3  6  2  0  0  0
  3 26  1  0  0  0
  4  5  2  0  0  0
  4 27  1  0  0  0
  5 10  1  0  0  0
  5  6  1  0  0  0
  6  7  1  0  0  0
  7  8  1  0  0  0
  7 28  1  0  0  0
  7 29  1  0  0  0
  8 17  1  0  0  0
  8  9  1  0  0  0
  9 10  1  0  0  0
  9 30  1  0  0  0
  9 31  1  0  0  0
 10 11  1  0  0  0
 10 32  1  0  0  0
 11 12  2  0  0  0
 11 16  1  0  0  0
 12 13  1  0  0  0
 12 33  1  0  0  0
 13 14  2  0  0  0
 13 22  1  0  0  0
 14 15  1  0  0  0
 14 34  1  0  0  0
 15 16  2  0  0  0
 15 35  1  0  0  0
 16 36  1  0  0  0
 17 18  2  0  0  0
 17 19  1  0  0  0
 19 20  1  0  0  0
 19 21  1  0  0  0
 20 37  1  0  0  0
 20 38  1  0  0  0
 20 39  1  0  0  0
 21 40  1  0  0  0
 21 41  1  0  0  0
 21 42  1  0  0  0
 22 43  1  0  0  0
 23 24  1  0  0  0
 24 44  1  0  0  0
 24 45  1  0  0  0
 24 46  1  0  0  0
M  END
> <s_m_entry_id>
354

> <s_m_entry_name>
dock_pv.353

> <s_m_Source_Path>
/home/csk/Desktop/cluster/DUD-E-result/kif11

> <s_m_Source_File>
dock_pv.maegz

> <i_m_Source_File_Index>
353

> <chembl_id>
CHEMBL205441

> <chembl_pref_name>
None

> <i_lp_mmshare_version>
53161

> <i_f3d_flags>
0

> <r_lp_tautomer_probability>
0.999999999997365

> <s_lp_Force_Field>
OPLS_2005

> <r_lp_Energy>
49.996834

> <b_lp_Chiralities_Consistent>
1

> <s_lp_Variant>
CHEMBL4581_lig79-1

> <s_i_glide_gridfile>
glide-grid_3cjo

> <i_i_glide_lignum>
123

> <i_i_glide_rotatable_bonds>
5

> <r_i_docking_score>
-7.54190944490244

> <r_i_glide_ligand_efficiency>
-0.314246226870935

> <r_i_glide_ligand_efficiency_sa>
-0.90644297039042

> <r_i_glide_ligand_efficiency_ln>
-1.80512500583899

> <r_i_glide_gscore>
-7.54190944490244

> <r_i_glide_lipo>
-4.29935885229485

> <r_i_glide_hbond>
0

> <r_i_glide_metal>
0

> <r_i_glide_rewards>
-1.45662920184366

> <r_i_glide_evdw>
-38.3962059020996

> <r_i_glide_ecoul>
-1.45467138290405

> <r_i_glide_erotb>
0.352089611776647

> <r_i_glide_esite>
0

> <r_i_glide_emodel>
-56.0224339049126

> <r_i_glide_energy>
-39.8508772850037

> <r_i_glide_einternal>
3.36579537391663

> <i_i_glide_confnum>
16

> <i_i_glide_posenum>
339

> <r_i_glide_eff_state_penalty>
0

> <s_user_duplicate_titles>
CHEMBL4581_lig79,345127

> <s_m_subgroup_title>
dock_pv

> <s_m_subgroupid>
dock_pv

> <b_m_subgroup_collapsed>
1

$$$$
CHEMBL4581_lig770
                    3D
 Schrodinger Suite 2021-1.
 41 44  0  0  1  0            999 V2000
   17.2115   15.7104  108.9829 C   0  0  1  0  0  0
   16.9865   16.9682  109.8822 C   0  0  0  0  0  0
   15.7129   16.8543  110.7265 C   0  0  0  0  0  0
   14.5849   16.7324  109.8639 O   0  0  0  0  0  0
   18.1214   16.3008  107.5553 S   0  0  0  0  0  0
   19.4835   15.2034  107.9456 C   0  0  0  0  0  0
   19.3309   14.4960  108.9929 N   0  0  0  0  0  0
   18.1339   14.7223  109.5763 N   0  0  0  0  0  0
   20.6533   15.1911  107.0435 C   0  0  0  0  0  0
   20.9171   16.3038  106.2245 C   0  0  0  0  0  0
   21.9813   16.2989  105.3307 C   0  0  0  0  0  0
   22.7921   15.1745  105.2220 C   0  0  0  0  0  0
   22.5601   14.0735  106.0387 C   0  0  0  0  0  0
   21.5182   14.0823  106.9591 C   0  0  0  0  0  0
   17.8438   14.0817  110.7326 C   0  0  0  0  0  0
   18.2318   14.5051  111.8273 O   0  0  0  0  0  0
   16.9313   12.8377  110.6285 C   0  0  0  0  0  0
   21.4484   13.0416  107.8192 F   0  0  0  0  0  0
   22.2129   17.3812  104.5585 F   0  0  0  0  0  0
   15.8622   15.1303  108.5110 C   0  0  0  0  0  0
   14.6477   15.6711  108.9823 C   0  0  0  0  0  0
   13.4168   15.1691  108.5589 C   0  0  0  0  0  0
   13.3708   14.0984  107.6699 C   0  0  0  0  0  0
   14.5564   13.5386  107.2020 C   0  0  0  0  0  0
   15.7839   14.0470  107.6216 C   0  0  0  0  0  0
   17.1180   11.9634  111.7629 N   0  0  0  0  0  0
   16.8713   17.8726  109.2796 H   0  0  0  0  0  0
   17.8533   17.1544  110.5181 H   0  0  0  0  0  0
   15.5863   17.7253  111.3719 H   0  0  0  0  0  0
   15.7800   15.9712  111.3589 H   0  0  0  0  0  0
   20.3103   17.1961  106.2658 H   0  0  0  0  0  0
   23.5994   15.1604  104.5071 H   0  0  0  0  0  0
   23.1797   13.1973  105.9666 H   0  0  0  0  0  0
   15.8927   13.1674  110.5891 H   0  0  0  0  0  0
   17.1355   12.2875  109.7077 H   0  0  0  0  0  0
   12.4995   15.6080  108.9237 H   0  0  0  0  0  0
   12.4193   13.7027  107.3446 H   0  0  0  0  0  0
   14.5292   12.7004  106.5190 H   0  0  0  0  0  0
   16.6907   13.5932  107.2456 H   0  0  0  0  0  0
   17.0977   12.4930  112.6243 H   0  0  0  0  0  0
   16.3535   11.2999  111.8265 H   0  0  0  0  0  0
  1  2  1  0  0  0
  1 20  1  0  0  0
  1  8  1  0  0  0
  1  5  1  0  0  0
  2  3  1  0  0  0
  2 27  1  0  0  0
  2 28  1  0  0  0
  3  4  1  0  0  0
  3 29  1  0  0  0
  3 30  1  0  0  0
  4 21  1  0  0  0
  5  6  1  0  0  0
  6  7  2  0  0  0
  6  9  1  0  0  0
  7  8  1  0  0  0
  8 15  1  0  0  0
  9 10  2  0  0  0
  9 14  1  0  0  0
 10 11  1  0  0  0
 10 31  1  0  0  0
 11 12  2  0  0  0
 11 19  1  0  0  0
 12 13  1  0  0  0
 12 32  1  0  0  0
 13 14  2  0  0  0
 13 33  1  0  0  0
 14 18  1  0  0  0
 15 16  2  0  0  0
 15 17  1  0  0  0
 17 26  1  0  0  0
 17 34  1  0  0  0
 17 35  1  0  0  0
 20 21  2  0  0  0
 20 25  1  0  0  0
 21 22  1  0  0  0
 22 23  2  0  0  0
 22 36  1  0  0  0
 23 24  1  0  0  0
 23 37  1  0  0  0
 24 25  2  0  0  0
 24 38  1  0  0  0
 25 39  1  0  0  0
 26 40  1  0  0  0
 26 41  1  0  0  0
M  END
> <s_m_entry_id>
355

> <s_m_entry_name>
dock_pv.354

> <s_m_Source_Path>
/home/csk/Desktop/cluster/DUD-E-result/kif11

> <s_m_Source_File>
dock_pv.maegz

> <i_m_Source_File_Index>
354

> <chembl_id>
CHEMBL3402348

> <chembl_pref_name>
None

> <i_lp_mmshare_version>
53161

> <i_f3d_flags>
0

> <r_lp_tautomer_probability>
1

> <s_lp_Force_Field>
OPLS_2005

> <r_lp_Energy>
23.312535

> <b_lp_Chiralities_Consistent>
1

> <s_lp_Variant>
CHEMBL4581_lig770-2

> <s_i_glide_gridfile>
glide-grid_3cjo

> <i_i_glide_lignum>
1146

> <i_i_glide_rotatable_bonds>
3

> <r_i_docking_score>
-7.53909679186785

> <r_i_glide_ligand_efficiency>
-0.289965261225686

> <r_i_glide_ligand_efficiency_sa>
-0.859020945422888

> <r_i_glide_ligand_efficiency_ln>
-1.77053214377588

> <r_i_glide_gscore>
-7.53909679186785

> <r_i_glide_lipo>
-2.70458562593852

> <r_i_glide_hbond>
-0.280628133768644

> <r_i_glide_metal>
0

> <r_i_glide_rewards>
-2.46591494330243

> <r_i_glide_evdw>
-38.343677520752

> <r_i_glide_ecoul>
-2.96904158592224

> <r_i_glide_erotb>
0.274572025067677

> <r_i_glide_esite>
0

> <r_i_glide_emodel>
-54.2523742194966

> <r_i_glide_energy>
-41.3127191066742

> <r_i_glide_einternal>
11.1541042327881

> <i_i_glide_confnum>
5

> <i_i_glide_posenum>
234

> <r_i_glide_eff_state_penalty>
0

> <s_user_duplicate_titles>
CHEMBL4581_lig770

> <s_m_subgroup_title>
dock_pv

> <s_m_subgroupid>
dock_pv

> <b_m_subgroup_collapsed>
1

$$$$
CHEMBL4581_lig46
                    3D
 Schrodinger Suite 2021-1.
 45 48  0  0  1  0            999 V2000
   18.2085   12.8981  113.9249 C   0  0  0  0  0  0
   17.2814   12.4197  113.0058 C   0  0  0  0  0  0
   17.2983   12.8829  111.6856 C   0  0  0  0  0  0
   18.1981   13.8821  111.2764 C   0  0  0  0  0  0
   19.0861   14.3904  112.2411 C   0  0  0  0  0  0
   19.1170   13.8755  113.5305 C   0  0  0  0  0  0
   18.1859   14.3710  109.8686 C   0  0  0  0  0  0
   17.5793   13.6033  108.7116 C   0  0  0  0  0  0
   17.6676   14.5233  107.5795 N   0  0  0  0  0  0
   18.5861   15.6126  107.9028 C   0  0  1  0  0  0
   18.7151   15.5244  109.4114 C   0  0  0  0  0  0
   19.9216   15.5033  107.1529 C   0  0  0  0  0  0
   20.7180   14.3619  107.2913 C   0  0  0  0  0  0
   21.8946   14.2272  106.5587 C   0  0  0  0  0  0
   22.2981   15.2573  105.7124 C   0  0  0  0  0  0
   21.5237   16.4076  105.5796 C   0  0  0  0  0  0
   20.3304   16.5235  106.2890 C   0  0  0  0  0  0
   16.9885   14.4451  106.4060 C   0  0  0  0  0  0
   17.1069   15.3204  105.5408 O   0  0  0  0  0  0
   19.9180   15.4158  111.9701 F   0  0  0  0  0  0
   16.3214   11.5619  113.4145 F   0  0  0  0  0  0
   16.0801   13.2189  106.1266 C   0  0  2  0  0  0
   15.5135   13.1653  104.6804 C   0  0  0  0  0  0
   15.0409   13.1621  107.0974 O   0  0  0  0  0  0
   14.1773   12.5254  104.3645 C   0  0  0  0  0  0
   14.3381   14.0328  104.2843 C   0  0  0  0  0  0
   18.1990   12.5420  114.9496 H   0  0  0  0  0  0
   16.5699   12.4782  110.9987 H   0  0  0  0  0  0
   19.8298   14.2771  114.2324 H   0  0  0  0  0  0
   16.5452   13.3404  108.9273 H   0  0  0  0  0  0
   18.1134   12.6730  108.5103 H   0  0  0  0  0  0
   18.1181   16.5611  107.6313 H   0  0  0  0  0  0
   19.2024   16.3038  109.9746 H   0  0  0  0  0  0
   20.4109   13.5641  107.9525 H   0  0  0  0  0  0
   22.4960   13.3346  106.6502 H   0  0  0  0  0  0
   23.2122   15.1577  105.1455 H   0  0  0  0  0  0
   21.8370   17.1986  104.9135 H   0  0  0  0  0  0
   19.7267   17.4105  106.1616 H   0  0  0  0  0  0
   16.7013   12.3325  106.2641 H   0  0  0  0  0  0
   16.3132   13.0569  103.9445 H   0  0  0  0  0  0
   14.9222   12.2304  107.3281 H   0  0  0  0  0  0
   13.5874   12.0915  105.1725 H   0  0  0  0  0  0
   14.0849   11.9525  103.4421 H   0  0  0  0  0  0
   14.3630   14.5201  103.3097 H   0  0  0  0  0  0
   13.8847   14.6673  105.0489 H   0  0  0  0  0  0
  1  6  1  0  0  0
  1  2  2  0  0  0
  1 27  1  0  0  0
  2 21  1  0  0  0
  2  3  1  0  0  0
  3  4  2  0  0  0
  3 28  1  0  0  0
  4  7  1  0  0  0
  4  5  1  0  0  0
  5  6  2  0  0  0
  5 20  1  0  0  0
  6 29  1  0  0  0
  7  8  1  0  0  0
  7 11  2  0  0  0
  8  9  1  0  0  0
  8 30  1  0  0  0
  8 31  1  0  0  0
  9 10  1  0  0  0
  9 18  1  0  0  0
 10 11  1  0  0  0
 10 12  1  0  0  0
 10 32  1  0  0  0
 11 33  1  0  0  0
 12 13  2  0  0  0
 12 17  1  0  0  0
 13 14  1  0  0  0
 13 34  1  0  0  0
 14 15  2  0  0  0
 14 35  1  0  0  0
 15 16  1  0  0  0
 15 36  1  0  0  0
 16 17  2  0  0  0
 16 37  1  0  0  0
 17 38  1  0  0  0
 18 19  2  0  0  0
 18 22  1  0  0  0
 22 23  1  0  0  0
 22 24  1  0  0  0
 22 39  1  0  0  0
 23 25  1  0  0  0
 23 26  1  0  0  0
 23 40  1  0  0  0
 24 41  1  0  0  0
 25 26  1  0  0  0
 25 42  1  0  0  0
 25 43  1  0  0  0
 26 44  1  0  0  0
 26 45  1  0  0  0
M  END
> <s_m_entry_id>
356

> <s_m_entry_name>
dock_pv.355

> <s_m_Source_Path>
/home/csk/Desktop/cluster/DUD-E-result/kif11

> <s_m_Source_File>
dock_pv.maegz

> <i_m_Source_File_Index>
355

> <chembl_id>
CHEMBL382165

> <chembl_pref_name>
None

> <i_lp_mmshare_version>
53161

> <i_f3d_flags>
0

> <r_lp_tautomer_probability>
1

> <s_lp_Force_Field>
OPLS_2005

> <r_lp_Energy>
38.074474

> <b_lp_Chiralities_Consistent>
1

> <s_lp_Variant>
CHEMBL4581_lig46-1

> <s_i_glide_gridfile>
glide-grid_3cjo

> <i_i_glide_lignum>
72

> <i_i_glide_rotatable_bonds>
6

> <r_i_docking_score>
-7.53762601044706

> <r_i_glide_ligand_efficiency>
-0.289908692709502

> <r_i_glide_ligand_efficiency_sa>
-0.858853361416279

> <r_i_glide_ligand_efficiency_ln>
-1.77018673558524

> <r_i_glide_gscore>
-7.53762601044706

> <r_i_glide_lipo>
-4.26579468061593

> <r_i_glide_hbond>
0

> <r_i_glide_metal>
0

> <r_i_glide_rewards>
-1.40924692502339

> <r_i_glide_evdw>
-39.8274879455566

> <r_i_glide_ecoul>
-3.97623229026794

> <r_i_glide_erotb>
0.756961508156732

> <r_i_glide_esite>
-0.031736672146446

> <r_i_glide_emodel>
-58.8903442457102

> <r_i_glide_energy>
-43.8037202358246

> <r_i_glide_einternal>
7.29538679122925

> <i_i_glide_confnum>
29

> <i_i_glide_posenum>
288

> <r_i_glide_eff_state_penalty>
0

> <s_user_duplicate_titles>
CHEMBL4581_lig46,343505

> <s_m_subgroup_title>
dock_pv

> <s_m_subgroupid>
dock_pv

> <b_m_subgroup_collapsed>
1

$$$$
CHEMBL4581_lig586
                    3D
 Schrodinger Suite 2021-1.
 47 49  0  0  1  0            999 V2000
   17.5868   15.6675  109.5490 C   0  0  0  0  0  0
   18.3320   14.4771  108.8723 C   0  0  2  0  0  0
   19.3037   15.0032  107.7705 C   0  0  0  0  0  0
   19.0087   16.1790  107.0633 C   0  0  0  0  0  0
   19.9169   16.7159  106.1574 C   0  0  0  0  0  0
   21.1297   16.0803  105.9455 C   0  0  0  0  0  0
   21.4131   14.8703  106.5589 C   0  0  0  0  0  0
   20.5121   14.3493  107.4772 C   0  0  0  0  0  0
   17.1850   13.2423  108.1153 S   0  0  0  0  0  0
   16.8021   13.8572  106.4511 C   0  0  0  0  0  0
   15.8807   12.9233  105.6550 C   0  0  0  0  0  0
   19.1561   13.6955  109.9511 C   0  0  0  0  0  0
   18.5133   13.3617  111.2941 C   0  0  0  0  0  0
   19.0413   13.9617  112.4367 C   0  0  0  0  0  0
   18.6319   13.5383  113.6903 C   0  0  0  0  0  0
   17.6490   12.5610  113.8114 C   0  0  0  0  0  0
   17.1042   11.9627  112.6774 C   0  0  0  0  0  0
   17.5380   12.3634  111.4146 C   0  0  0  0  0  0
   15.9271   13.2782  104.2491 N   0  0  0  0  0  0
   16.1933   15.8500  109.4820 C   0  0  0  0  0  0
   15.5906   16.9796  110.0385 C   0  0  0  0  0  0
   17.7445   17.7738  110.7726 C   0  0  0  0  0  0
   18.3423   16.6425  110.2224 C   0  0  0  0  0  0
   16.3662   17.9423  110.6811 C   0  0  0  0  0  0
   13.8843   17.1983  109.9113 Cl  0  0  0  0  0  0
   22.3117   16.8290  104.9577 Cl  0  0  0  0  0  0
   18.0832   16.7066  107.2357 H   0  0  0  0  0  0
   19.7040   17.6429  105.6512 H   0  0  0  0  0  0
   22.3490   14.3655  106.3682 H   0  0  0  0  0  0
   20.7870   13.4264  107.9620 H   0  0  0  0  0  0
   16.3635   14.8525  106.5271 H   0  0  0  0  0  0
   17.7470   13.9646  105.9190 H   0  0  0  0  0  0
   16.2143   11.8890  105.7558 H   0  0  0  0  0  0
   14.8571   12.9710  106.0307 H   0  0  0  0  0  0
   19.4964   12.7442  109.5426 H   0  0  0  0  0  0
   20.0819   14.2361  110.1564 H   0  0  0  0  0  0
   19.8184   14.7084  112.3629 H   0  0  0  0  0  0
   19.1172   13.9561  114.5523 H   0  0  0  0  0  0
   17.3235   12.2503  114.7935 H   0  0  0  0  0  0
   16.3200   11.2207  112.7797 H   0  0  0  0  0  0
   17.1340   11.8728  110.5414 H   0  0  0  0  0  0
   15.7018   14.2562  104.1382 H   0  0  0  0  0  0
   16.8941   13.1666  103.9514 H   0  0  0  0  0  0
   15.5556   15.1392  108.9803 H   0  0  0  0  0  0
   18.3483   18.5182  111.2731 H   0  0  0  0  0  0
   19.4130   16.5353  110.3024 H   0  0  0  0  0  0
   15.9025   18.8181  111.1124 H   0  0  0  0  0  0
  1 20  2  0  0  0
  1  2  1  0  0  0
  1 23  1  0  0  0
  2  9  1  0  0  0
  2  3  1  0  0  0
  2 12  1  0  0  0
  3  4  2  0  0  0
  3  8  1  0  0  0
  4  5  1  0  0  0
  4 27  1  0  0  0
  5  6  2  0  0  0
  5 28  1  0  0  0
  6  7  1  0  0  0
  6 26  1  0  0  0
  7  8  2  0  0  0
  7 29  1  0  0  0
  8 30  1  0  0  0
  9 10  1  0  0  0
 10 11  1  0  0  0
 10 31  1  0  0  0
 10 32  1  0  0  0
 11 19  1  0  0  0
 11 33  1  0  0  0
 11 34  1  0  0  0
 12 13  1  0  0  0
 12 35  1  0  0  0
 12 36  1  0  0  0
 13 14  2  0  0  0
 13 18  1  0  0  0
 14 15  1  0  0  0
 14 37  1  0  0  0
 15 16  2  0  0  0
 15 38  1  0  0  0
 16 17  1  0  0  0
 16 39  1  0  0  0
 17 18  2  0  0  0
 17 40  1  0  0  0
 18 41  1  0  0  0
 19 42  1  0  0  0
 19 43  1  0  0  0
 20 21  1  0  0  0
 20 44  1  0  0  0
 21 24  2  0  0  0
 21 25  1  0  0  0
 22 24  1  0  0  0
 22 23  2  0  0  0
 22 45  1  0  0  0
 23 46  1  0  0  0
 24 47  1  0  0  0
M  END
> <s_m_entry_id>
357

> <s_m_entry_name>
dock_pv.356

> <s_m_Source_Path>
/home/csk/Desktop/cluster/DUD-E-result/kif11

> <s_m_Source_File>
dock_pv.maegz

> <i_m_Source_File_Index>
356

> <chembl_id>
CHEMBL2043416

> <chembl_pref_name>
None

> <i_lp_mmshare_version>
53161

> <i_f3d_flags>
0

> <r_lp_tautomer_probability>
1

> <s_lp_Force_Field>
OPLS_2005

> <r_lp_Energy>
22.022577

> <b_lp_Chiralities_Consistent>
1

> <s_lp_Variant>
CHEMBL4581_lig586-2

> <s_i_glide_gridfile>
glide-grid_3cjo

> <i_i_glide_lignum>
900

> <i_i_glide_rotatable_bonds>
7

> <r_i_docking_score>
-7.53721097302133

> <r_i_glide_ligand_efficiency>
-0.28989272973159

> <r_i_glide_ligand_efficiency_sa>
-0.858806071157024

> <r_i_glide_ligand_efficiency_ln>
-1.77008926540766

> <r_i_glide_gscore>
-7.53721097302133

> <r_i_glide_lipo>
-5.00784984851213

> <r_i_glide_hbond>
-0.113210974679235

> <r_i_glide_metal>
0

> <r_i_glide_rewards>
-0.757255939393939

> <r_i_glide_evdw>
-41.3334922790527

> <r_i_glide_ecoul>
-2.12940001487732

> <r_i_glide_erotb>
0.727190405748205

> <r_i_glide_esite>
0

> <r_i_glide_emodel>
-58.5096859540156

> <r_i_glide_energy>
-43.4628922939301

> <r_i_glide_einternal>
5.44954586029053

> <i_i_glide_confnum>
29

> <i_i_glide_posenum>
210

> <r_i_glide_eff_state_penalty>
0

> <s_user_duplicate_titles>
CHEMBL4581_lig586

> <s_m_subgroup_title>
dock_pv

> <s_m_subgroupid>
dock_pv

> <b_m_subgroup_collapsed>
1

$$$$
CHEMBL4581_lig1
                    3D
 Schrodinger Suite 2021-1.
 51 53  0  0  1  0            999 V2000
   17.3159   16.0426  108.8601 C   0  0  0  0  0  0
   17.9959   14.6508  108.7261 C   0  0  0  0  0  0
   19.4015   14.6726  108.0545 C   0  0  0  0  0  0
   18.0302   14.0833  110.1757 C   0  0  0  0  0  0
   15.9498   16.2481  108.5939 C   0  0  0  0  0  0
   15.3657   17.4954  108.7967 C   0  0  0  0  0  0
   16.1305   18.5465  109.2957 C   0  0  0  0  0  0
   17.4814   18.3620  109.5746 C   0  0  0  0  0  0
   18.0700   17.1274  109.3357 C   0  0  0  0  0  0
   17.0810   13.1568  110.6315 C   0  0  0  0  0  0
   17.1200   12.6775  111.9304 C   0  0  0  0  0  0
   18.0982   13.1346  112.8225 C   0  0  0  0  0  0
   19.0583   14.0359  112.3783 C   0  0  0  0  0  0
   19.0229   14.5113  111.0724 C   0  0  0  0  0  0
   19.7067   15.6039  107.0496 C   0  0  0  0  0  0
   20.8706   15.4802  106.2976 C   0  0  0  0  0  0
   21.7513   14.4330  106.5590 C   0  0  0  0  0  0
   21.5181   13.5620  107.6189 C   0  0  0  0  0  0
   20.3603   13.6975  108.3775 C   0  0  0  0  0  0
   17.0318   13.4986  107.6311 S   0  0  0  0  0  0
   16.9226   14.2585  105.9789 C   0  0  0  0  0  0
   16.1005   13.3737  105.0147 C   0  0  2  0  0  0
   16.3180   13.7694  103.6097 N   0  0  0  0  0  0
   14.5823   13.3799  105.3209 C   0  0  0  0  0  0
   14.2271   12.3621  106.1601 O   0  0  0  0  0  0
   13.8016   14.2127  104.8578 O   0  0  0  0  0  0
   18.1740   12.7402  114.1374 O   0  0  0  0  0  0
   16.9651   12.3527  114.7730 C   0  0  0  0  0  0
   15.3148   15.4470  108.2464 H   0  0  0  0  0  0
   14.3159   17.6427  108.5891 H   0  0  0  0  0  0
   15.6714   19.5076  109.4779 H   0  0  0  0  0  0
   18.0736   19.1619  109.9877 H   0  0  0  0  0  0
   19.1179   17.0086  109.5625 H   0  0  0  0  0  0
   16.2827   12.7912  110.0058 H   0  0  0  0  0  0
   16.3676   11.9615  112.2173 H   0  0  0  0  0  0
   19.8241   14.3829  113.0559 H   0  0  0  0  0  0
   19.7749   15.2200  110.7603 H   0  0  0  0  0  0
   19.0029   16.3804  106.7889 H   0  0  0  0  0  0
   21.0707   16.1715  105.4916 H   0  0  0  0  0  0
   22.6370   14.3136  105.9527 H   0  0  0  0  0  0
   22.2175   12.7660  107.8292 H   0  0  0  0  0  0
   20.1658   12.9623  109.1466 H   0  0  0  0  0  0
   16.5084   15.2648  106.0442 H   0  0  0  0  0  0
   17.9317   14.3628  105.5866 H   0  0  0  0  0  0
   16.4498   12.3445  105.1209 H   0  0  0  0  0  0
   17.2971   13.5625  103.4184 H   0  0  0  0  0  0
   15.7745   13.1868  102.9903 H   0  0  0  0  0  0
   14.9524   11.8140  106.4831 H   0  0  0  0  0  0
   17.1745   11.9624  115.7590 H   0  0  0  0  0  0
   16.3180   13.2108  114.9026 H   0  0  0  0  0  0
   16.4215   11.5625  114.2562 H   0  0  0  0  0  0
  1  9  1  0  0  0
  1  5  2  0  0  0
  1  2  1  0  0  0
  2  4  1  0  0  0
  2 20  1  0  0  0
  2  3  1  0  0  0
  3 15  2  0  0  0
  3 19  1  0  0  0
  4 14  1  0  0  0
  4 10  2  0  0  0
  5  6  1  0  0  0
  5 29  1  0  0  0
  6  7  2  0  0  0
  6 30  1  0  0  0
  7  8  1  0  0  0
  7 31  1  0  0  0
  8  9  2  0  0  0
  8 32  1  0  0  0
  9 33  1  0  0  0
 10 11  1  0  0  0
 10 34  1  0  0  0
 11 12  2  0  0  0
 11 35  1  0  0  0
 12 13  1  0  0  0
 12 27  1  0  0  0
 13 14  2  0  0  0
 13 36  1  0  0  0
 14 37  1  0  0  0
 15 16  1  0  0  0
 15 38  1  0  0  0
 16 17  2  0  0  0
 16 39  1  0  0  0
 17 18  1  0  0  0
 17 40  1  0  0  0
 18 19  2  0  0  0
 18 41  1  0  0  0
 19 42  1  0  0  0
 20 21  1  0  0  0
 21 22  1  0  0  0
 21 43  1  0  0  0
 21 44  1  0  0  0
 22 23  1  0  0  0
 22 24  1  0  0  0
 22 45  1  0  0  0
 23 46  1  0  0  0
 23 47  1  0  0  0
 24 25  1  0  0  0
 24 26  2  0  0  0
 25 48  1  0  0  0
 27 28  1  0  0  0
 28 49  1  0  0  0
 28 50  1  0  0  0
 28 51  1  0  0  0
M  END
> <s_m_entry_id>
358

> <s_m_entry_name>
dock_pv.357

> <s_m_Source_Path>
/home/csk/Desktop/cluster/DUD-E-result/kif11

> <s_m_Source_File>
dock_pv.maegz

> <i_m_Source_File_Index>
357

> <chembl_id>
CHEMBL392369

> <chembl_pref_name>
None

> <i_lp_mmshare_version>
53161

> <i_f3d_flags>
0

> <r_lp_tautomer_probability>
1

> <s_lp_Force_Field>
OPLS_2005

> <r_lp_Energy>
30.060759

> <b_lp_Chiralities_Consistent>
1

> <s_lp_Variant>
CHEMBL4581_lig1-1

> <s_i_glide_gridfile>
glide-grid_3cjo

> <i_i_glide_lignum>
1

> <i_i_glide_rotatable_bonds>
9

> <r_i_docking_score>
-7.52971665572313

> <r_i_glide_ligand_efficiency>
-0.268918451990112

> <r_i_glide_ligand_efficiency_sa>
-0.816594804740028

> <r_i_glide_ligand_efficiency_ln>
-1.73807968622853

> <r_i_glide_gscore>
-7.52971665572313

> <r_i_glide_lipo>
-4.51079650830592

> <r_i_glide_hbond>
-0.142754015331361

> <r_i_glide_metal>
0

> <r_i_glide_rewards>
-0.68380873009684

> <r_i_glide_evdw>
-40.8323516845703

> <r_i_glide_ecoul>
-6.89257860183716

> <r_i_glide_erotb>
0.883146972515077

> <r_i_glide_esite>
0

> <r_i_glide_emodel>
-63.875722158211

> <r_i_glide_energy>
-47.7249302864075

> <r_i_glide_einternal>
10.3087377548218

> <i_i_glide_confnum>
83

> <i_i_glide_posenum>
277

> <r_i_glide_eff_state_penalty>
0

> <s_user_duplicate_titles>
CHEMBL4581_lig1,397755

> <s_m_subgroup_title>
dock_pv

> <s_m_subgroupid>
dock_pv

> <b_m_subgroup_collapsed>
1

$$$$
CHEMBL4581_lig310
                    3D
 Schrodinger Suite 2021-1.
 46 49  0  0  1  0            999 V2000
   19.5729   16.3620  107.2363 N   0  0  0  0  0  0
   20.3272   14.4143  108.0372 C   0  0  0  0  0  0
   19.3896   15.4173  108.2070 C   0  0  0  0  0  0
   18.4227   15.5371  109.3857 C   0  0  2  0  0  0
   18.6733   14.4008  110.3111 N   0  0  0  0  0  0
   19.0598   13.1212  109.7055 C   0  0  0  0  0  0
   20.4328   13.2786  109.0239 C   0  0  0  0  0  0
   20.6469   16.0243  106.4448 C   0  0  0  0  0  0
   21.1053   14.7477  106.8854 C   0  0  0  0  0  0
   22.1614   14.1267  106.1998 C   0  0  0  0  0  0
   22.7369   14.7839  105.1183 C   0  0  0  0  0  0
   22.3152   16.0639  104.7640 C   0  0  0  0  0  0
   21.2611   16.7135  105.4014 C   0  0  0  0  0  0
   16.9489   15.6155  108.9874 C   0  0  0  0  0  0
   16.1283   16.6138  109.5253 C   0  0  0  0  0  0
   14.7713   16.6168  109.1972 C   0  0  0  0  0  0
   14.2060   15.6839  108.3888 N   0  0  0  0  0  0
   15.0097   14.7235  107.8706 C   0  0  0  0  0  0
   16.3796   14.6673  108.1251 C   0  0  0  0  0  0
   18.6963   14.5688  111.6580 C   0  0  0  0  0  0
   18.7180   15.6836  112.1590 O   0  0  0  0  0  0
   18.5394   13.3695  112.6178 C   0  0  0  0  0  0
   17.3210   12.4671  112.3021 C   0  0  0  0  0  0
   16.7180   11.9620  113.5198 N   0  0  0  0  0  0
   23.9180   13.9620  104.1590 Cl  0  0  0  0  0  0
   14.4114   13.7551  107.0736 N   0  0  0  0  0  0
   19.0422   17.2213  107.2109 H   0  0  0  0  0  0
   18.6293   16.4654  109.9216 H   0  0  0  0  0  0
   18.3029   12.7980  108.9917 H   0  0  0  0  0  0
   19.0903   12.3620  110.4540 H   0  0  0  0  0  0
   21.2104   13.4749  109.7590 H   0  0  0  0  0  0
   20.7180   12.3491  108.5433 H   0  0  0  0  0  0
   22.5014   13.1424  106.4838 H   0  0  0  0  0  0
   22.7180   16.5424  103.8945 H   0  0  0  0  0  0
   20.9154   17.6825  105.0737 H   0  0  0  0  0  0
   16.5269   17.3607  110.1973 H   0  0  0  0  0  0
   14.1090   17.3711  109.5973 H   0  0  0  0  0  0
   16.9809   13.8855  107.6864 H   0  0  0  0  0  0
   18.4433   13.7822  113.6245 H   0  0  0  0  0  0
   19.4609   12.7934  112.6501 H   0  0  0  0  0  0
   17.6104   11.6126  111.6894 H   0  0  0  0  0  0
   16.5632   13.0079  111.7335 H   0  0  0  0  0  0
   16.3971   12.7221  114.1028 H   0  0  0  0  0  0
   15.8945   11.4146  113.2828 H   0  0  0  0  0  0
   14.9540   12.9643  106.7554 H   0  0  0  0  0  0
   13.4137   13.7990  106.9322 H   0  0  0  0  0  0
  1  8  1  0  0  0
  1  3  1  0  0  0
  1 27  1  0  0  0
  2  7  1  0  0  0
  2  9  1  0  0  0
  2  3  2  0  0  0
  3  4  1  0  0  0
  4  5  1  0  0  0
  4 14  1  0  0  0
  4 28  1  0  0  0
  5  6  1  0  0  0
  5 20  1  0  0  0
  6  7  1  0  0  0
  6 29  1  0  0  0
  6 30  1  0  0  0
  7 31  1  0  0  0
  7 32  1  0  0  0
  8 13  1  0  0  0
  8  9  2  0  0  0
  9 10  1  0  0  0
 10 11  2  0  0  0
 10 33  1  0  0  0
 11 25  1  0  0  0
 11 12  1  0  0  0
 12 13  2  0  0  0
 12 34  1  0  0  0
 13 35  1  0  0  0
 14 15  2  0  0  0
 14 19  1  0  0  0
 15 16  1  0  0  0
 15 36  1  0  0  0
 16 17  2  0  0  0
 16 37  1  0  0  0
 17 18  1  0  0  0
 18 19  2  0  0  0
 18 26  1  0  0  0
 19 38  1  0  0  0
 20 21  2  0  0  0
 20 22  1  0  0  0
 22 23  1  0  0  0
 22 39  1  0  0  0
 22 40  1  0  0  0
 23 24  1  0  0  0
 23 41  1  0  0  0
 23 42  1  0  0  0
 24 43  1  0  0  0
 24 44  1  0  0  0
 26 45  1  0  0  0
 26 46  1  0  0  0
M  END
> <s_m_entry_id>
359

> <s_m_entry_name>
dock_pv.358

> <s_m_Source_Path>
/home/csk/Desktop/cluster/DUD-E-result/kif11

> <s_m_Source_File>
dock_pv.maegz

> <i_m_Source_File_Index>
358

> <chembl_id>
CHEMBL592277

> <chembl_pref_name>
None

> <i_lp_mmshare_version>
53161

> <i_f3d_flags>
0

> <r_lp_tautomer_probability>
0.999999772200052

> <s_lp_Force_Field>
OPLS_2005

> <r_lp_Energy>
22.420291

> <b_lp_Chiralities_Consistent>
1

> <s_lp_Variant>
CHEMBL4581_lig310-1

> <s_i_glide_gridfile>
glide-grid_3cjo

> <i_i_glide_lignum>
458

> <i_i_glide_rotatable_bonds>
4

> <r_i_docking_score>
-7.52394847134862

> <r_i_glide_ligand_efficiency>
-0.289382633513409

> <r_i_glide_ligand_efficiency_sa>
-0.857294913117794

> <r_i_glide_ligand_efficiency_ln>
-1.76697461040764

> <r_i_glide_gscore>
-7.52394847134862

> <r_i_glide_lipo>
-3.93799919522535

> <r_i_glide_hbond>
-0.284167977742147

> <r_i_glide_metal>
0

> <r_i_glide_rewards>
-1.53249080832821

> <r_i_glide_evdw>
-28.3678455352783

> <r_i_glide_ecoul>
-5.11225652694702

> <r_i_glide_erotb>
0.422967805097071

> <r_i_glide_esite>
-0.00702753934401266

> <r_i_glide_emodel>
-45.0262752853351

> <r_i_glide_energy>
-33.4801020622253

> <r_i_glide_einternal>
8.22164535522461

> <i_i_glide_confnum>
1

> <i_i_glide_posenum>
336

> <r_i_glide_eff_state_penalty>
0

> <s_user_duplicate_titles>
CHEMBL4581_lig310

> <s_m_subgroup_title>
dock_pv

> <s_m_subgroupid>
dock_pv

> <b_m_subgroup_collapsed>
1

$$$$
CHEMBL4581_lig888
                    3D
 Schrodinger Suite 2021-1.
 51 53  0  0  1  0            999 V2000
   17.7939   15.1783  109.2281 C   0  0  1  0  0  0
   19.0746   15.0873  108.3316 C   0  0  0  0  0  0
   16.5100   14.8136  108.4133 C   0  0  0  0  0  0
   19.2692   15.9855  107.2668 C   0  0  0  0  0  0
   20.3652   15.9014  106.4029 C   0  0  0  0  0  0
   21.2687   14.8487  106.5598 C   0  0  0  0  0  0
   21.1180   13.9618  107.6241 C   0  0  0  0  0  0
   20.0444   14.0845  108.5078 C   0  0  0  0  0  0
   16.5729   14.1865  107.1538 C   0  0  0  0  0  0
   15.4144   13.8205  106.4701 C   0  0  0  0  0  0
   14.1642   14.0723  107.0283 C   0  0  0  0  0  0
   14.0749   14.6893  108.2727 C   0  0  0  0  0  0
   15.2343   15.0557  108.9555 C   0  0  0  0  0  0
   17.9052   14.2600  110.4942 C   0  0  0  0  0  0
   17.1173   13.1033  110.6509 C   0  0  0  0  0  0
   17.1569   12.3618  111.8268 C   0  0  0  0  0  0
   17.9909   12.7567  112.8672 C   0  0  0  0  0  0
   18.8089   13.8721  112.7264 C   0  0  0  0  0  0
   18.7764   14.6066  111.5443 C   0  0  0  0  0  0
   17.6360   16.9140  109.8985 S   0  0  0  0  0  0
   16.9486   17.9939  108.5995 C   0  0  0  0  0  0
   15.9821   19.0843  109.0852 C   0  0  0  0  0  0
   14.7870   18.5029  109.6688 N   0  0  0  0  0  0
   12.8476   14.9248  108.8289 O   0  0  0  0  0  0
   20.5237   16.9609  105.3140 C   0  0  0  0  0  0
   21.9126   17.0602  104.6525 C   0  0  0  0  0  0
   18.5505   16.7608  107.0767 H   0  0  0  0  0  0
   22.1107   14.7228  105.8964 H   0  0  0  0  0  0
   21.8319   13.1621  107.7572 H   0  0  0  0  0  0
   19.9555   13.3513  109.2953 H   0  0  0  0  0  0
   17.5178   13.9426  106.6905 H   0  0  0  0  0  0
   15.4900   13.3292  105.5111 H   0  0  0  0  0  0
   13.2727   13.7779  106.4945 H   0  0  0  0  0  0
   15.1383   15.5207  109.9245 H   0  0  0  0  0  0
   16.4534   12.7597  109.8719 H   0  0  0  0  0  0
   16.5289   11.4917  111.9342 H   0  0  0  0  0  0
   18.0139   12.1862  113.7844 H   0  0  0  0  0  0
   19.4673   14.1669  113.5302 H   0  0  0  0  0  0
   19.4183   15.4715  111.4576 H   0  0  0  0  0  0
   17.8018   18.5066  108.1590 H   0  0  0  0  0  0
   16.4840   17.4092  107.8061 H   0  0  0  0  0  0
   16.4720   19.7211  109.8215 H   0  0  0  0  0  0
   15.6934   19.7265  108.2513 H   0  0  0  0  0  0
   15.0516   17.9648  110.4825 H   0  0  0  0  0  0
   14.1756   19.2357  110.0015 H   0  0  0  0  0  0
   12.1280   14.6950  108.2374 H   0  0  0  0  0  0
   19.7594   16.7858  104.5580 H   0  0  0  0  0  0
   20.2985   17.9305  105.7591 H   0  0  0  0  0  0
   21.9235   17.8434  103.8942 H   0  0  0  0  0  0
   22.6844   17.2974  105.3858 H   0  0  0  0  0  0
   22.1962   16.1329  104.1558 H   0  0  0  0  0  0
  1  2  1  0  0  0
  1  3  1  0  0  0
  1 14  1  0  0  0
  1 20  1  0  0  0
  2  4  2  0  0  0
  2  8  1  0  0  0
  3  9  2  0  0  0
  3 13  1  0  0  0
  4  5  1  0  0  0
  4 27  1  0  0  0
  5  6  2  0  0  0
  5 25  1  0  0  0
  6  7  1  0  0  0
  6 28  1  0  0  0
  7  8  2  0  0  0
  7 29  1  0  0  0
  8 30  1  0  0  0
  9 10  1  0  0  0
  9 31  1  0  0  0
 10 11  2  0  0  0
 10 32  1  0  0  0
 11 12  1  0  0  0
 11 33  1  0  0  0
 12 13  2  0  0  0
 12 24  1  0  0  0
 13 34  1  0  0  0
 14 15  2  0  0  0
 14 19  1  0  0  0
 15 16  1  0  0  0
 15 35  1  0  0  0
 16 17  2  0  0  0
 16 36  1  0  0  0
 17 18  1  0  0  0
 17 37  1  0  0  0
 18 19  2  0  0  0
 18 38  1  0  0  0
 19 39  1  0  0  0
 20 21  1  0  0  0
 21 22  1  0  0  0
 21 40  1  0  0  0
 21 41  1  0  0  0
 22 23  1  0  0  0
 22 42  1  0  0  0
 22 43  1  0  0  0
 23 44  1  0  0  0
 23 45  1  0  0  0
 24 46  1  0  0  0
 25 26  1  0  0  0
 25 47  1  0  0  0
 25 48  1  0  0  0
 26 49  1  0  0  0
 26 50  1  0  0  0
 26 51  1  0  0  0
M  END
> <s_m_entry_id>
360

> <s_m_entry_name>
dock_pv.359

> <s_m_Source_Path>
/home/csk/Desktop/cluster/DUD-E-result/kif11

> <s_m_Source_File>
dock_pv.maegz

> <i_m_Source_File_Index>
359

> <chembl_id>
CHEMBL2325421

> <chembl_pref_name>
None

> <i_lp_mmshare_version>
53161

> <i_f3d_flags>
0

> <r_lp_tautomer_probability>
0.999999999997365

> <s_lp_Force_Field>
OPLS_2005

> <r_lp_Energy>
24.15017

> <b_lp_Chiralities_Consistent>
1

> <s_lp_Variant>
CHEMBL4581_lig888-2

> <s_i_glide_gridfile>
glide-grid_3cjo

> <i_i_glide_lignum>
1282

> <i_i_glide_rotatable_bonds>
8

> <r_i_docking_score>
-7.52065018406429

> <r_i_glide_ligand_efficiency>
-0.289255776310165

> <r_i_glide_ligand_efficiency_sa>
-0.856919099152344

> <r_i_glide_ligand_efficiency_ln>
-1.76620001846148

> <r_i_glide_gscore>
-7.52065018406429

> <r_i_glide_lipo>
-4.92198881720469

> <r_i_glide_hbond>
0

> <r_i_glide_metal>
0

> <r_i_glide_rewards>
-1.00637801300883

> <r_i_glide_evdw>
-43.2024955749512

> <r_i_glide_ecoul>
-1.06119024753571

> <r_i_glide_erotb>
0.727019962027144

> <r_i_glide_esite>
0

> <r_i_glide_emodel>
-59.0805954225332

> <r_i_glide_energy>
-44.2636858224869

> <r_i_glide_einternal>
8.9617166519165

> <i_i_glide_confnum>
68

> <i_i_glide_posenum>
155

> <r_i_glide_eff_state_penalty>
0

> <s_user_duplicate_titles>
CHEMBL4581_lig888

> <s_m_subgroup_title>
dock_pv

> <s_m_subgroupid>
dock_pv

> <b_m_subgroup_collapsed>
1

$$$$
CHEMBL4581_lig744
                    3D
 Schrodinger Suite 2021-1.
 37 38  0  0  1  0            999 V2000
   20.7853   15.6041  106.4523 C   0  0  0  0  0  0
   21.6751   16.3729  105.4817 C   0  0  0  0  0  0
   20.9738   14.3967  106.6018 O   0  0  0  0  0  0
   19.8643   16.3537  107.0957 N   0  0  0  0  0  0
   18.4749   14.2863  108.3229 S   0  0  0  0  0  0
   18.9205   15.9915  108.0023 C   0  0  0  0  0  0
   18.3156   16.8813  108.6650 N   0  0  0  0  0  0
   17.4166   16.3433  109.5313 N   0  0  0  0  0  0
   17.2800   14.8566  109.5577 C   0  0  2  0  0  0
   17.7086   14.2286  110.9144 C   0  0  0  0  0  0
   17.1526   13.0170  111.3591 C   0  0  0  0  0  0
   17.5178   12.4778  112.5902 C   0  0  0  0  0  0
   18.4480   13.1322  113.3899 C   0  0  0  0  0  0
   19.0330   14.3159  112.9575 C   0  0  0  0  0  0
   18.6664   14.8586  111.7281 C   0  0  0  0  0  0
   15.8569   14.3998  109.0654 C   0  0  0  0  0  0
   15.3028   15.0941  107.8021 C   0  0  0  0  0  0
   16.6931   17.1667  110.3499 C   0  0  0  0  0  0
   15.8159   16.7615  111.1128 O   0  0  0  0  0  0
   16.9707   18.6758  110.3570 C   0  0  0  0  0  0
   22.2258   17.1527  106.0073 H   0  0  0  0  0  0
   21.0806   16.8357  104.6930 H   0  0  0  0  0  0
   22.3972   15.7016  105.0104 H   0  0  0  0  0  0
   19.9310   17.3518  106.9530 H   0  0  0  0  0  0
   16.4292   12.4767  110.7714 H   0  0  0  0  0  0
   17.0609   11.5619  112.9289 H   0  0  0  0  0  0
   18.7238   12.7129  114.3470 H   0  0  0  0  0  0
   19.7707   14.8109  113.5715 H   0  0  0  0  0  0
   19.1396   15.7766  111.4113 H   0  0  0  0  0  0
   15.8638   13.3282  108.8606 H   0  0  0  0  0  0
   15.1268   14.5355  109.8667 H   0  0  0  0  0  0
   14.3296   14.6828  107.5338 H   0  0  0  0  0  0
   15.1702   16.1652  107.9539 H   0  0  0  0  0  0
   15.9610   14.9557  106.9451 H   0  0  0  0  0  0
   16.6885   19.1205  109.4037 H   0  0  0  0  0  0
   16.3959   19.1620  111.1468 H   0  0  0  0  0  0
   18.0276   18.8710  110.5407 H   0  0  0  0  0  0
  1  2  1  0  0  0
  1  3  2  0  0  0
  1  4  1  0  0  0
  2 21  1  0  0  0
  2 22  1  0  0  0
  2 23  1  0  0  0
  4  6  1  0  0  0
  4 24  1  0  0  0
  5  6  1  0  0  0
  5  9  1  0  0  0
  6  7  2  0  0  0
  7  8  1  0  0  0
  8  9  1  0  0  0
  8 18  1  0  0  0
  9 10  1  0  0  0
  9 16  1  0  0  0
 10 11  1  0  0  0
 10 15  2  0  0  0
 11 12  2  0  0  0
 11 25  1  0  0  0
 12 13  1  0  0  0
 12 26  1  0  0  0
 13 14  2  0  0  0
 13 27  1  0  0  0
 14 15  1  0  0  0
 14 28  1  0  0  0
 15 29  1  0  0  0
 16 17  1  0  0  0
 16 30  1  0  0  0
 16 31  1  0  0  0
 17 32  1  0  0  0
 17 33  1  0  0  0
 17 34  1  0  0  0
 18 19  2  0  0  0
 18 20  1  0  0  0
 20 35  1  0  0  0
 20 36  1  0  0  0
 20 37  1  0  0  0
M  END
> <s_m_entry_id>
361

> <s_m_entry_name>
dock_pv.360

> <s_m_Source_Path>
/home/csk/Desktop/cluster/DUD-E-result/kif11

> <s_m_Source_File>
dock_pv.maegz

> <i_m_Source_File_Index>
360

> <chembl_id>
CHEMBL3735259

> <chembl_pref_name>
None

> <i_lp_mmshare_version>
53161

> <i_f3d_flags>
0

> <r_lp_tautomer_probability>
1

> <s_lp_Force_Field>
OPLS_2005

> <r_lp_Energy>
19.516836

> <b_lp_Chiralities_Consistent>
1

> <s_lp_Variant>
CHEMBL4581_lig744-2

> <s_i_glide_gridfile>
glide-grid_3cjo

> <i_i_glide_lignum>
1095

> <i_i_glide_rotatable_bonds>
5

> <r_i_docking_score>
-7.51941545113763

> <r_i_glide_ligand_efficiency>
-0.375970772556881

> <r_i_glide_ligand_efficiency_sa>
-1.02054168733411

> <r_i_glide_ligand_efficiency_ln>
-1.88186168049981

> <r_i_glide_gscore>
-7.51941545113763

> <r_i_glide_lipo>
-2.64696389834204

> <r_i_glide_hbond>
-0.302544121288442

> <r_i_glide_metal>
0

> <r_i_glide_rewards>
-2.6462716093009

> <r_i_glide_evdw>
-38.4505310058594

> <r_i_glide_ecoul>
-2.87205648422241

> <r_i_glide_erotb>
0.429699200720085

> <r_i_glide_esite>
0

> <r_i_glide_emodel>
-58.3060088063847

> <r_i_glide_energy>
-41.3225874900818

> <r_i_glide_einternal>
4.4293794631958

> <i_i_glide_confnum>
3

> <i_i_glide_posenum>
236

> <r_i_glide_eff_state_penalty>
0

> <s_user_duplicate_titles>
CHEMBL4581_lig744

> <s_m_subgroup_title>
dock_pv

> <s_m_subgroupid>
dock_pv

> <b_m_subgroup_collapsed>
1

$$$$
CHEMBL4581_lig875
                    3D
 Schrodinger Suite 2021-1.
 50 52  0  0  1  0            999 V2000
   17.9418   14.4265  109.5979 C   0  0  0  0  0  0
   18.2391   14.0275  111.0842 C   0  0  0  0  0  0
   17.1713   15.7806  109.7053 C   0  0  0  0  0  0
   19.2494   14.6891  111.8031 C   0  0  0  0  0  0
   19.5177   14.3622  113.1300 C   0  0  0  0  0  0
   18.7821   13.3642  113.7592 C   0  0  0  0  0  0
   17.7824   12.6910  113.0737 C   0  0  0  0  0  0
   17.5156   13.0183  111.7498 C   0  0  0  0  0  0
   15.7698   15.8421  109.6618 C   0  0  0  0  0  0
   15.1028   17.0549  109.8140 C   0  0  0  0  0  0
   15.8256   18.2250  110.0158 C   0  0  0  0  0  0
   17.2146   18.1946  110.0537 C   0  0  0  0  0  0
   17.8788   16.9814  109.8979 C   0  0  0  0  0  0
   19.2452   14.5189  108.7435 C   0  0  0  0  0  0
   19.3330   15.4028  107.6517 C   0  0  0  0  0  0
   20.3923   15.3232  106.7535 C   0  0  0  0  0  0
   21.3870   14.3714  106.9468 C   0  0  0  0  0  0
   21.3646   13.5489  108.0665 C   0  0  0  0  0  0
   20.2942   13.6097  108.9537 C   0  0  0  0  0  0
   17.1160   13.2729  108.8926 C   0  0  0  0  0  0
   16.9369   13.2169  107.3466 C   0  0  0  0  0  0
   15.7165   13.9544  106.7519 C   0  0  2  0  0  0
   14.4297   13.5637  107.3631 N   0  0  0  0  0  0
   15.5943   13.6933  105.2346 C   0  0  0  0  0  0
   15.1590   19.4084  110.1824 O   0  0  0  0  0  0
   15.4267   12.3642  104.9556 O   0  0  0  0  0  0
   15.6330   14.6003  104.4055 O   0  0  0  0  0  0
   19.8488   15.4553  111.3334 H   0  0  0  0  0  0
   20.3043   14.8736  113.6649 H   0  0  0  0  0  0
   18.9927   13.1043  114.7868 H   0  0  0  0  0  0
   17.2106   11.9183  113.5667 H   0  0  0  0  0  0
   16.7218   12.4654  111.2741 H   0  0  0  0  0  0
   15.1659   14.9606  109.5315 H   0  0  0  0  0  0
   14.0239   17.0853  109.7840 H   0  0  0  0  0  0
   17.7824   19.1007  110.2105 H   0  0  0  0  0  0
   18.9571   16.9840  109.9417 H   0  0  0  0  0  0
   18.5384   16.1024  107.4396 H   0  0  0  0  0  0
   20.4249   15.9767  105.8941 H   0  0  0  0  0  0
   22.2000   14.2933  106.2395 H   0  0  0  0  0  0
   22.1518   12.8249  108.2138 H   0  0  0  0  0  0
   20.2540   12.8982  109.7644 H   0  0  0  0  0  0
   17.6618   12.3613  109.1225 H   0  0  0  0  0  0
   16.1457   13.1129  109.3577 H   0  0  0  0  0  0
   17.8385   13.5219  106.8209 H   0  0  0  0  0  0
   16.8657   12.1641  107.0857 H   0  0  0  0  0  0
   15.8727   15.0270  106.8788 H   0  0  0  0  0  0
   13.6377   13.8956  106.8280 H   0  0  0  0  0  0
   14.3402   12.5622  107.4722 H   0  0  0  0  0  0
   15.7397   20.1476  110.3761 H   0  0  0  0  0  0
   15.4572   11.8224  105.7481 H   0  0  0  0  0  0
  1  2  1  0  0  0
  1  3  1  0  0  0
  1 14  1  0  0  0
  1 20  1  0  0  0
  2  4  2  0  0  0
  2  8  1  0  0  0
  3  9  2  0  0  0
  3 13  1  0  0  0
  4  5  1  0  0  0
  4 28  1  0  0  0
  5  6  2  0  0  0
  5 29  1  0  0  0
  6  7  1  0  0  0
  6 30  1  0  0  0
  7  8  2  0  0  0
  7 31  1  0  0  0
  8 32  1  0  0  0
  9 10  1  0  0  0
  9 33  1  0  0  0
 10 11  2  0  0  0
 10 34  1  0  0  0
 11 12  1  0  0  0
 11 25  1  0  0  0
 12 13  2  0  0  0
 12 35  1  0  0  0
 13 36  1  0  0  0
 14 15  2  0  0  0
 14 19  1  0  0  0
 15 16  1  0  0  0
 15 37  1  0  0  0
 16 17  2  0  0  0
 16 38  1  0  0  0
 17 18  1  0  0  0
 17 39  1  0  0  0
 18 19  2  0  0  0
 18 40  1  0  0  0
 19 41  1  0  0  0
 20 21  1  0  0  0
 20 42  1  0  0  0
 20 43  1  0  0  0
 21 22  1  0  0  0
 21 44  1  0  0  0
 21 45  1  0  0  0
 22 23  1  0  0  0
 22 24  1  0  0  0
 22 46  1  0  0  0
 23 47  1  0  0  0
 23 48  1  0  0  0
 24 26  1  0  0  0
 24 27  2  0  0  0
 25 49  1  0  0  0
 26 50  1  0  0  0
M  END
> <s_m_entry_id>
362

> <s_m_entry_name>
dock_pv.361

> <s_m_Source_Path>
/home/csk/Desktop/cluster/DUD-E-result/kif11

> <s_m_Source_File>
dock_pv.maegz

> <i_m_Source_File_Index>
361

> <chembl_id>
CHEMBL2325437

> <chembl_pref_name>
None

> <i_lp_mmshare_version>
53161

> <i_f3d_flags>
0

> <r_lp_tautomer_probability>
0.999999999997365

> <s_lp_Force_Field>
OPLS_2005

> <r_lp_Energy>
31.324947

> <b_lp_Chiralities_Consistent>
1

> <s_lp_Variant>
CHEMBL4581_lig875-1

> <s_i_glide_gridfile>
glide-grid_3cjo

> <i_i_glide_lignum>
1266

> <i_i_glide_rotatable_bonds>
9

> <r_i_docking_score>
-7.51758473876828

> <r_i_glide_ligand_efficiency>
-0.278429064398825

> <r_i_glide_ligand_efficiency_sa>
-0.835287192278819

> <r_i_glide_ligand_efficiency_ln>
-1.74996979011463

> <r_i_glide_gscore>
-7.51758473876828

> <r_i_glide_lipo>
-4.68308064232467

> <r_i_glide_hbond>
0

> <r_i_glide_metal>
0

> <r_i_glide_rewards>
-1.09357315709949

> <r_i_glide_evdw>
-41.5178680419922

> <r_i_glide_ecoul>
-4.54607629776001

> <r_i_glide_erotb>
1.02831540724638

> <r_i_glide_esite>
-0.0114414998268872

> <r_i_glide_emodel>
-62.7033075980071

> <r_i_glide_energy>
-46.0639443397522

> <r_i_glide_einternal>
9.23694896697998

> <i_i_glide_confnum>
70

> <i_i_glide_posenum>
334

> <r_i_glide_eff_state_penalty>
0

> <s_user_duplicate_titles>
CHEMBL4581_lig875

> <s_m_subgroup_title>
dock_pv

> <s_m_subgroupid>
dock_pv

> <b_m_subgroup_collapsed>
1

$$$$
CHEMBL4581_lig279
                    3D
 Schrodinger Suite 2021-1.
 51 54  0  0  1  0            999 V2000
   17.9180   13.4239  111.9363 C   0  0  0  0  0  0
   18.8998   14.4143  111.7698 C   0  0  0  0  0  0
   19.1100   15.0808  110.5609 C   0  0  0  0  0  0
   17.0872   13.0868  110.8532 C   0  0  0  0  0  0
   16.5991   13.5620  108.4599 N   0  0  0  0  0  0
   17.2738   13.7418  109.6304 C   0  0  0  0  0  0
   18.2854   14.7190  109.4909 C   0  0  0  0  0  0
   18.2245   15.0903  108.1561 N   0  0  0  0  0  0
   17.1945   14.3464  107.5971 C   0  0  0  0  0  0
   16.9052   14.4515  106.2545 N   0  0  0  0  0  0
   15.8803   13.8755  105.4826 C   0  0  0  0  0  0
   15.9180   14.1057  104.1065 C   0  0  0  0  0  0
   14.9518   13.5620  103.2614 C   0  0  0  0  0  0
   13.9232   12.7620  103.7734 C   0  0  0  0  0  0
   13.8747   12.5432  105.1594 C   0  0  0  0  0  0
   14.8349   13.1014  106.0015 C   0  0  0  0  0  0
   19.1775   15.9636  107.4460 C   0  0  0  0  0  0
   20.4191   15.2432  106.8833 C   0  0  0  0  0  0
   21.1576   15.7174  105.7645 C   0  0  0  0  0  0
   22.3044   15.0306  105.3590 C   0  0  0  0  0  0
   22.6895   13.8674  105.9950 C   0  0  0  0  0  0
   21.9639   13.3746  107.0671 C   0  0  0  0  0  0
   20.8596   14.0740  107.5252 C   0  0  0  0  0  0
   20.8001   16.9718  104.9729 C   0  0  0  0  0  0
   19.5131   17.0413  104.6431 F   0  0  0  0  0  0
   21.1180   17.9620  105.7590 F   0  0  0  0  0  0
   21.5181   17.1620  103.8667 F   0  0  0  0  0  0
   17.7884   12.7323  113.2769 C   0  0  0  0  0  0
   18.6285   12.8826  114.1590 O   0  0  0  0  0  0
   16.7180   11.9620  113.4907 N   0  0  0  0  0  0
   13.0222   12.2224  102.8731 O   0  0  0  0  0  0
   11.9884   11.3663  103.3523 C   0  0  0  0  0  0
   15.0353   13.7974  101.9306 F   0  0  0  0  0  0
   19.5395   14.6767  112.6022 H   0  0  0  0  0  0
   19.8862   15.8244  110.4678 H   0  0  0  0  0  0
   16.3271   12.3234  110.9278 H   0  0  0  0  0  0
   17.5922   14.9001  105.6701 H   0  0  0  0  0  0
   16.7118   14.6973  103.6765 H   0  0  0  0  0  0
   13.1028   11.9353  105.6057 H   0  0  0  0  0  0
   14.7480   12.8937  107.0546 H   0  0  0  0  0  0
   19.5088   16.7405  108.1360 H   0  0  0  0  0  0
   18.6187   16.4826  106.6735 H   0  0  0  0  0  0
   22.8895   15.3655  104.5149 H   0  0  0  0  0  0
   23.5180   13.3249  105.6016 H   0  0  0  0  0  0
   22.2603   12.4541  107.5450 H   0  0  0  0  0  0
   20.3442   13.6622  108.3772 H   0  0  0  0  0  0
   16.6183   11.5277  114.3947 H   0  0  0  0  0  0
   16.0516   11.7471  112.7624 H   0  0  0  0  0  0
   11.3877   11.0211  102.5110 H   0  0  0  0  0  0
   12.3944   10.4841  103.8505 H   0  0  0  0  0  0
   11.3216   11.8891  104.0397 H   0  0  0  0  0  0
  1  4  1  0  0  0
  1 28  1  0  0  0
  1  2  2  0  0  0
  2  3  1  0  0  0
  2 34  1  0  0  0
  3  7  2  0  0  0
  3 35  1  0  0  0
  4  6  2  0  0  0
  4 36  1  0  0  0
  5  6  1  0  0  0
  5  9  2  0  0  0
  6  7  1  0  0  0
  7  8  1  0  0  0
  8 17  1  0  0  0
  8  9  1  0  0  0
  9 10  1  0  0  0
 10 11  1  0  0  0
 10 37  1  0  0  0
 11 16  1  0  0  0
 11 12  2  0  0  0
 12 13  1  0  0  0
 12 38  1  0  0  0
 13 14  2  0  0  0
 13 33  1  0  0  0
 14 31  1  0  0  0
 14 15  1  0  0  0
 15 16  2  0  0  0
 15 39  1  0  0  0
 16 40  1  0  0  0
 17 18  1  0  0  0
 17 41  1  0  0  0
 17 42  1  0  0  0
 18 19  2  0  0  0
 18 23  1  0  0  0
 19 20  1  0  0  0
 19 24  1  0  0  0
 20 21  2  0  0  0
 20 43  1  0  0  0
 21 22  1  0  0  0
 21 44  1  0  0  0
 22 23  2  0  0  0
 22 45  1  0  0  0
 23 46  1  0  0  0
 24 25  1  0  0  0
 24 26  1  0  0  0
 24 27  1  0  0  0
 28 29  2  0  0  0
 28 30  1  0  0  0
 30 47  1  0  0  0
 30 48  1  0  0  0
 31 32  1  0  0  0
 32 49  1  0  0  0
 32 50  1  0  0  0
 32 51  1  0  0  0
M  END
> <s_m_entry_id>
363

> <s_m_entry_name>
dock_pv.362

> <s_m_Source_Path>
/home/csk/Desktop/cluster/DUD-E-result/kif11

> <s_m_Source_File>
dock_pv.maegz

> <i_m_Source_File_Index>
362

> <chembl_id>
CHEMBL552152

> <chembl_pref_name>
None

> <i_lp_mmshare_version>
53161

> <i_f3d_flags>
0

> <r_lp_tautomer_probability>
1

> <s_lp_Force_Field>
OPLS_2005

> <r_lp_Energy>
23.50231

> <b_lp_Chiralities_Consistent>
1

> <s_lp_Variant>
CHEMBL4581_lig279-1

> <s_i_glide_gridfile>
glide-grid_3cjo

> <i_i_glide_lignum>
405

> <i_i_glide_rotatable_bonds>
7

> <r_i_docking_score>
-7.51161389774689

> <r_i_glide_ligand_efficiency>
-0.227624663568088

> <r_i_glide_ligand_efficiency_sa>
-0.730113921897442

> <r_i_glide_ligand_efficiency_ln>
-1.67054403780366

> <r_i_glide_gscore>
-7.51161389774689

> <r_i_glide_lipo>
-3.85557138783401

> <r_i_glide_hbond>
-0.2630578236441

> <r_i_glide_metal>
0

> <r_i_glide_rewards>
-1.50051781339364

> <r_i_glide_evdw>
-40.5224151611328

> <r_i_glide_ecoul>
-1.52154886722565

> <r_i_glide_erotb>
0.382844009310148

> <r_i_glide_esite>
-0.0209577940447989

> <r_i_glide_emodel>
-56.6317254032255

> <r_i_glide_energy>
-42.0439640283585

> <r_i_glide_einternal>
3.48908376693726

> <i_i_glide_confnum>
13

> <i_i_glide_posenum>
233

> <r_i_glide_eff_state_penalty>
0

> <s_user_duplicate_titles>
CHEMBL4581_lig279

> <s_m_subgroup_title>
dock_pv

> <s_m_subgroupid>
dock_pv

> <b_m_subgroup_collapsed>
1

$$$$
CHEMBL4581_lig801
                    3D
 Schrodinger Suite 2021-1.
 50 53  0  0  1  0            999 V2000
   16.7653   13.4233  108.3319 S   0  0  0  0  0  0
   16.9608   13.6150  106.5206 C   0  0  0  0  0  0
   15.6039   13.6905  105.7842 C   0  0  1  0  0  0
   15.6557   14.6078  104.5411 C   0  0  0  0  0  0
   16.7180   14.3515  103.7174 O   0  0  0  0  0  0
   14.8115   15.4802  104.3511 O   0  0  0  0  0  0
   15.1292   12.3618  105.3588 N   0  0  0  0  0  0
   17.6355   14.8428  109.1641 C   0  0  0  0  0  0
   18.9017   15.1477  108.3017 C   0  0  0  0  0  0
   16.6087   16.0270  109.2442 C   0  0  0  0  0  0
   18.0755   14.4068  110.6045 C   0  0  0  0  0  0
   16.2651   16.6340  110.4692 C   0  0  0  0  0  0
   15.3513   17.6823  110.5257 C   0  0  0  0  0  0
   14.7518   18.1396  109.3576 C   0  0  0  0  0  0
   15.0595   17.5551  108.1345 C   0  0  0  0  0  0
   15.9753   16.5078  108.0838 C   0  0  0  0  0  0
   19.1187   15.0969  111.2441 C   0  0  0  0  0  0
   19.5176   14.7620  112.5347 C   0  0  0  0  0  0
   18.8826   13.7224  113.2068 C   0  0  0  0  0  0
   17.8559   13.0140  112.5943 C   0  0  0  0  0  0
   17.4542   13.3541  111.3058 C   0  0  0  0  0  0
   19.8935   14.1535  108.1674 C   0  0  0  0  0  0
   20.1089   16.5226  106.6565 C   0  0  0  0  0  0
   19.0653   16.3516  107.5762 C   0  0  0  0  0  0
   21.0282   15.4966  106.5272 C   0  0  0  0  0  0
   20.9334   14.3606  107.2683 C   0  0  0  0  0  0
   21.9635   13.5318  106.9588 O   0  0  0  0  0  0
   22.7203   14.1902  105.9742 C   0  0  0  0  0  0
   22.1207   15.4341  105.7241 O   0  0  0  0  0  0
   17.5726   14.4833  106.2904 H   0  0  0  0  0  0
   17.5328   12.7621  106.1596 H   0  0  0  0  0  0
   14.8795   14.1340  106.4708 H   0  0  0  0  0  0
   17.2992   13.6446  104.0360 H   0  0  0  0  0  0
   15.2743   11.6798  106.0998 H   0  0  0  0  0  0
   14.1376   12.3692  105.1690 H   0  0  0  0  0  0
   16.7013   16.3186  111.4033 H   0  0  0  0  0  0
   15.1117   18.1421  111.4749 H   0  0  0  0  0  0
   14.0430   18.9525  109.3990 H   0  0  0  0  0  0
   14.5928   17.9117  107.2279 H   0  0  0  0  0  0
   16.2054   16.0881  107.1186 H   0  0  0  0  0  0
   19.6185   15.9159  110.7446 H   0  0  0  0  0  0
   20.3218   15.3045  113.0073 H   0  0  0  0  0  0
   19.1940   13.4586  114.2075 H   0  0  0  0  0  0
   17.3634   12.2074  113.1182 H   0  0  0  0  0  0
   16.6391   12.7891  110.8795 H   0  0  0  0  0  0
   19.8148   13.2225  108.7112 H   0  0  0  0  0  0
   20.2007   17.4388  106.0910 H   0  0  0  0  0  0
   18.3683   17.1627  107.6897 H   0  0  0  0  0  0
   22.7183   13.5948  105.0596 H   0  0  0  0  0  0
   23.7342   14.3622  106.3359 H   0  0  0  0  0  0
  1  8  1  0  0  0
  1  2  1  0  0  0
  2  3  1  0  0  0
  2 30  1  0  0  0
  2 31  1  0  0  0
  3  7  1  0  0  0
  3  4  1  0  0  0
  3 32  1  0  0  0
  4  5  1  0  0  0
  4  6  2  0  0  0
  5 33  1  0  0  0
  7 34  1  0  0  0
  7 35  1  0  0  0
  8  9  1  0  0  0
  8 10  1  0  0  0
  8 11  1  0  0  0
  9 22  1  0  0  0
  9 24  2  0  0  0
 10 16  1  0  0  0
 10 12  2  0  0  0
 11 17  2  0  0  0
 11 21  1  0  0  0
 12 13  1  0  0  0
 12 36  1  0  0  0
 13 14  2  0  0  0
 13 37  1  0  0  0
 14 15  1  0  0  0
 14 38  1  0  0  0
 15 16  2  0  0  0
 15 39  1  0  0  0
 16 40  1  0  0  0
 17 18  1  0  0  0
 17 41  1  0  0  0
 18 19  2  0  0  0
 18 42  1  0  0  0
 19 20  1  0  0  0
 19 43  1  0  0  0
 20 21  2  0  0  0
 20 44  1  0  0  0
 21 45  1  0  0  0
 22 26  2  0  0  0
 22 46  1  0  0  0
 23 25  2  0  0  0
 23 24  1  0  0  0
 23 47  1  0  0  0
 24 48  1  0  0  0
 25 26  1  0  0  0
 25 29  1  0  0  0
 26 27  1  0  0  0
 27 28  1  0  0  0
 28 29  1  0  0  0
 28 49  1  0  0  0
 28 50  1  0  0  0
M  END
> <s_m_entry_id>
364

> <s_m_entry_name>
dock_pv.363

> <s_m_Source_Path>
/home/csk/Desktop/cluster/DUD-E-result/kif11

> <s_m_Source_File>
dock_pv.maegz

> <i_m_Source_File_Index>
363

> <chembl_id>
CHEMBL261611

> <chembl_pref_name>
None

> <i_lp_mmshare_version>
53161

> <i_f3d_flags>
0

> <r_lp_tautomer_probability>
1

> <s_lp_Force_Field>
OPLS_2005

> <r_lp_Energy>
32.959554

> <b_lp_Chiralities_Consistent>
1

> <s_lp_Variant>
CHEMBL4581_lig801-1

> <s_i_glide_gridfile>
glide-grid_3cjo

> <i_i_glide_lignum>
1186

> <i_i_glide_rotatable_bonds>
8

> <r_i_docking_score>
-7.5062112479781

> <r_i_glide_ligand_efficiency>
-0.258834870619935

> <r_i_glide_ligand_efficiency_sa>
-0.795222727187261

> <r_i_glide_ligand_efficiency_ln>
-1.71873203469282

> <r_i_glide_gscore>
-7.5062112479781

> <r_i_glide_lipo>
-3.69788362710539

> <r_i_glide_hbond>
-0.304

> <r_i_glide_metal>
0

> <r_i_glide_rewards>
-1.1391301060606

> <r_i_glide_evdw>
-42.9187240600586

> <r_i_glide_ecoul>
-6.92675971984863

> <r_i_glide_erotb>
0.829340476493572

> <r_i_glide_esite>
-0.00958783032545153

> <r_i_glide_emodel>
-68.0817993286659

> <r_i_glide_energy>
-49.8454837799072

> <r_i_glide_einternal>
10.8505477905273

> <i_i_glide_confnum>
57

> <i_i_glide_posenum>
184

> <r_i_glide_eff_state_penalty>
0

> <s_user_duplicate_titles>
CHEMBL4581_lig801

> <s_m_subgroup_title>
dock_pv

> <s_m_subgroupid>
dock_pv

> <b_m_subgroup_collapsed>
1

$$$$
CHEMBL4581_lig113
                    3D
 Schrodinger Suite 2021-1.
 64 67  0  0  1  0            999 V2000
   21.1306   15.8680  105.7587 C   0  0  0  0  0  0
   21.8253   13.9620  106.7135 C   0  0  0  0  0  0
   22.0927   14.8706  105.6865 C   0  0  0  0  0  0
   20.7558   14.4733  107.4486 C   0  0  0  0  0  0
   20.2865   15.6002  106.8034 N   0  0  0  0  0  0
   19.1427   16.2949  107.1275 N   0  0  0  0  0  0
   18.5390   15.9021  108.1996 C   0  0  0  0  0  0
   19.1257   14.9878  109.0680 N   0  0  0  0  0  0
   20.1294   14.0962  108.7077 C   0  0  0  0  0  0
   20.4977   13.1615  109.4143 O   0  0  0  0  0  0
   17.0848   16.3733  108.4891 C   0  0  2  0  0  0
   16.1371   15.7600  107.5016 N   0  0  0  0  0  0
   15.1381   14.9292  107.9386 C   0  0  0  0  0  0
   16.3138   16.0921  106.0637 C   0  0  0  0  0  0
   14.1271   14.4254  106.9376 C   0  0  0  0  0  0
   15.0311   14.5489  109.1063 O   0  0  0  0  0  0
   16.9629   17.9260  108.5617 C   0  0  0  0  0  0
   16.8385   14.9311  105.1794 C   0  0  0  0  0  0
   16.7759   15.2073  103.6703 C   0  0  0  0  0  0
   13.2423   15.3052  106.3028 C   0  0  0  0  0  0
   12.3886   14.8356  105.3076 C   0  0  0  0  0  0
   12.4065   13.4854  104.9556 C   0  0  0  0  0  0
   13.2479   12.5985  105.6224 C   0  0  0  0  0  0
   14.0965   13.0648  106.6194 C   0  0  0  0  0  0
   11.5209   12.9665  103.8403 C   0  0  0  0  0  0
   16.7378   18.4600  109.9836 C   0  0  0  0  0  0
   17.5174   16.3610  103.3326 O   0  0  0  0  0  0
   18.9337   15.1524  110.5334 C   0  0  0  0  0  0
   18.2787   14.0207  111.3169 C   0  0  0  0  0  0
   18.4885   13.9586  112.6979 C   0  0  0  0  0  0
   17.9136   12.9352  113.4460 C   0  0  0  0  0  0
   17.1342   11.9767  112.8037 C   0  0  0  0  0  0
   16.9426   12.0214  111.4254 C   0  0  0  0  0  0
   17.5025   13.0495  110.6808 C   0  0  0  0  0  0
   20.9460   16.7284  105.1343 H   0  0  0  0  0  0
   22.3901   13.0694  106.9425 H   0  0  0  0  0  0
   22.8812   14.7908  104.9521 H   0  0  0  0  0  0
   16.8082   16.0200  109.4816 H   0  0  0  0  0  0
   15.3728   16.4537  105.6555 H   0  0  0  0  0  0
   16.9745   16.9457  105.9457 H   0  0  0  0  0  0
   17.8458   18.4247  108.1603 H   0  0  0  0  0  0
   16.1400   18.2708  107.9329 H   0  0  0  0  0  0
   17.8659   14.6832  105.4459 H   0  0  0  0  0  0
   16.2752   14.0183  105.3606 H   0  0  0  0  0  0
   17.1380   14.3501  103.1002 H   0  0  0  0  0  0
   15.7448   15.3991  103.3701 H   0  0  0  0  0  0
   13.2338   16.3564  106.5545 H   0  0  0  0  0  0
   11.7265   15.5248  104.8038 H   0  0  0  0  0  0
   13.2536   11.5496  105.3636 H   0  0  0  0  0  0
   14.7555   12.3655  107.1126 H   0  0  0  0  0  0
   10.9328   13.7584  103.3770 H   0  0  0  0  0  0
   12.1297   12.4992  103.0655 H   0  0  0  0  0  0
   10.8473   12.2020  104.2262 H   0  0  0  0  0  0
   16.5902   19.5403  109.9654 H   0  0  0  0  0  0
   15.8544   18.0147  110.4426 H   0  0  0  0  0  0
   17.5936   18.2579  110.6286 H   0  0  0  0  0  0
   16.9400   17.1251  103.4051 H   0  0  0  0  0  0
   19.9158   15.3196  110.9766 H   0  0  0  0  0  0
   18.3918   16.0691  110.7646 H   0  0  0  0  0  0
   19.0953   14.7013  113.1944 H   0  0  0  0  0  0
   18.0693   12.8844  114.5143 H   0  0  0  0  0  0
   16.6755   11.1784  113.3703 H   0  0  0  0  0  0
   16.3422   11.2669  110.9396 H   0  0  0  0  0  0
   17.3367   13.0767  109.6131 H   0  0  0  0  0  0
  1  5  1  0  0  0
  1  3  2  0  0  0
  1 35  1  0  0  0
  2  4  2  0  0  0
  2  3  1  0  0  0
  2 36  1  0  0  0
  3 37  1  0  0  0
  4  5  1  0  0  0
  4  9  1  0  0  0
  5  6  1  0  0  0
  6  7  2  0  0  0
  7  8  1  0  0  0
  7 11  1  0  0  0
  8  9  1  0  0  0
  8 28  1  0  0  0
  9 10  2  0  0  0
 11 17  1  0  0  0
 11 12  1  0  0  0
 11 38  1  0  0  0
 12 13  1  0  0  0
 12 14  1  0  0  0
 13 16  2  0  0  0
 13 15  1  0  0  0
 14 18  1  0  0  0
 14 39  1  0  0  0
 14 40  1  0  0  0
 15 20  2  0  0  0
 15 24  1  0  0  0
 17 26  1  0  0  0
 17 41  1  0  0  0
 17 42  1  0  0  0
 18 19  1  0  0  0
 18 43  1  0  0  0
 18 44  1  0  0  0
 19 27  1  0  0  0
 19 45  1  0  0  0
 19 46  1  0  0  0
 20 21  1  0  0  0
 20 47  1  0  0  0
 21 22  2  0  0  0
 21 48  1  0  0  0
 22 23  1  0  0  0
 22 25  1  0  0  0
 23 24  2  0  0  0
 23 49  1  0  0  0
 24 50  1  0  0  0
 25 51  1  0  0  0
 25 52  1  0  0  0
 25 53  1  0  0  0
 26 54  1  0  0  0
 26 55  1  0  0  0
 26 56  1  0  0  0
 27 57  1  0  0  0
 28 29  1  0  0  0
 28 58  1  0  0  0
 28 59  1  0  0  0
 29 30  2  0  0  0
 29 34  1  0  0  0
 30 31  1  0  0  0
 30 60  1  0  0  0
 31 32  2  0  0  0
 31 61  1  0  0  0
 32 33  1  0  0  0
 32 62  1  0  0  0
 33 34  2  0  0  0
 33 63  1  0  0  0
 34 64  1  0  0  0
M  END
> <s_m_entry_id>
365

> <s_m_entry_name>
dock_pv.364

> <s_m_Source_Path>
/home/csk/Desktop/cluster/DUD-E-result/kif11

> <s_m_Source_File>
dock_pv.maegz

> <i_m_Source_File_Index>
364

> <chembl_id>
CHEMBL212145

> <chembl_pref_name>
None

> <i_lp_mmshare_version>
53161

> <i_f3d_flags>
0

> <r_lp_tautomer_probability>
1

> <s_lp_Force_Field>
OPLS_2005

> <r_lp_Energy>
52.185214

> <b_lp_Chiralities_Consistent>
1

> <s_lp_Variant>
CHEMBL4581_lig113-1

> <s_i_glide_gridfile>
glide-grid_3cjo

> <i_i_glide_lignum>
193

> <i_i_glide_rotatable_bonds>
11

> <r_i_docking_score>
-7.50321231093413

> <r_i_glide_ligand_efficiency>
-0.220682715027474

> <r_i_glide_ligand_efficiency_sa>
-0.714926327100599

> <r_i_glide_ligand_efficiency_ln>
-1.65767005746198

> <r_i_glide_gscore>
-7.50321231093413

> <r_i_glide_lipo>
-3.92698890568502

> <r_i_glide_hbond>
-0.12345513786753

> <r_i_glide_metal>
0

> <r_i_glide_rewards>
-1.3478947769741

> <r_i_glide_evdw>
-46.4139862060547

> <r_i_glide_ecoul>
-4.30054092407227

> <r_i_glide_erotb>
0.860906958506102

> <r_i_glide_esite>
0

> <r_i_glide_emodel>
-52.832179083239

> <r_i_glide_energy>
-50.714527130127

> <r_i_glide_einternal>
15.2601442337036

> <i_i_glide_confnum>
226

> <i_i_glide_posenum>
49

> <r_i_glide_eff_state_penalty>
0

> <s_user_duplicate_titles>
CHEMBL4581_lig113

> <s_m_subgroup_title>
dock_pv

> <s_m_subgroupid>
dock_pv

> <b_m_subgroup_collapsed>
1

$$$$
CHEMBL4581_lig584
                    3D
 Schrodinger Suite 2021-1.
 47 49  0  0  1  0            999 V2000
   19.3951   15.3352  107.6737 C   0  0  0  0  0  0
   18.0337   15.5011  108.4096 C   0  0  0  0  0  0
   18.0030   14.7140  109.7531 C   0  0  0  0  0  0
   18.8878   15.1118  110.7696 C   0  0  0  0  0  0
   18.8721   14.4995  112.0158 C   0  0  0  0  0  0
   17.9754   13.4670  112.2599 C   0  0  0  0  0  0
   17.1186   13.0246  111.2564 C   0  0  0  0  0  0
   17.1177   13.6555  110.0138 C   0  0  0  0  0  0
   16.7430   15.0085  107.1848 S   0  0  0  0  0  0
   17.2058   13.3814  106.5265 C   0  0  0  0  0  0
   16.3177   12.9000  105.3679 C   0  0  0  0  0  0
   17.7508   17.0098  108.7429 C   0  0  0  0  0  0
   16.5232   17.4094  109.5842 C   0  0  0  0  0  0
   15.3289   16.6744  109.6196 C   0  0  0  0  0  0
   14.2129   17.1698  110.2863 C   0  0  0  0  0  0
   14.2915   18.3880  110.9531 C   0  0  0  0  0  0
   15.4778   19.1121  110.9587 C   0  0  0  0  0  0
   16.5908   18.6165  110.2812 C   0  0  0  0  0  0
   14.9345   12.7589  105.7938 N   0  0  0  0  0  0
   20.2029   14.2055  107.8932 C   0  0  0  0  0  0
   21.3372   13.9713  107.1197 C   0  0  0  0  0  0
   20.9670   16.0642  105.9675 C   0  0  0  0  0  0
   19.8122   16.2702  106.7126 C   0  0  0  0  0  0
   21.7115   14.9074  106.1592 C   0  0  0  0  0  0
   23.1189   14.6442  105.2082 Cl  0  0  0  0  0  0
   17.9163   12.7584  113.8286 Cl  0  0  0  0  0  0
   19.5869   15.9161  110.6012 H   0  0  0  0  0  0
   19.5453   14.8344  112.7909 H   0  0  0  0  0  0
   16.4265   12.2166  111.4486 H   0  0  0  0  0  0
   16.4084   13.3147  109.2761 H   0  0  0  0  0  0
   18.2250   13.4630  106.1592 H   0  0  0  0  0  0
   17.2187   12.6388  107.3242 H   0  0  0  0  0  0
   16.3695   13.6086  104.5401 H   0  0  0  0  0  0
   16.6839   11.9450  104.9887 H   0  0  0  0  0  0
   18.6394   17.4351  109.2121 H   0  0  0  0  0  0
   17.6237   17.5623  107.8162 H   0  0  0  0  0  0
   15.2167   15.7293  109.1205 H   0  0  0  0  0  0
   13.2854   16.6173  110.2799 H   0  0  0  0  0  0
   13.4272   18.7752  111.4719 H   0  0  0  0  0  0
   15.5193   20.0564  111.4815 H   0  0  0  0  0  0
   17.5138   19.1724  110.2819 H   0  0  0  0  0  0
   14.3711   12.4078  105.0331 H   0  0  0  0  0  0
   14.8987   12.0518  106.5214 H   0  0  0  0  0  0
   19.9206   13.4532  108.6153 H   0  0  0  0  0  0
   21.9253   13.0778  107.2684 H   0  0  0  0  0  0
   21.2681   16.7903  105.2246 H   0  0  0  0  0  0
   19.2406   17.1602  106.5056 H   0  0  0  0  0  0
  1 20  2  0  0  0
  1  2  1  0  0  0
  1 23  1  0  0  0
  2  9  1  0  0  0
  2  3  1  0  0  0
  2 12  1  0  0  0
  3  4  2  0  0  0
  3  8  1  0  0  0
  4  5  1  0  0  0
  4 27  1  0  0  0
  5  6  2  0  0  0
  5 28  1  0  0  0
  6  7  1  0  0  0
  6 26  1  0  0  0
  7  8  2  0  0  0
  7 29  1  0  0  0
  8 30  1  0  0  0
  9 10  1  0  0  0
 10 11  1  0  0  0
 10 31  1  0  0  0
 10 32  1  0  0  0
 11 19  1  0  0  0
 11 33  1  0  0  0
 11 34  1  0  0  0
 12 13  1  0  0  0
 12 35  1  0  0  0
 12 36  1  0  0  0
 13 14  2  0  0  0
 13 18  1  0  0  0
 14 15  1  0  0  0
 14 37  1  0  0  0
 15 16  2  0  0  0
 15 38  1  0  0  0
 16 17  1  0  0  0
 16 39  1  0  0  0
 17 18  2  0  0  0
 17 40  1  0  0  0
 18 41  1  0  0  0
 19 42  1  0  0  0
 19 43  1  0  0  0
 20 21  1  0  0  0
 20 44  1  0  0  0
 21 24  2  0  0  0
 21 45  1  0  0  0
 22 24  1  0  0  0
 22 23  2  0  0  0
 22 46  1  0  0  0
 23 47  1  0  0  0
 24 25  1  0  0  0
M  END
> <s_m_entry_id>
366

> <s_m_entry_name>
dock_pv.365

> <s_m_Source_Path>
/home/csk/Desktop/cluster/DUD-E-result/kif11

> <s_m_Source_File>
dock_pv.maegz

> <i_m_Source_File_Index>
365

> <chembl_id>
CHEMBL2043418

> <chembl_pref_name>
None

> <i_lp_mmshare_version>
53161

> <i_f3d_flags>
0

> <r_lp_tautomer_probability>
1

> <s_lp_Force_Field>
OPLS_2005

> <r_lp_Energy>
23.156252

> <b_lp_Chiralities_Consistent>
1

> <s_lp_Variant>
CHEMBL4581_lig584-1

> <s_i_glide_gridfile>
glide-grid_3cjo

> <i_i_glide_lignum>
897

> <i_i_glide_rotatable_bonds>
7

> <r_i_docking_score>
-7.49344500402638

> <r_i_glide_ligand_efficiency>
-0.288209423231784

> <r_i_glide_ligand_efficiency_sa>
-0.85381928227484

> <r_i_glide_ligand_efficiency_ln>
-1.75981097119705

> <r_i_glide_gscore>
-7.49344500402638

> <r_i_glide_lipo>
-4.70804028646561

> <r_i_glide_hbond>
-0.308515326775446

> <r_i_glide_metal>
0

> <r_i_glide_rewards>
-0.750296338062228

> <r_i_glide_evdw>
-43.3991546630859

> <r_i_glide_ecoul>
-1.89217150211334

> <r_i_glide_erotb>
0.727190405748205

> <r_i_glide_esite>
0

> <r_i_glide_emodel>
-63.3416378128975

> <r_i_glide_energy>
-45.2913261651993

> <r_i_glide_einternal>
6.77596092224121

> <i_i_glide_confnum>
105

> <i_i_glide_posenum>
293

> <r_i_glide_eff_state_penalty>
0

> <s_user_duplicate_titles>
CHEMBL4581_lig584

> <s_m_subgroup_title>
dock_pv

> <s_m_subgroupid>
dock_pv

> <b_m_subgroup_collapsed>
1

$$$$
CHEMBL4581_lig599
                    3D
 Schrodinger Suite 2021-1.
 50 52  0  0  1  0            999 V2000
   17.8037   14.5398  109.9144 C   0  0  0  0  0  0
   17.6507   15.3652  108.5979 C   0  0  2  0  0  0
   16.5416   16.4221  108.8774 C   0  0  0  0  0  0
   16.8270   17.7927  109.0231 C   0  0  0  0  0  0
   15.8164   18.7066  109.3071 C   0  0  0  0  0  0
   14.5060   18.2650  109.4556 C   0  0  0  0  0  0
   14.1971   16.9159  109.3200 C   0  0  0  0  0  0
   15.2084   16.0039  109.0315 C   0  0  0  0  0  0
   17.1077   14.2850  107.1864 S   0  0  0  0  0  0
   17.1853   15.3779  105.7255 C   0  0  0  0  0  0
   16.2170   14.9937  104.5833 C   0  0  2  0  0  0
   18.9987   16.0521  108.1498 C   0  0  0  0  0  0
   20.1446   15.1955  107.5964 C   0  0  0  0  0  0
   20.5497   14.0085  108.2145 C   0  0  0  0  0  0
   21.6131   13.2825  107.6927 C   0  0  0  0  0  0
   22.2770   13.7366  106.5570 C   0  0  0  0  0  0
   21.8923   14.9222  105.9397 C   0  0  0  0  0  0
   20.8304   15.6529  106.4636 C   0  0  0  0  0  0
   16.3179   13.5786  104.1687 N   0  0  0  0  0  0
   16.4558   15.9009  103.3475 C   0  0  0  0  0  0
   15.8877   17.1320  103.5131 O   0  0  0  0  0  0
   17.1177   15.5577  102.3651 O   0  0  0  0  0  0
   18.6755   14.9563  110.9408 C   0  0  0  0  0  0
   17.1183   12.6915  111.3548 C   0  0  0  0  0  0
   17.0464   13.3752  110.1430 C   0  0  0  0  0  0
   18.7713   14.2567  112.1454 C   0  0  0  0  0  0
   17.9554   13.1484  112.3686 C   0  0  0  0  0  0
   17.9435   12.3608  113.9043 Cl  0  0  0  0  0  0
   19.9125   14.7619  113.3442 Cl  0  0  0  0  0  0
   17.8293   18.1813  108.9381 H   0  0  0  0  0  0
   16.0519   19.7553  109.4243 H   0  0  0  0  0  0
   13.7244   18.9751  109.6820 H   0  0  0  0  0  0
   13.1797   16.5767  109.4425 H   0  0  0  0  0  0
   14.9503   14.9600  108.9375 H   0  0  0  0  0  0
   16.9796   16.4005  106.0454 H   0  0  0  0  0  0
   18.2147   15.3559  105.3626 H   0  0  0  0  0  0
   15.1965   15.1747  104.9237 H   0  0  0  0  0  0
   18.7602   16.7833  107.3783 H   0  0  0  0  0  0
   19.4082   16.6640  108.9413 H   0  0  0  0  0  0
   20.0548   13.6254  109.0908 H   0  0  0  0  0  0
   21.9137   12.3617  108.1569 H   0  0  0  0  0  0
   23.0926   13.1628  106.1455 H   0  0  0  0  0  0
   22.4103   15.2684  105.0571 H   0  0  0  0  0  0
   20.5423   16.5761  105.9821 H   0  0  0  0  0  0
   15.9460   13.4291  103.2439 H   0  0  0  0  0  0
   17.2937   13.2565  104.1567 H   0  0  0  0  0  0
   15.3964   17.2181  104.3323 H   0  0  0  0  0  0
   19.2883   15.8362  110.8355 H   0  0  0  0  0  0
   16.4974   11.8214  111.5157 H   0  0  0  0  0  0
   16.3603   12.9969  109.3996 H   0  0  0  0  0  0
  1 23  2  0  0  0
  1  2  1  0  0  0
  1 25  1  0  0  0
  2  9  1  0  0  0
  2  3  1  0  0  0
  2 12  1  0  0  0
  3  4  2  0  0  0
  3  8  1  0  0  0
  4  5  1  0  0  0
  4 30  1  0  0  0
  5  6  2  0  0  0
  5 31  1  0  0  0
  6  7  1  0  0  0
  6 32  1  0  0  0
  7  8  2  0  0  0
  7 33  1  0  0  0
  8 34  1  0  0  0
  9 10  1  0  0  0
 10 11  1  0  0  0
 10 35  1  0  0  0
 10 36  1  0  0  0
 11 19  1  0  0  0
 11 20  1  0  0  0
 11 37  1  0  0  0
 12 13  1  0  0  0
 12 38  1  0  0  0
 12 39  1  0  0  0
 13 14  2  0  0  0
 13 18  1  0  0  0
 14 15  1  0  0  0
 14 40  1  0  0  0
 15 16  2  0  0  0
 15 41  1  0  0  0
 16 17  1  0  0  0
 16 42  1  0  0  0
 17 18  2  0  0  0
 17 43  1  0  0  0
 18 44  1  0  0  0
 19 45  1  0  0  0
 19 46  1  0  0  0
 20 21  1  0  0  0
 20 22  2  0  0  0
 21 47  1  0  0  0
 23 26  1  0  0  0
 23 48  1  0  0  0
 24 27  1  0  0  0
 24 25  2  0  0  0
 24 49  1  0  0  0
 25 50  1  0  0  0
 26 27  2  0  0  0
 26 29  1  0  0  0
 27 28  1  0  0  0
M  END
> <s_m_entry_id>
367

> <s_m_entry_name>
dock_pv.366

> <s_m_Source_Path>
/home/csk/Desktop/cluster/DUD-E-result/kif11

> <s_m_Source_File>
dock_pv.maegz

> <i_m_Source_File_Index>
366

> <chembl_id>
CHEMBL2043403

> <chembl_pref_name>
None

> <i_lp_mmshare_version>
53161

> <i_f3d_flags>
0

> <r_lp_tautomer_probability>
1

> <s_lp_Force_Field>
OPLS_2005

> <r_lp_Energy>
26.625983

> <b_lp_Chiralities_Consistent>
1

> <s_lp_Variant>
CHEMBL4581_lig599-2

> <s_i_glide_gridfile>
glide-grid_3cjo

> <i_i_glide_lignum>
923

> <i_i_glide_rotatable_bonds>
9

> <r_i_docking_score>
-7.49134641800012

> <r_i_glide_ligand_efficiency>
-0.258322290275866

> <r_i_glide_ligand_efficiency_sa>
-0.793647917973431

> <r_i_glide_ligand_efficiency_ln>
-1.71532836556742

> <r_i_glide_gscore>
-7.49134641800012

> <r_i_glide_lipo>
-4.68816698764288

> <r_i_glide_hbond>
-0.216008945684559

> <r_i_glide_metal>
0

> <r_i_glide_rewards>
-0.469989227458006

> <r_i_glide_evdw>
-43.2060127258301

> <r_i_glide_ecoul>
-5.01861476898193

> <r_i_glide_erotb>
0.803598896412173

> <r_i_glide_esite>
-0.00768730198805585

> <r_i_glide_emodel>
-58.8721803501809

> <r_i_glide_energy>
-48.224627494812

> <r_i_glide_einternal>
19.0422248840332

> <i_i_glide_confnum>
174

> <i_i_glide_posenum>
199

> <r_i_glide_eff_state_penalty>
0

> <s_user_duplicate_titles>
CHEMBL4581_lig599

> <s_m_subgroup_title>
dock_pv

> <s_m_subgroupid>
dock_pv

> <b_m_subgroup_collapsed>
1

$$$$
CHEMBL4581_lig814
                    3D
 Schrodinger Suite 2021-1.
 47 49  0  0  1  0            999 V2000
   14.7846   13.9668  106.5011 C   0  0  1  0  0  0
   13.5496   13.1618  106.6257 N   0  0  0  0  0  0
   15.2123   14.5535  107.8752 C   0  0  0  0  0  0
   16.3242   13.5140  108.8888 S   0  0  0  0  0  0
   17.6280   14.5515  109.7288 C   0  0  0  0  0  0
   18.8811   14.5026  108.7738 C   0  0  0  0  0  0
   17.1261   15.9891  110.0609 C   0  0  0  0  0  0
   17.9357   13.9372  111.1435 C   0  0  0  0  0  0
   19.9629   13.6525  109.0863 C   0  0  0  0  0  0
   21.0912   13.5591  108.2726 C   0  0  0  0  0  0
   21.1499   14.2723  107.0841 C   0  0  0  0  0  0
   20.1158   15.1261  106.7455 C   0  0  0  0  0  0
   18.9993   15.2512  107.5691 C   0  0  0  0  0  0
   18.8772   14.5772  111.9713 C   0  0  0  0  0  0
   19.1244   14.1321  113.2653 C   0  0  0  0  0  0
   18.4390   13.0297  113.7596 C   0  0  0  0  0  0
   17.5193   12.3623  112.9622 C   0  0  0  0  0  0
   17.2813   12.8010  111.6637 C   0  0  0  0  0  0
   15.8088   16.2138  110.4862 C   0  0  0  0  0  0
   15.3662   17.4921  110.8137 C   0  0  0  0  0  0
   16.2505   18.5631  110.7413 C   0  0  0  0  0  0
   17.5696   18.3612  110.3524 C   0  0  0  0  0  0
   17.9998   17.0861  110.0124 C   0  0  0  0  0  0
   15.8364   13.1612  105.6784 C   0  0  0  0  0  0
   15.5272   12.2142  104.9588 O   0  0  0  0  0  0
   17.0983   13.6707  105.7589 O   0  0  0  0  0  0
   17.8215   16.3621  106.9823 Cl  0  0  0  0  0  0
   14.5594   14.8181  105.8579 H   0  0  0  0  0  0
   12.7353   13.7404  106.7779 H   0  0  0  0  0  0
   13.3847   12.6384  105.7738 H   0  0  0  0  0  0
   14.3192   14.7100  108.4806 H   0  0  0  0  0  0
   15.5992   15.5557  107.7552 H   0  0  0  0  0  0
   19.9485   13.0292  109.9670 H   0  0  0  0  0  0
   21.9033   12.9023  108.5456 H   0  0  0  0  0  0
   22.0093   14.1751  106.4367 H   0  0  0  0  0  0
   20.1785   15.6932  105.8281 H   0  0  0  0  0  0
   19.4214   15.4396  111.6157 H   0  0  0  0  0  0
   19.8474   14.6455  113.8820 H   0  0  0  0  0  0
   18.6246   12.6877  114.7686 H   0  0  0  0  0  0
   16.9787   11.5139  113.3540 H   0  0  0  0  0  0
   16.5491   12.2408  111.1040 H   0  0  0  0  0  0
   15.1183   15.3900  110.5680 H   0  0  0  0  0  0
   14.3479   17.6523  111.1365 H   0  0  0  0  0  0
   15.9168   19.5552  111.0118 H   0  0  0  0  0  0
   18.2720   19.1748  110.3231 H   0  0  0  0  0  0
   19.0306   16.9613  109.7211 H   0  0  0  0  0  0
   17.7243   13.1954  105.1831 H   0  0  0  0  0  0
  1  3  1  0  0  0
  1 24  1  0  0  0
  1  2  1  0  0  0
  1 28  1  0  0  0
  2 29  1  0  0  0
  2 30  1  0  0  0
  3  4  1  0  0  0
  3 31  1  0  0  0
  3 32  1  0  0  0
  4  5  1  0  0  0
  5  7  1  0  0  0
  5  8  1  0  0  0
  5  6  1  0  0  0
  6  9  2  0  0  0
  6 13  1  0  0  0
  7 19  2  0  0  0
  7 23  1  0  0  0
  8 14  2  0  0  0
  8 18  1  0  0  0
  9 10  1  0  0  0
  9 33  1  0  0  0
 10 11  2  0  0  0
 10 34  1  0  0  0
 11 12  1  0  0  0
 11 35  1  0  0  0
 12 13  2  0  0  0
 12 36  1  0  0  0
 13 27  1  0  0  0
 14 15  1  0  0  0
 14 37  1  0  0  0
 15 16  2  0  0  0
 15 38  1  0  0  0
 16 17  1  0  0  0
 16 39  1  0  0  0
 17 18  2  0  0  0
 17 40  1  0  0  0
 18 41  1  0  0  0
 19 20  1  0  0  0
 19 42  1  0  0  0
 20 21  2  0  0  0
 20 43  1  0  0  0
 21 22  1  0  0  0
 21 44  1  0  0  0
 22 23  2  0  0  0
 22 45  1  0  0  0
 23 46  1  0  0  0
 24 25  2  0  0  0
 24 26  1  0  0  0
 26 47  1  0  0  0
M  END
> <s_m_entry_id>
368

> <s_m_entry_name>
dock_pv.367

> <s_m_Source_Path>
/home/csk/Desktop/cluster/DUD-E-result/kif11

> <s_m_Source_File>
dock_pv.maegz

> <i_m_Source_File_Index>
367

> <chembl_id>
CHEMBL2022592

> <chembl_pref_name>
None

> <i_lp_mmshare_version>
53161

> <i_f3d_flags>
0

> <r_lp_tautomer_probability>
1

> <s_lp_Force_Field>
OPLS_2005

> <r_lp_Energy>
30.667995

> <b_lp_Chiralities_Consistent>
1

> <s_lp_Variant>
CHEMBL4581_lig814-1

> <s_i_glide_gridfile>
glide-grid_3cjo

> <i_i_glide_lignum>
1201

> <i_i_glide_rotatable_bonds>
8

> <r_i_docking_score>
-7.4774024150121

> <r_i_glide_ligand_efficiency>
-0.276940830185633

> <r_i_glide_ligand_efficiency_sa>
-0.830822489644148

> <r_i_glide_ligand_efficiency_ln>
-1.74061600760157

> <r_i_glide_gscore>
-7.4774024150121

> <r_i_glide_lipo>
-4.79890799631962

> <r_i_glide_hbond>
0

> <r_i_glide_metal>
0

> <r_i_glide_rewards>
-0.812677575757574

> <r_i_glide_evdw>
-42.8892440795898

> <r_i_glide_ecoul>
-3.88427329063416

> <r_i_glide_erotb>
0.865589395740072

> <r_i_glide_esite>
-0.00430304110036013

> <r_i_glide_emodel>
-67.0072342739039

> <r_i_glide_energy>
-46.773517370224

> <r_i_glide_einternal>
4.94954013824463

> <i_i_glide_confnum>
15

> <i_i_glide_posenum>
300

> <r_i_glide_eff_state_penalty>
0

> <s_user_duplicate_titles>
CHEMBL4581_lig814

> <s_m_subgroup_title>
dock_pv

> <s_m_subgroupid>
dock_pv

> <b_m_subgroup_collapsed>
1

$$$$
CHEMBL4581_lig278
                    3D
 Schrodinger Suite 2021-1.
 51 54  0  0  1  0            999 V2000
   17.9175   13.3572  111.9284 C   0  0  0  0  0  0
   18.9019   14.3476  111.7522 C   0  0  0  0  0  0
   19.1112   15.0006  110.5342 C   0  0  0  0  0  0
   17.0802   13.0242  110.8517 C   0  0  0  0  0  0
   16.5727   13.4961  108.4560 N   0  0  0  0  0  0
   17.2601   13.6702  109.6215 C   0  0  0  0  0  0
   18.2785   14.6383  109.4697 C   0  0  0  0  0  0
   18.2100   15.0079  108.1333 N   0  0  0  0  0  0
   17.1758   14.2617  107.5809 C   0  0  0  0  0  0
   16.8752   14.3625  106.2380 N   0  0  0  0  0  0
   15.8689   13.7579  105.4585 C   0  0  0  0  0  0
   15.0011   12.7621  105.9228 C   0  0  0  0  0  0
   14.0367   12.2113  105.0848 C   0  0  0  0  0  0
   13.9179   12.6494  103.7593 C   0  0  0  0  0  0
   14.7804   13.6424  103.2961 C   0  0  0  0  0  0
   15.7496   14.1890  104.1356 C   0  0  0  0  0  0
   19.1506   15.8968  107.4208 C   0  0  0  0  0  0
   20.4157   15.2093  106.8695 C   0  0  0  0  0  0
   21.1602   15.7090  105.7644 C   0  0  0  0  0  0
   22.3150   15.0365  105.3590 C   0  0  0  0  0  0
   22.7005   13.8642  105.9758 C   0  0  0  0  0  0
   21.9809   13.3561  107.0434 C   0  0  0  0  0  0
   20.8694   14.0413  107.5053 C   0  0  0  0  0  0
   20.8002   16.9681  104.9776 C   0  0  0  0  0  0
   19.5132   17.0386  104.6485 F   0  0  0  0  0  0
   21.1180   17.9620  105.7591 F   0  0  0  0  0  0
   21.5180   17.1620  103.8712 F   0  0  0  0  0  0
   17.7348   12.6441  113.2549 C   0  0  0  0  0  0
   16.7398   11.9620  113.4956 O   0  0  0  0  0  0
   18.7082   12.7620  114.1590 N   0  0  0  0  0  0
   13.0010   12.1487  102.8552 O   0  0  0  0  0  0
   12.0928   11.1352  103.2801 C   0  0  0  0  0  0
   19.5435   14.6318  112.5736 H   0  0  0  0  0  0
   19.8908   15.7393  110.4287 H   0  0  0  0  0  0
   16.3146   12.2673  110.9546 H   0  0  0  0  0  0
   17.5036   14.9001  105.6630 H   0  0  0  0  0  0
   15.0616   12.3660  106.9228 H   0  0  0  0  0  0
   13.4003   11.4361  105.4832 H   0  0  0  0  0  0
   14.6986   13.9871  102.2761 H   0  0  0  0  0  0
   16.4083   14.9528  103.7494 H   0  0  0  0  0  0
   19.4591   16.6874  108.1061 H   0  0  0  0  0  0
   18.5853   16.3940  106.6385 H   0  0  0  0  0  0
   22.9009   15.3834  104.5203 H   0  0  0  0  0  0
   23.5180   13.3211  105.5654 H   0  0  0  0  0  0
   22.2796   12.4290  107.5066 H   0  0  0  0  0  0
   20.3513   13.6130  108.3475 H   0  0  0  0  0  0
   18.6039   12.3274  115.0678 H   0  0  0  0  0  0
   19.5548   13.2574  113.9366 H   0  0  0  0  0  0
   11.4406   10.8642  102.4503 H   0  0  0  0  0  0
   12.6168   10.2316  103.5954 H   0  0  0  0  0  0
   11.4579   11.4815  104.0971 H   0  0  0  0  0  0
  1  4  1  0  0  0
  1 28  1  0  0  0
  1  2  2  0  0  0
  2  3  1  0  0  0
  2 33  1  0  0  0
  3  7  2  0  0  0
  3 34  1  0  0  0
  4  6  2  0  0  0
  4 35  1  0  0  0
  5  6  1  0  0  0
  5  9  2  0  0  0
  6  7  1  0  0  0
  7  8  1  0  0  0
  8 17  1  0  0  0
  8  9  1  0  0  0
  9 10  1  0  0  0
 10 11  1  0  0  0
 10 36  1  0  0  0
 11 16  1  0  0  0
 11 12  2  0  0  0
 12 13  1  0  0  0
 12 37  1  0  0  0
 13 14  2  0  0  0
 13 38  1  0  0  0
 14 31  1  0  0  0
 14 15  1  0  0  0
 15 16  2  0  0  0
 15 39  1  0  0  0
 16 40  1  0  0  0
 17 18  1  0  0  0
 17 41  1  0  0  0
 17 42  1  0  0  0
 18 19  2  0  0  0
 18 23  1  0  0  0
 19 20  1  0  0  0
 19 24  1  0  0  0
 20 21  2  0  0  0
 20 43  1  0  0  0
 21 22  1  0  0  0
 21 44  1  0  0  0
 22 23  2  0  0  0
 22 45  1  0  0  0
 23 46  1  0  0  0
 24 25  1  0  0  0
 24 26  1  0  0  0
 24 27  1  0  0  0
 28 29  2  0  0  0
 28 30  1  0  0  0
 30 47  1  0  0  0
 30 48  1  0  0  0
 31 32  1  0  0  0
 32 49  1  0  0  0
 32 50  1  0  0  0
 32 51  1  0  0  0
M  END
> <s_m_entry_id>
369

> <s_m_entry_name>
dock_pv.368

> <s_m_Source_Path>
/home/csk/Desktop/cluster/DUD-E-result/kif11

> <s_m_Source_File>
dock_pv.maegz

> <i_m_Source_File_Index>
368

> <chembl_id>
CHEMBL557885

> <chembl_pref_name>
None

> <i_lp_mmshare_version>
53161

> <i_f3d_flags>
0

> <r_lp_tautomer_probability>
1

> <s_lp_Force_Field>
OPLS_2005

> <r_lp_Energy>
23.049703

> <b_lp_Chiralities_Consistent>
1

> <s_lp_Variant>
CHEMBL4581_lig278-1

> <s_i_glide_gridfile>
glide-grid_3cjo

> <i_i_glide_lignum>
404

> <i_i_glide_rotatable_bonds>
7

> <r_i_docking_score>
-7.4757004226389

> <r_i_glide_ligand_efficiency>
-0.233615638207466

> <r_i_glide_ligand_efficiency_sa>
-0.74168341883668

> <r_i_glide_ligand_efficiency_ln>
-1.67401310452598

> <r_i_glide_gscore>
-7.4757004226389

> <r_i_glide_lipo>
-3.87002154679183

> <r_i_glide_hbond>
-0.259363875391622

> <r_i_glide_metal>
0

> <r_i_glide_rewards>
-1.63087103156537

> <r_i_glide_evdw>
-40.3087387084961

> <r_i_glide_ecoul>
-0.607260465621948

> <r_i_glide_erotb>
0.411748118054184

> <r_i_glide_esite>
-0.0206660816761626

> <r_i_glide_emodel>
-53.9842918605827

> <r_i_glide_energy>
-40.915999174118

> <r_i_glide_einternal>
4.48271417617798

> <i_i_glide_confnum>
22

> <i_i_glide_posenum>
149

> <r_i_glide_eff_state_penalty>
0

> <s_user_duplicate_titles>
CHEMBL4581_lig278

> <s_m_subgroup_title>
dock_pv

> <s_m_subgroupid>
dock_pv

> <b_m_subgroup_collapsed>
1

$$$$
CHEMBL4581_lig892
                    3D
 Schrodinger Suite 2021-1.
 53 55  0  0  1  0            999 V2000
   17.8943   14.8867  109.5336 C   0  0  1  0  0  0
   19.1682   14.7022  108.6423 C   0  0  0  0  0  0
   16.6182   14.4035  108.7640 C   0  0  0  0  0  0
   19.2993   15.4187  107.4421 C   0  0  0  0  0  0
   20.3878   15.2235  106.5978 C   0  0  0  0  0  0
   21.3649   14.2907  106.9367 C   0  0  0  0  0  0
   21.2544   13.5619  108.1162 C   0  0  0  0  0  0
   20.1671   13.7630  108.9594 C   0  0  0  0  0  0
   15.3381   14.7569  109.2200 C   0  0  0  0  0  0
   14.1949   14.3621  108.5284 C   0  0  0  0  0  0
   14.2947   13.5929  107.3703 C   0  0  0  0  0  0
   15.5644   13.2328  106.9032 C   0  0  0  0  0  0
   16.7042   13.6168  107.6008 C   0  0  0  0  0  0
   18.0416   14.1144  110.8944 C   0  0  0  0  0  0
   18.9459   14.5745  111.8727 C   0  0  0  0  0  0
   19.0419   13.9602  113.1162 C   0  0  0  0  0  0
   18.2470   12.8568  113.4015 C   0  0  0  0  0  0
   17.3664   12.3621  112.4461 C   0  0  0  0  0  0
   17.2713   12.9766  111.2000 C   0  0  0  0  0  0
   17.7395   16.4135  109.9363 C   0  0  0  0  0  0
   17.3161   17.5134  108.9211 C   0  0  2  0  0  0
   16.9180   18.8290  109.6211 C   0  0  0  0  0  0
   15.7355   18.7162  110.4632 N   0  0  0  0  0  0
   22.5338   14.0416  106.0014 C   0  0  0  0  0  0
   13.1086   13.2203  106.7665 O   0  0  0  0  0  0
   13.1494   12.3675  105.6273 C   0  0  0  0  0  0
   16.3891   17.1536  108.0325 F   0  0  0  0  0  0
   18.5264   16.0881  107.1058 H   0  0  0  0  0  0
   20.4512   15.7750  105.6714 H   0  0  0  0  0  0
   22.0003   12.8216  108.3679 H   0  0  0  0  0  0
   20.1092   13.1509  109.8456 H   0  0  0  0  0  0
   15.2161   15.3541  110.1103 H   0  0  0  0  0  0
   13.2203   14.6505  108.8955 H   0  0  0  0  0  0
   15.6873   12.6265  106.0193 H   0  0  0  0  0  0
   17.6553   13.2844  107.2089 H   0  0  0  0  0  0
   19.5985   15.4118  111.6788 H   0  0  0  0  0  0
   19.7351   14.3349  113.8540 H   0  0  0  0  0  0
   18.3149   12.3790  114.3701 H   0  0  0  0  0  0
   16.7359   11.5138  112.6764 H   0  0  0  0  0  0
   16.5741   12.5547  110.4898 H   0  0  0  0  0  0
   17.0373   16.4527  110.7676 H   0  0  0  0  0  0
   18.6752   16.7736  110.3610 H   0  0  0  0  0  0
   18.1819   17.7644  108.3086 H   0  0  0  0  0  0
   17.7534   19.1693  110.2329 H   0  0  0  0  0  0
   16.7200   19.5954  108.8696 H   0  0  0  0  0  0
   15.9481   18.1755  111.2895 H   0  0  0  0  0  0
   15.4658   19.6313  110.7961 H   0  0  0  0  0  0
   23.4406   14.5100  106.3835 H   0  0  0  0  0  0
   22.7159   12.9702  105.9099 H   0  0  0  0  0  0
   22.3344   14.4140  104.9940 H   0  0  0  0  0  0
   12.1314   12.1291  105.3193 H   0  0  0  0  0  0
   13.6453   12.8481  104.7838 H   0  0  0  0  0  0
   13.6532   11.4240  105.8438 H   0  0  0  0  0  0
  1  2  1  0  0  0
  1  3  1  0  0  0
  1 14  1  0  0  0
  1 20  1  0  0  0
  2  4  2  0  0  0
  2  8  1  0  0  0
  3  9  2  0  0  0
  3 13  1  0  0  0
  4  5  1  0  0  0
  4 28  1  0  0  0
  5  6  2  0  0  0
  5 29  1  0  0  0
  6  7  1  0  0  0
  6 24  1  0  0  0
  7  8  2  0  0  0
  7 30  1  0  0  0
  8 31  1  0  0  0
  9 10  1  0  0  0
  9 32  1  0  0  0
 10 11  2  0  0  0
 10 33  1  0  0  0
 11 12  1  0  0  0
 11 25  1  0  0  0
 12 13  2  0  0  0
 12 34  1  0  0  0
 13 35  1  0  0  0
 14 15  2  0  0  0
 14 19  1  0  0  0
 15 16  1  0  0  0
 15 36  1  0  0  0
 16 17  2  0  0  0
 16 37  1  0  0  0
 17 18  1  0  0  0
 17 38  1  0  0  0
 18 19  2  0  0  0
 18 39  1  0  0  0
 19 40  1  0  0  0
 20 21  1  0  0  0
 20 41  1  0  0  0
 20 42  1  0  0  0
 21 22  1  0  0  0
 21 27  1  0  0  0
 21 43  1  0  0  0
 22 23  1  0  0  0
 22 44  1  0  0  0
 22 45  1  0  0  0
 23 46  1  0  0  0
 23 47  1  0  0  0
 24 48  1  0  0  0
 24 49  1  0  0  0
 24 50  1  0  0  0
 25 26  1  0  0  0
 26 51  1  0  0  0
 26 52  1  0  0  0
 26 53  1  0  0  0
M  END
> <s_m_entry_id>
370

> <s_m_entry_name>
dock_pv.369

> <s_m_Source_Path>
/home/csk/Desktop/cluster/DUD-E-result/kif11

> <s_m_Source_File>
dock_pv.maegz

> <i_m_Source_File_Index>
369

> <chembl_id>
CHEMBL2325426

> <chembl_pref_name>
None

> <i_lp_mmshare_version>
53161

> <i_f3d_flags>
0

> <r_lp_tautomer_probability>
1

> <s_lp_Force_Field>
OPLS_2005

> <r_lp_Energy>
36.16684

> <b_lp_Chiralities_Consistent>
1

> <s_lp_Variant>
CHEMBL4581_lig892-2

> <s_i_glide_gridfile>
glide-grid_3cjo

> <i_i_glide_lignum>
1292

> <i_i_glide_rotatable_bonds>
7

> <r_i_docking_score>
-7.47367168895385

> <r_i_glide_ligand_efficiency>
-0.276802655146439

> <r_i_glide_ligand_efficiency_sa>
-0.830407964527021

> <r_i_glide_ligand_efficiency_ln>
-1.73974755608104

> <r_i_glide_gscore>
-7.47367168895385

> <r_i_glide_lipo>
-4.76198206329939

> <r_i_glide_hbond>
0

> <r_i_glide_metal>
0

> <r_i_glide_rewards>
-1.12436178532924

> <r_i_glide_evdw>
-42.1301803588867

> <r_i_glide_ecoul>
-1.38675677776337

> <r_i_glide_erotb>
0.727194694283619

> <r_i_glide_esite>
0

> <r_i_glide_emodel>
-60.3546911044891

> <r_i_glide_energy>
-43.5169371366501

> <r_i_glide_einternal>
5.2983660697937

> <i_i_glide_confnum>
39

> <i_i_glide_posenum>
53

> <r_i_glide_eff_state_penalty>
0

> <s_user_duplicate_titles>
CHEMBL4581_lig892

> <s_m_subgroup_title>
dock_pv

> <s_m_subgroupid>
dock_pv

> <b_m_subgroup_collapsed>
1

$$$$
CHEMBL4581_lig807
                    3D
 Schrodinger Suite 2021-1.
 44 46  0  0  1  0            999 V2000
   17.0108   12.9983  106.9452 C   0  0  0  0  0  0
   16.3178   12.9869  105.6710 N   0  0  0  0  0  0
   16.2722   13.8690  107.9752 C   0  0  0  0  0  0
   16.8032   13.6906  109.2925 O   0  0  0  0  0  0
   17.8128   14.5716  109.8435 C   0  0  0  0  0  0
   18.1606   14.0120  111.2502 C   0  0  0  0  0  0
   19.0308   14.5525  108.8715 C   0  0  0  0  0  0
   17.2018   15.9809  110.0780 C   0  0  0  0  0  0
   19.1040   14.6685  112.0575 C   0  0  0  0  0  0
   19.3682   14.2259  113.3486 C   0  0  0  0  0  0
   18.7058   13.1043  113.8383 C   0  0  0  0  0  0
   17.7842   12.4236  113.0501 C   0  0  0  0  0  0
   17.5176   12.8714  111.7617 C   0  0  0  0  0  0
   15.8152   16.1506  110.2019 C   0  0  0  0  0  0
   15.2725   17.4107  110.4419 C   0  0  0  0  0  0
   16.1151   18.5109  110.5609 C   0  0  0  0  0  0
   17.4933   18.3619  110.4372 C   0  0  0  0  0  0
   18.0323   17.1076  110.1878 C   0  0  0  0  0  0
   19.0978   15.4526  107.7920 C   0  0  0  0  0  0
   20.1293   15.3763  106.8630 C   0  0  0  0  0  0
   21.1181   14.4132  107.0176 C   0  0  0  0  0  0
   21.1185   13.5621  108.1208 C   0  0  0  0  0  0
   20.0656   13.6176  109.0291 C   0  0  0  0  0  0
   18.0179   13.3635  106.7717 H   0  0  0  0  0  0
   17.1181   11.9805  107.3204 H   0  0  0  0  0  0
   16.9984   12.7538  104.9514 H   0  0  0  0  0  0
   15.6351   12.2417  105.6794 H   0  0  0  0  0  0
   15.2331   13.5394  108.0232 H   0  0  0  0  0  0
   16.2406   14.9154  107.6704 H   0  0  0  0  0  0
   19.6338   15.5359  111.6952 H   0  0  0  0  0  0
   20.0850   14.7475  113.9658 H   0  0  0  0  0  0
   18.9075   12.7587  114.8426 H   0  0  0  0  0  0
   17.2624   11.5617  113.4369 H   0  0  0  0  0  0
   16.7877   12.3292  111.1795 H   0  0  0  0  0  0
   15.1489   15.3045  110.1306 H   0  0  0  0  0  0
   14.2037   17.5338  110.5431 H   0  0  0  0  0  0
   15.6964   19.4887  110.7552 H   0  0  0  0  0  0
   18.1536   19.2073  110.5410 H   0  0  0  0  0  0
   19.1061   17.0200  110.0989 H   0  0  0  0  0  0
   18.3196   16.1837  107.6313 H   0  0  0  0  0  0
   20.1515   16.0503  106.0191 H   0  0  0  0  0  0
   21.9107   14.3393  106.2877 H   0  0  0  0  0  0
   21.9012   12.8252  108.2348 H   0  0  0  0  0  0
   20.0458   12.9007  109.8364 H   0  0  0  0  0  0
  1  2  1  0  0  0
  1  3  1  0  0  0
  1 24  1  0  0  0
  1 25  1  0  0  0
  2 26  1  0  0  0
  2 27  1  0  0  0
  3  4  1  0  0  0
  3 28  1  0  0  0
  3 29  1  0  0  0
  4  5  1  0  0  0
  5  7  1  0  0  0
  5  8  1  0  0  0
  5  6  1  0  0  0
  6 13  1  0  0  0
  6  9  2  0  0  0
  7 19  2  0  0  0
  7 23  1  0  0  0
  8 14  2  0  0  0
  8 18  1  0  0  0
  9 10  1  0  0  0
  9 30  1  0  0  0
 10 11  2  0  0  0
 10 31  1  0  0  0
 11 12  1  0  0  0
 11 32  1  0  0  0
 12 13  2  0  0  0
 12 33  1  0  0  0
 13 34  1  0  0  0
 14 15  1  0  0  0
 14 35  1  0  0  0
 15 16  2  0  0  0
 15 36  1  0  0  0
 16 17  1  0  0  0
 16 37  1  0  0  0
 17 18  2  0  0  0
 17 38  1  0  0  0
 18 39  1  0  0  0
 19 20  1  0  0  0
 19 40  1  0  0  0
 20 21  2  0  0  0
 20 41  1  0  0  0
 21 22  1  0  0  0
 21 42  1  0  0  0
 22 23  2  0  0  0
 22 43  1  0  0  0
 23 44  1  0  0  0
M  END
> <s_m_entry_id>
371

> <s_m_entry_name>
dock_pv.370

> <s_m_Source_Path>
/home/csk/Desktop/cluster/DUD-E-result/kif11

> <s_m_Source_File>
dock_pv.maegz

> <i_m_Source_File_Index>
370

> <chembl_id>
CHEMBL2022585

> <chembl_pref_name>
None

> <i_lp_mmshare_version>
53161

> <i_f3d_flags>
0

> <r_lp_tautomer_probability>
1

> <s_lp_Force_Field>
OPLS_2005

> <r_lp_Energy>
33.974879

> <b_lp_Chiralities_Consistent>
1

> <s_lp_Variant>
CHEMBL4581_lig807-1

> <s_i_glide_gridfile>
glide-grid_3cjo

> <i_i_glide_lignum>
1193

> <i_i_glide_rotatable_bonds>
6

> <r_i_docking_score>
-7.47161694634286

> <r_i_glide_ligand_efficiency>
-0.324852910710559

> <r_i_glide_ligand_efficiency_sa>
-0.923838465112864

> <r_i_glide_ligand_efficiency_ln>
-1.80670472650248

> <r_i_glide_gscore>
-7.47161694634286

> <r_i_glide_lipo>
-4.60546406585597

> <r_i_glide_hbond>
-0.109612836515185

> <r_i_glide_metal>
0

> <r_i_glide_rewards>
-1.46547131818182

> <r_i_glide_evdw>
-39.2560501098633

> <r_i_glide_ecoul>
-2.19444298744202

> <r_i_glide_erotb>
1.00090022781958

> <r_i_glide_esite>
0

> <r_i_glide_emodel>
-60.0500221665692

> <r_i_glide_energy>
-41.4504930973053

> <r_i_glide_einternal>
1.15582096576691

> <i_i_glide_confnum>
121

> <i_i_glide_posenum>
234

> <r_i_glide_eff_state_penalty>
0

> <s_user_duplicate_titles>
CHEMBL4581_lig807

> <s_m_subgroup_title>
dock_pv

> <s_m_subgroupid>
dock_pv

> <b_m_subgroup_collapsed>
1

$$$$
CHEMBL4581_lig376
                    3D
 Schrodinger Suite 2021-1.
 61 64  0  0  1  0            999 V2000
   21.2212   15.8648  105.7902 C   0  0  0  0  0  0
   21.7395   14.6267  106.1593 C   0  0  0  0  0  0
   21.2260   13.9620  107.2753 C   0  0  0  0  0  0
   20.1615   16.4125  106.5043 C   0  0  0  0  0  0
   19.6474   15.7883  107.6441 C   0  0  0  0  0  0
   20.1792   14.5330  108.0177 C   0  0  0  0  0  0
   19.7251   13.8691  109.1786 N   0  0  0  0  0  0
   18.5310   14.3618  109.8720 C   0  0  2  0  0  0
   18.5638   16.4723  108.4761 C   0  0  2  0  0  0
   18.5703   15.9185  109.9175 C   0  0  1  0  0  0
   17.4237   16.5908  110.7057 C   0  0  0  0  0  0
   16.0771   16.4247  109.9918 C   0  0  0  0  0  0
   16.1649   16.8071  108.4942 C   0  0  1  0  0  0
   17.3039   16.2159  107.8509 O   0  0  0  0  0  0
   18.3311   13.7176  111.2405 C   0  0  0  0  0  0
   17.3338   12.7555  111.4195 C   0  0  0  0  0  0
   17.1194   12.2083  112.6813 C   0  0  0  0  0  0
   17.8963   12.6219  113.7587 C   0  0  0  0  0  0
   18.9033   13.5617  113.5837 C   0  0  0  0  0  0
   19.1181   14.1122  112.3271 C   0  0  0  0  0  0
   14.8726   16.4512  107.7421 C   0  0  0  0  0  0
   14.7152   14.9917  107.5894 N   0  0  1  0  0  0
   19.5099   16.2312  110.3825 H   0  0  0  0  0  0
   18.7403   17.5507  108.5012 H   0  0  0  0  0  0
   13.1336   14.4100  107.1192 S   0  0  0  0  0  0
   13.4940   12.7782  106.2373 C   0  0  0  0  0  0
   14.3354   12.9622  104.9534 C   0  0  0  0  0  0
   15.5977   13.6811  105.1543 N   0  0  0  0  0  0
   12.4002   14.1199  108.3571 O   0  0  0  0  0  0
   12.5828   15.3530  106.1386 O   0  0  0  0  0  0
   16.1948   14.0399  103.8707 C   0  0  0  0  0  0
   16.5660   12.8896  105.9130 C   0  0  0  0  0  0
   21.9186   16.7607  104.4929 Cl  0  0  0  0  0  0
   21.8020   12.7995  107.6672 F   0  0  0  0  0  0
   22.5615   14.1945  105.6073 H   0  0  0  0  0  0
   19.7811   17.3791  106.2082 H   0  0  0  0  0  0
   19.8776   12.8748  109.2782 H   0  0  0  0  0  0
   17.6729   14.0572  109.2687 H   0  0  0  0  0  0
   17.6389   17.6543  110.8279 H   0  0  0  0  0  0
   17.3421   16.1784  111.7110 H   0  0  0  0  0  0
   15.3222   17.0356  110.4883 H   0  0  0  0  0  0
   15.7362   15.3933  110.0916 H   0  0  0  0  0  0
   16.2659   17.8924  108.4245 H   0  0  0  0  0  0
   16.7165   12.4371  110.5906 H   0  0  0  0  0  0
   16.3367   11.4783  112.8284 H   0  0  0  0  0  0
   17.7240   12.2048  114.7410 H   0  0  0  0  0  0
   19.5181   13.8614  114.4169 H   0  0  0  0  0  0
   19.9006   14.8463  112.2021 H   0  0  0  0  0  0
   14.8850   16.8914  106.7442 H   0  0  0  0  0  0
   13.9938   16.8580  108.2442 H   0  0  0  0  0  0
   15.4153   14.6534  106.9164 H   0  0  0  0  0  0
   12.5235   12.3584  105.9831 H   0  0  0  0  0  0
   13.9616   12.0952  106.9440 H   0  0  0  0  0  0
   13.7207   13.4978  104.2267 H   0  0  0  0  0  0
   14.5308   11.9857  104.5042 H   0  0  0  0  0  0
   17.1162   14.6043  104.0217 H   0  0  0  0  0  0
   16.4334   13.1580  103.2755 H   0  0  0  0  0  0
   15.5196   14.6708  103.2917 H   0  0  0  0  0  0
   17.5000   13.4378  106.0520 H   0  0  0  0  0  0
   16.1949   12.6437  106.9075 H   0  0  0  0  0  0
   16.7934   11.9599  105.3915 H   0  0  0  0  0  0
  1  4  1  0  0  0
  1  2  2  0  0  0
  1 33  1  0  0  0
  2  3  1  0  0  0
  2 35  1  0  0  0
  3  6  2  0  0  0
  3 34  1  0  0  0
  4  5  2  0  0  0
  4 36  1  0  0  0
  5  6  1  0  0  0
  5  9  1  0  0  0
  6  7  1  0  0  0
  7  8  1  0  0  0
  7 37  1  0  0  0
  8 10  1  0  0  0
  8 15  1  0  0  0
  8 38  1  0  0  0
  9 10  1  0  0  0
  9 24  1  0  0  0
  9 14  1  0  0  0
 10 23  1  0  0  0
 10 11  1  0  0  0
 11 12  1  0  0  0
 11 39  1  0  0  0
 11 40  1  0  0  0
 12 13  1  0  0  0
 12 41  1  0  0  0
 12 42  1  0  0  0
 13 21  1  0  0  0
 13 14  1  0  0  0
 13 43  1  0  0  0
 15 20  1  0  0  0
 15 16  2  0  0  0
 16 17  1  0  0  0
 16 44  1  0  0  0
 17 18  2  0  0  0
 17 45  1  0  0  0
 18 19  1  0  0  0
 18 46  1  0  0  0
 19 20  2  0  0  0
 19 47  1  0  0  0
 20 48  1  0  0  0
 21 22  1  0  0  0
 21 49  1  0  0  0
 21 50  1  0  0  0
 22 25  1  0  0  0
 22 51  1  0  0  0
 25 26  1  0  0  0
 25 29  2  0  0  0
 25 30  2  0  0  0
 26 27  1  0  0  0
 26 52  1  0  0  0
 26 53  1  0  0  0
 27 28  1  0  0  0
 27 54  1  0  0  0
 27 55  1  0  0  0
 28 31  1  0  0  0
 28 32  1  0  0  0
 31 56  1  0  0  0
 31 57  1  0  0  0
 31 58  1  0  0  0
 32 59  1  0  0  0
 32 60  1  0  0  0
 32 61  1  0  0  0
M  END
> <s_m_entry_id>
372

> <s_m_entry_name>
dock_pv.371

> <s_m_Source_Path>
/home/csk/Desktop/cluster/DUD-E-result/kif11

> <s_m_Source_File>
dock_pv.maegz

> <i_m_Source_File_Index>
371

> <chembl_id>
CHEMBL1096003

> <chembl_pref_name>
None

> <i_lp_mmshare_version>
53161

> <i_f3d_flags>
0

> <r_lp_tautomer_probability>
1

> <s_lp_Force_Field>
OPLS_2005

> <r_lp_Energy>
27.293657

> <b_lp_Chiralities_Consistent>
1

> <s_lp_Variant>
CHEMBL4581_lig376-1

> <s_i_glide_gridfile>
glide-grid_3cjo

> <i_i_glide_lignum>
529

> <i_i_glide_rotatable_bonds>
7

> <r_i_docking_score>
-7.46183951498931

> <r_i_glide_ligand_efficiency>
-0.233182484843416

> <r_i_glide_ligand_efficiency_sa>
-0.740308242626757

> <r_i_glide_ligand_efficiency_ln>
-1.67090926946916

> <r_i_glide_gscore>
-7.46183951498931

> <r_i_glide_lipo>
-4.72521053368341

> <r_i_glide_hbond>
0

> <r_i_glide_metal>
0

> <r_i_glide_rewards>
-0.627646987164956

> <r_i_glide_evdw>
-43.5196113586426

> <r_i_glide_ecoul>
-3.04664921760559

> <r_i_glide_erotb>
0.523995956432021

> <r_i_glide_esite>
0

> <r_i_glide_emodel>
-64.4924175968235

> <r_i_glide_energy>
-46.5662605762482

> <r_i_glide_einternal>
6.21143341064453

> <i_i_glide_confnum>
3

> <i_i_glide_posenum>
114

> <r_i_glide_eff_state_penalty>
0

> <s_user_duplicate_titles>
CHEMBL4581_lig376,615946

> <s_m_subgroup_title>
dock_pv

> <s_m_subgroupid>
dock_pv

> <b_m_subgroup_collapsed>
1

$$$$
CHEMBL4581_lig554
                    3D
 Schrodinger Suite 2021-1.
 64 67  0  0  1  0            999 V2000
   18.5524   15.9876  105.9024 N   0  0  0  0  0  0
   18.1032   15.0523  106.6701 C   0  0  0  0  0  0
   18.9875   14.3621  107.5183 N   0  0  0  0  0  0
   20.3837   14.3620  107.3980 C   0  0  0  0  0  0
   19.8925   16.1478  105.7591 C   0  0  0  0  0  0
   20.8139   15.3196  106.3810 C   0  0  0  0  0  0
   22.4245   15.5716  105.7590 S   0  0  0  0  0  0
   21.8871   16.9613  104.8794 C   0  0  0  0  0  0
   20.5084   17.1195  104.9592 C   0  0  0  0  0  0
   21.1276   13.6497  108.0791 O   0  0  0  0  0  0
   16.5698   14.7201  106.6716 C   0  0  1  0  0  0
   15.7285   15.7742  105.9995 N   0  0  0  0  0  0
   16.3178   13.2692  106.1369 C   0  0  0  0  0  0
   15.1677   16.8263  106.6681 C   0  0  0  0  0  0
   15.4861   17.0532  108.1302 C   0  0  0  0  0  0
   14.3896   17.6188  106.1311 O   0  0  0  0  0  0
   15.3783   15.6040  104.5616 C   0  0  0  0  0  0
   16.2702   16.3515  103.5450 C   0  0  0  0  0  0
   18.4679   13.4907  108.6146 C   0  0  0  0  0  0
   18.5731   13.9816  110.0584 C   0  0  0  0  0  0
   18.0814   13.1469  111.0651 C   0  0  0  0  0  0
   18.1588   13.5311  112.3998 C   0  0  0  0  0  0
   18.7209   14.7614  112.7251 C   0  0  0  0  0  0
   19.1937   15.6114  111.7297 C   0  0  0  0  0  0
   19.1180   15.2236  110.3959 C   0  0  0  0  0  0
   14.8541   12.8064  106.2767 C   0  0  0  0  0  0
   16.2577   15.7388  102.1335 C   0  0  0  0  0  0
   16.7301   14.3614  102.1596 N   0  0  0  0  0  0
   16.7706   17.4764  108.4993 C   0  0  0  0  0  0
   17.0700   17.8052  109.8175 C   0  0  0  0  0  0
   16.0895   17.6900  110.7950 C   0  0  0  0  0  0
   14.8158   17.2409  110.4563 C   0  0  0  0  0  0
   14.5000   16.9187  109.1313 C   0  0  0  0  0  0
   13.0881   16.4303  108.8212 C   0  0  0  0  0  0
   22.5873   17.5494  104.3047 H   0  0  0  0  0  0
   19.9599   17.8757  104.4210 H   0  0  0  0  0  0
   16.2601   14.7060  107.7161 H   0  0  0  0  0  0
   16.6463   13.1764  105.1013 H   0  0  0  0  0  0
   16.9312   12.5292  106.6471 H   0  0  0  0  0  0
   15.3843   14.5531  104.3019 H   0  0  0  0  0  0
   14.3395   15.8889  104.3822 H   0  0  0  0  0  0
   15.9474   17.3923  103.4928 H   0  0  0  0  0  0
   17.3031   16.3937  103.8665 H   0  0  0  0  0  0
   17.4216   13.2318  108.4900 H   0  0  0  0  0  0
   18.9812   12.5291  108.5671 H   0  0  0  0  0  0
   17.6512   12.1871  110.8144 H   0  0  0  0  0  0
   17.7893   12.8771  113.1762 H   0  0  0  0  0  0
   18.7851   15.0629  113.7589 H   0  0  0  0  0  0
   19.6214   16.5692  111.9881 H   0  0  0  0  0  0
   19.4863   15.8940  109.6349 H   0  0  0  0  0  0
   14.7175   11.8149  105.8437 H   0  0  0  0  0  0
   14.5624   12.7603  107.3270 H   0  0  0  0  0  0
   14.1500   13.4715  105.7779 H   0  0  0  0  0  0
   15.2558   15.7743  101.7026 H   0  0  0  0  0  0
   16.9042   16.3212  101.4763 H   0  0  0  0  0  0
   17.4767   14.2587  102.8401 H   0  0  0  0  0  0
   15.9865   13.7695  102.5053 H   0  0  0  0  0  0
   17.5485   17.5746  107.7590 H   0  0  0  0  0  0
   18.0592   18.1530  110.0778 H   0  0  0  0  0  0
   16.3189   17.9601  111.8122 H   0  0  0  0  0  0
   14.0676   17.1626  111.2304 H   0  0  0  0  0  0
   13.1270   15.4894  108.2706 H   0  0  0  0  0  0
   12.4990   16.2582  109.7224 H   0  0  0  0  0  0
   12.5646   17.1556  108.1975 H   0  0  0  0  0  0
  1  5  1  0  0  0
  1  2  2  0  0  0
  2 11  1  0  0  0
  2  3  1  0  0  0
  3 19  1  0  0  0
  3  4  1  0  0  0
  4 10  2  0  0  0
  4  6  1  0  0  0
  5  9  1  0  0  0
  5  6  2  0  0  0
  6  7  1  0  0  0
  7  8  1  0  0  0
  8  9  2  0  0  0
  8 35  1  0  0  0
  9 36  1  0  0  0
 11 12  1  0  0  0
 11 13  1  0  0  0
 11 37  1  0  0  0
 12 17  1  0  0  0
 12 14  1  0  0  0
 13 26  1  0  0  0
 13 38  1  0  0  0
 13 39  1  0  0  0
 14 15  1  0  0  0
 14 16  2  0  0  0
 15 29  2  0  0  0
 15 33  1  0  0  0
 17 18  1  0  0  0
 17 40  1  0  0  0
 17 41  1  0  0  0
 18 27  1  0  0  0
 18 42  1  0  0  0
 18 43  1  0  0  0
 19 20  1  0  0  0
 19 44  1  0  0  0
 19 45  1  0  0  0
 20 21  2  0  0  0
 20 25  1  0  0  0
 21 22  1  0  0  0
 21 46  1  0  0  0
 22 23  2  0  0  0
 22 47  1  0  0  0
 23 24  1  0  0  0
 23 48  1  0  0  0
 24 25  2  0  0  0
 24 49  1  0  0  0
 25 50  1  0  0  0
 26 51  1  0  0  0
 26 52  1  0  0  0
 26 53  1  0  0  0
 27 28  1  0  0  0
 27 54  1  0  0  0
 27 55  1  0  0  0
 28 56  1  0  0  0
 28 57  1  0  0  0
 29 30  1  0  0  0
 29 58  1  0  0  0
 30 31  2  0  0  0
 30 59  1  0  0  0
 31 32  1  0  0  0
 31 60  1  0  0  0
 32 33  2  0  0  0
 32 61  1  0  0  0
 33 34  1  0  0  0
 34 62  1  0  0  0
 34 63  1  0  0  0
 34 64  1  0  0  0
M  END
> <s_m_entry_id>
373

> <s_m_entry_name>
dock_pv.372

> <s_m_Source_Path>
/home/csk/Desktop/cluster/DUD-E-result/kif11

> <s_m_Source_File>
dock_pv.maegz

> <i_m_Source_File_Index>
372

> <chembl_id>
CHEMBL1829405

> <chembl_pref_name>
None

> <i_lp_mmshare_version>
53161

> <i_f3d_flags>
0

> <r_lp_tautomer_probability>
1

> <s_lp_Force_Field>
OPLS_2005

> <r_lp_Energy>
59.017029

> <b_lp_Chiralities_Consistent>
1

> <s_lp_Variant>
CHEMBL4581_lig554-2

> <s_i_glide_gridfile>
glide-grid_3cjo

> <i_i_glide_lignum>
835

> <i_i_glide_rotatable_bonds>
10

> <r_i_docking_score>
-7.45979483915887

> <r_i_glide_ligand_efficiency>
-0.219405730563496

> <r_i_glide_ligand_efficiency_sa>
-0.71078939316591

> <r_i_glide_ligand_efficiency_ln>
-1.648077920128

> <r_i_glide_gscore>
-7.45979483915887

> <r_i_glide_lipo>
-4.19517959248426

> <r_i_glide_hbond>
-0.32

> <r_i_glide_metal>
0

> <r_i_glide_rewards>
-0.413839249402839

> <r_i_glide_evdw>
-46.8083839416504

> <r_i_glide_ecoul>
-6.05085039138794

> <r_i_glide_erotb>
0.718673234313142

> <r_i_glide_esite>
-0.00140247579420911

> <r_i_glide_emodel>
-66.9341879737524

> <r_i_glide_energy>
-52.8592343330383

> <r_i_glide_einternal>
12.9441032409668

> <i_i_glide_confnum>
138

> <i_i_glide_posenum>
213

> <r_i_glide_eff_state_penalty>
0

> <s_user_duplicate_titles>
CHEMBL4581_lig554

> <s_m_subgroup_title>
dock_pv

> <s_m_subgroupid>
dock_pv

> <b_m_subgroup_collapsed>
1

$$$$
CHEMBL4581_lig591
                    3D
 Schrodinger Suite 2021-1.
 47 49  0  0  1  0            999 V2000
   19.5194   15.3172  107.7658 C   0  0  0  0  0  0
   18.1559   15.4791  108.5101 C   0  0  2  0  0  0
   18.0384   14.5557  109.7675 C   0  0  0  0  0  0
   18.9424   14.7473  110.8262 C   0  0  0  0  0  0
   18.8788   13.9673  111.9781 C   0  0  0  0  0  0
   17.9177   12.9688  112.0797 C   0  0  0  0  0  0
   17.0112   12.7589  111.0461 C   0  0  0  0  0  0
   17.0545   13.5602  109.9099 C   0  0  0  0  0  0
   16.8930   15.1363  107.2056 S   0  0  0  0  0  0
   17.3054   13.4881  106.5587 C   0  0  0  0  0  0
   16.3441   12.9810  105.4687 C   0  0  0  0  0  0
   17.9567   16.9603  108.9998 C   0  0  0  0  0  0
   16.6615   17.3798  109.7289 C   0  0  0  0  0  0
   15.4682   16.6427  109.7133 C   0  0  0  0  0  0
   14.3082   17.1621  110.2791 C   0  0  0  0  0  0
   14.3334   18.4048  110.8974 C   0  0  0  0  0  0
   15.5165   19.1322  110.9588 C   0  0  0  0  0  0
   16.6760   18.6139  110.3816 C   0  0  0  0  0  0
   15.0162   12.7619  106.0146 N   0  0  0  0  0  0
   19.9108   16.2291  106.7679 C   0  0  0  0  0  0
   21.4600   13.9618  107.1636 C   0  0  0  0  0  0
   20.3421   14.1954  107.9685 C   0  0  0  0  0  0
   21.8093   14.8609  106.1590 C   0  0  0  0  0  0
   21.0393   16.0124  105.9739 C   0  0  0  0  0  0
   21.4383   17.1635  104.7475 Cl  0  0  0  0  0  0
   23.1986   14.5312  105.1856 Cl  0  0  0  0  0  0
   19.7064   15.5070  110.7590 H   0  0  0  0  0  0
   19.5789   14.1316  112.7839 H   0  0  0  0  0  0
   17.8761   12.3500  112.9643 H   0  0  0  0  0  0
   16.2695   11.9803  111.1331 H   0  0  0  0  0  0
   16.3053   13.3847  109.1543 H   0  0  0  0  0  0
   18.3122   13.5616  106.1590 H   0  0  0  0  0  0
   17.3727   12.7572  107.3623 H   0  0  0  0  0  0
   16.2915   13.6974  104.6469 H   0  0  0  0  0  0
   16.7171   12.0461  105.0507 H   0  0  0  0  0  0
   18.7975   17.2370  109.6379 H   0  0  0  0  0  0
   18.0205   17.6474  108.1593 H   0  0  0  0  0  0
   15.3945   15.6773  109.2475 H   0  0  0  0  0  0
   13.3843   16.6060  110.2290 H   0  0  0  0  0  0
   13.4332   18.8097  111.3354 H   0  0  0  0  0  0
   15.5194   20.0942  111.4505 H   0  0  0  0  0  0
   17.5982   19.1672  110.4261 H   0  0  0  0  0  0
   14.3991   12.4137  105.2958 H   0  0  0  0  0  0
   15.0823   12.0216  106.7077 H   0  0  0  0  0  0
   19.3152   17.1017  106.5583 H   0  0  0  0  0  0
   22.0503   13.0699  107.3165 H   0  0  0  0  0  0
   20.0876   13.4455  108.7026 H   0  0  0  0  0  0
  1 20  2  0  0  0
  1  2  1  0  0  0
  1 22  1  0  0  0
  2  9  1  0  0  0
  2  3  1  0  0  0
  2 12  1  0  0  0
  3  4  2  0  0  0
  3  8  1  0  0  0
  4  5  1  0  0  0
  4 27  1  0  0  0
  5  6  2  0  0  0
  5 28  1  0  0  0
  6  7  1  0  0  0
  6 29  1  0  0  0
  7  8  2  0  0  0
  7 30  1  0  0  0
  8 31  1  0  0  0
  9 10  1  0  0  0
 10 11  1  0  0  0
 10 32  1  0  0  0
 10 33  1  0  0  0
 11 19  1  0  0  0
 11 34  1  0  0  0
 11 35  1  0  0  0
 12 13  1  0  0  0
 12 36  1  0  0  0
 12 37  1  0  0  0
 13 14  2  0  0  0
 13 18  1  0  0  0
 14 15  1  0  0  0
 14 38  1  0  0  0
 15 16  2  0  0  0
 15 39  1  0  0  0
 16 17  1  0  0  0
 16 40  1  0  0  0
 17 18  2  0  0  0
 17 41  1  0  0  0
 18 42  1  0  0  0
 19 43  1  0  0  0
 19 44  1  0  0  0
 20 24  1  0  0  0
 20 45  1  0  0  0
 21 23  1  0  0  0
 21 22  2  0  0  0
 21 46  1  0  0  0
 22 47  1  0  0  0
 23 24  2  0  0  0
 23 26  1  0  0  0
 24 25  1  0  0  0
M  END
> <s_m_entry_id>
374

> <s_m_entry_name>
dock_pv.373

> <s_m_Source_Path>
/home/csk/Desktop/cluster/DUD-E-result/kif11

> <s_m_Source_File>
dock_pv.maegz

> <i_m_Source_File_Index>
373

> <chembl_id>
CHEMBL2043411

> <chembl_pref_name>
None

> <i_lp_mmshare_version>
53161

> <i_f3d_flags>
0

> <r_lp_tautomer_probability>
1

> <s_lp_Force_Field>
OPLS_2005

> <r_lp_Energy>
23.675086

> <b_lp_Chiralities_Consistent>
1

> <s_lp_Variant>
CHEMBL4581_lig591-2

> <s_i_glide_gridfile>
glide-grid_3cjo

> <i_i_glide_lignum>
907

> <i_i_glide_rotatable_bonds>
7

> <r_i_docking_score>
-7.45811596649975

> <r_i_glide_ligand_efficiency>
-0.286850614096144

> <r_i_glide_ligand_efficiency_sa>
-0.849793815557164

> <r_i_glide_ligand_efficiency_ln>
-1.75151406265795

> <r_i_glide_gscore>
-7.45811596649975

> <r_i_glide_lipo>
-4.75942902073574

> <r_i_glide_hbond>
-0.32

> <r_i_glide_metal>
0

> <r_i_glide_rewards>
-0.665589272727272

> <r_i_glide_evdw>
-41.4676704406738

> <r_i_glide_ecoul>
-2.44603037834167

> <r_i_glide_erotb>
0.727190405748205

> <r_i_glide_esite>
0

> <r_i_glide_emodel>
-61.8974204328358

> <r_i_glide_energy>
-43.9137008190155

> <r_i_glide_einternal>
6.54867315292358

> <i_i_glide_confnum>
30

> <i_i_glide_posenum>
45

> <r_i_glide_eff_state_penalty>
0

> <s_user_duplicate_titles>
CHEMBL4581_lig591

> <s_m_subgroup_title>
dock_pv

> <s_m_subgroupid>
dock_pv

> <b_m_subgroup_collapsed>
1

$$$$
CHEMBL4581_lig83
                    3D
 Schrodinger Suite 2021-1.
 42 44  0  0  1  0            999 V2000
   19.9411   16.0748  105.8313 C   0  0  0  0  0  0
   21.0574   15.3352  106.2090 C   0  0  0  0  0  0
   20.9680   14.4576  107.2858 C   0  0  0  0  0  0
   18.7453   15.9210  106.5283 C   0  0  0  0  0  0
   18.6512   15.0613  107.6306 C   0  0  0  0  0  0
   19.7919   14.3361  108.0297 C   0  0  0  0  0  0
   19.7496   13.3791  109.2239 C   0  0  0  0  0  0
   18.5057   13.4781  110.0138 N   0  0  0  0  0  0
   17.2732   13.6085  109.2154 C   0  0  0  0  0  0
   17.3501   14.9438  108.4311 C   0  0  1  0  0  0
   17.0695   16.1560  109.3299 C   0  0  0  0  0  0
   15.7554   16.4170  109.7369 C   0  0  0  0  0  0
   15.4718   17.5108  110.5516 C   0  0  0  0  0  0
   16.4961   18.3615  110.9586 C   0  0  0  0  0  0
   17.8086   18.1159  110.5596 C   0  0  0  0  0  0
   18.0917   17.0170  109.7535 C   0  0  0  0  0  0
   18.5753   13.7095  111.3554 C   0  0  0  0  0  0
   19.5125   14.3648  111.8227 O   0  0  0  0  0  0
   17.6452   13.1442  112.1830 N   0  0  0  0  0  0
   17.7086   13.3768  113.6331 C   0  0  0  0  0  0
   16.7624   12.0189  111.8333 C   0  0  0  0  0  0
   14.1881   17.7453  110.9594 O   0  0  0  0  0  0
   22.5504   15.5132  105.3586 Cl  0  0  0  0  0  0
   20.0004   16.7605  104.9986 H   0  0  0  0  0  0
   21.8395   13.8816  107.5640 H   0  0  0  0  0  0
   17.8768   16.4865  106.2215 H   0  0  0  0  0  0
   19.8114   12.3629  108.8408 H   0  0  0  0  0  0
   20.6406   13.5178  109.8373 H   0  0  0  0  0  0
   17.2333   12.7633  108.5254 H   0  0  0  0  0  0
   16.3603   13.5366  109.7960 H   0  0  0  0  0  0
   16.5379   14.9380  107.7011 H   0  0  0  0  0  0
   14.9523   15.7655  109.4286 H   0  0  0  0  0  0
   16.2896   19.2054  111.5982 H   0  0  0  0  0  0
   18.6062   18.7693  110.8853 H   0  0  0  0  0  0
   19.1177   16.8407  109.4686 H   0  0  0  0  0  0
   18.2701   14.2757  113.8854 H   0  0  0  0  0  0
   16.7177   13.4939  114.0625 H   0  0  0  0  0  0
   18.1862   12.5310  114.1301 H   0  0  0  0  0  0
   17.2904   11.2628  111.2477 H   0  0  0  0  0  0
   16.3238   11.5368  112.7122 H   0  0  0  0  0  0
   15.9079   12.3625  111.2582 H   0  0  0  0  0  0
   14.1215   18.5405  111.4940 H   0  0  0  0  0  0
  1  2  2  0  0  0
  1  4  1  0  0  0
  1 24  1  0  0  0
  2  3  1  0  0  0
  2 23  1  0  0  0
  3  6  2  0  0  0
  3 25  1  0  0  0
  4  5  2  0  0  0
  4 26  1  0  0  0
  5 10  1  0  0  0
  5  6  1  0  0  0
  6  7  1  0  0  0
  7  8  1  0  0  0
  7 27  1  0  0  0
  7 28  1  0  0  0
  8 17  1  0  0  0
  8  9  1  0  0  0
  9 10  1  0  0  0
  9 29  1  0  0  0
  9 30  1  0  0  0
 10 11  1  0  0  0
 10 31  1  0  0  0
 11 12  2  0  0  0
 11 16  1  0  0  0
 12 13  1  0  0  0
 12 32  1  0  0  0
 13 14  2  0  0  0
 13 22  1  0  0  0
 14 15  1  0  0  0
 14 33  1  0  0  0
 15 16  2  0  0  0
 15 34  1  0  0  0
 16 35  1  0  0  0
 17 18  2  0  0  0
 17 19  1  0  0  0
 19 20  1  0  0  0
 19 21  1  0  0  0
 20 36  1  0  0  0
 20 37  1  0  0  0
 20 38  1  0  0  0
 21 39  1  0  0  0
 21 40  1  0  0  0
 21 41  1  0  0  0
 22 42  1  0  0  0
M  END
> <s_m_entry_id>
375

> <s_m_entry_name>
dock_pv.374

> <s_m_Source_Path>
/home/csk/Desktop/cluster/DUD-E-result/kif11

> <s_m_Source_File>
dock_pv.maegz

> <i_m_Source_File_Index>
374

> <chembl_id>
CHEMBL205928

> <chembl_pref_name>
None

> <i_lp_mmshare_version>
53161

> <i_f3d_flags>
0

> <r_lp_tautomer_probability>
0.999999999997365

> <s_lp_Force_Field>
OPLS_2005

> <r_lp_Energy>
46.009219

> <b_lp_Chiralities_Consistent>
1

> <s_lp_Variant>
CHEMBL4581_lig83-2

> <s_i_glide_gridfile>
glide-grid_3cjo

> <i_i_glide_lignum>
132

> <i_i_glide_rotatable_bonds>
4

> <r_i_docking_score>
-7.45505228280569

> <r_i_glide_ligand_efficiency>
-0.324132707948073

> <r_i_glide_ligand_efficiency_sa>
-0.921790304259975

> <r_i_glide_ligand_efficiency_ln>
-1.80269924065913

> <r_i_glide_gscore>
-7.45505228280569

> <r_i_glide_lipo>
-3.86401739317356

> <r_i_glide_hbond>
0

> <r_i_glide_metal>
0

> <r_i_glide_rewards>
-1.6756104784418

> <r_i_glide_evdw>
-39.4415664672852

> <r_i_glide_ecoul>
-1.91446352005005

> <r_i_glide_erotb>
0.34382344018144

> <r_i_glide_esite>
0

> <r_i_glide_emodel>
-58.3232945801213

> <r_i_glide_energy>
-41.3560299873352

> <r_i_glide_einternal>
2.963130235672

> <i_i_glide_confnum>
27

> <i_i_glide_posenum>
226

> <r_i_glide_eff_state_penalty>
0

> <s_user_duplicate_titles>
CHEMBL4581_lig83

> <s_m_subgroup_title>
dock_pv

> <s_m_subgroupid>
dock_pv

> <b_m_subgroup_collapsed>
1

$$$$
CHEMBL4581_lig87
                    3D
 Schrodinger Suite 2021-1.
 59 62  0  0  1  0            999 V2000
   12.5643   13.5588  106.7419 C   0  0  0  0  0  0
   12.7743   13.0442  105.4650 C   0  0  0  0  0  0
   14.0726   12.8396  105.0070 C   0  0  0  0  0  0
   15.1583   13.1487  105.8236 C   0  0  0  0  0  0
   14.9669   13.6826  107.1105 C   0  0  0  0  0  0
   13.6457   13.8765  107.5646 C   0  0  0  0  0  0
   13.3692   14.3616  108.7972 F   0  0  0  0  0  0
   14.2787   12.3604  103.7610 F   0  0  0  0  0  0
   16.1541   14.0617  107.9082 C   0  0  0  0  0  0
   17.3457   13.6968  107.6722 N   0  0  0  0  0  0
   18.2268   14.4298  108.4085 N   0  0  0  0  0  0
   17.5632   15.1896  109.4928 C   0  0  1  0  0  0
   16.0980   15.0520  109.0379 C   0  0  0  0  0  0
   17.8613   14.4844  110.8550 C   0  0  0  0  0  0
   17.2587   13.2500  111.1513 C   0  0  0  0  0  0
   17.5179   12.5928  112.3502 C   0  0  0  0  0  0
   18.3945   13.1575  113.2701 C   0  0  0  0  0  0
   19.0258   14.3623  112.9860 C   0  0  0  0  0  0
   18.7627   15.0227  111.7876 C   0  0  0  0  0  0
   19.5682   14.3609  108.1753 C   0  0  0  0  0  0
   20.0203   14.6646  106.9208 N   0  0  0  0  0  0
   20.3439   14.0687  109.0882 O   0  0  0  0  0  0
   17.9899   16.7074  109.4285 C   0  0  0  0  0  0
   17.3324   17.7150  110.4118 C   0  0  0  0  0  0
   15.8585   18.0561  110.1311 C   0  0  0  0  0  0
   15.4101   19.1576  110.9589 N   0  0  0  0  0  0
   19.1940   15.2496  105.8487 C   0  0  0  0  0  0
   19.5641   16.7203  105.7320 C   0  0  0  0  0  0
   21.0561   16.9075  105.4101 C   0  0  0  0  0  0
   21.9196   16.1256  106.4116 C   0  0  0  0  0  0
   21.4612   14.6509  106.5934 C   0  0  0  0  0  0
   11.5563   13.7118  107.0976 H   0  0  0  0  0  0
   11.9362   12.7995  104.8308 H   0  0  0  0  0  0
   16.1537   12.9803  105.4330 H   0  0  0  0  0  0
   15.4504   14.7328  109.8523 H   0  0  0  0  0  0
   15.6978   15.9749  108.6222 H   0  0  0  0  0  0
   16.5869   12.7812  110.4476 H   0  0  0  0  0  0
   17.0372   11.6482  112.5631 H   0  0  0  0  0  0
   18.5990   12.6473  114.2009 H   0  0  0  0  0  0
   19.7277   14.7802  113.6942 H   0  0  0  0  0  0
   19.2857   15.9460  111.5955 H   0  0  0  0  0  0
   19.0714   16.7800  109.5540 H   0  0  0  0  0  0
   17.8185   17.0794  108.4175 H   0  0  0  0  0  0
   17.4291   17.3606  111.4318 H   0  0  0  0  0  0
   17.9159   18.6380  110.3657 H   0  0  0  0  0  0
   15.7187   18.3274  109.0837 H   0  0  0  0  0  0
   15.2153   17.2027  110.3494 H   0  0  0  0  0  0
   15.5424   18.9378  111.9406 H   0  0  0  0  0  0
   15.9515   19.9903  110.7736 H   0  0  0  0  0  0
   19.5105   14.7619  104.9429 H   0  0  0  0  0  0
   18.1289   15.0386  105.8752 H   0  0  0  0  0  0
   18.9463   17.1679  104.9574 H   0  0  0  0  0  0
   19.3144   17.1700  106.6868 H   0  0  0  0  0  0
   21.3185   17.9614  105.4388 H   0  0  0  0  0  0
   21.2719   16.5670  104.3995 H   0  0  0  0  0  0
   21.8886   16.6594  107.3590 H   0  0  0  0  0  0
   22.9628   16.1451  106.0967 H   0  0  0  0  0  0
   22.0473   14.0678  107.3046 H   0  0  0  0  0  0
   21.5651   14.1178  105.6491 H   0  0  0  0  0  0
  1  6  1  0  0  0
  1  2  2  0  0  0
  1 32  1  0  0  0
  2  3  1  0  0  0
  2 33  1  0  0  0
  3  4  2  0  0  0
  3  8  1  0  0  0
  4  5  1  0  0  0
  4 34  1  0  0  0
  5  9  1  0  0  0
  5  6  2  0  0  0
  6  7  1  0  0  0
  9 10  2  0  0  0
  9 13  1  0  0  0
 10 11  1  0  0  0
 11 20  1  0  0  0
 11 12  1  0  0  0
 12 23  1  0  0  0
 12 13  1  0  0  0
 12 14  1  0  0  0
 13 35  1  0  0  0
 13 36  1  0  0  0
 14 15  2  0  0  0
 14 19  1  0  0  0
 15 16  1  0  0  0
 15 37  1  0  0  0
 16 17  2  0  0  0
 16 38  1  0  0  0
 17 18  1  0  0  0
 17 39  1  0  0  0
 18 19  2  0  0  0
 18 40  1  0  0  0
 19 41  1  0  0  0
 20 21  1  0  0  0
 20 22  2  0  0  0
 21 27  1  0  0  0
 21 31  1  0  0  0
 23 24  1  0  0  0
 23 42  1  0  0  0
 23 43  1  0  0  0
 24 25  1  0  0  0
 24 44  1  0  0  0
 24 45  1  0  0  0
 25 26  1  0  0  0
 25 46  1  0  0  0
 25 47  1  0  0  0
 26 48  1  0  0  0
 26 49  1  0  0  0
 27 28  1  0  0  0
 27 50  1  0  0  0
 27 51  1  0  0  0
 28 29  1  0  0  0
 28 52  1  0  0  0
 28 53  1  0  0  0
 29 30  1  0  0  0
 29 54  1  0  0  0
 29 55  1  0  0  0
 30 31  1  0  0  0
 30 56  1  0  0  0
 30 57  1  0  0  0
 31 58  1  0  0  0
 31 59  1  0  0  0
M  END
> <s_m_entry_id>
376

> <s_m_entry_name>
dock_pv.375

> <s_m_Source_Path>
/home/csk/Desktop/cluster/DUD-E-result/kif11

> <s_m_Source_File>
dock_pv.maegz

> <i_m_Source_File_Index>
375

> <chembl_id>
CHEMBL381985

> <chembl_pref_name>
None

> <i_lp_mmshare_version>
53161

> <i_f3d_flags>
0

> <r_lp_tautomer_probability>
1

> <s_lp_Force_Field>
OPLS_2005

> <r_lp_Energy>
66.271035

> <b_lp_Chiralities_Consistent>
1

> <s_lp_Variant>
CHEMBL4581_lig87-2

> <s_i_glide_gridfile>
glide-grid_3cjo

> <i_i_glide_lignum>
139

> <i_i_glide_rotatable_bonds>
7

> <r_i_docking_score>
-7.45259352792972

> <r_i_glide_ligand_efficiency>
-0.240406242836443

> <r_i_glide_ligand_efficiency_sa>
-0.75520751909605

> <r_i_glide_ligand_efficiency_ln>
-1.68078823511063

> <r_i_glide_gscore>
-7.45259352792972

> <r_i_glide_lipo>
-3.66919528053268

> <r_i_glide_hbond>
-0.32

> <r_i_glide_metal>
0

> <r_i_glide_rewards>
-1.50478473660194

> <r_i_glide_evdw>
-44.392765045166

> <r_i_glide_ecoul>
-2.62403607368469

> <r_i_glide_erotb>
0.654630152515911

> <r_i_glide_esite>
0

> <r_i_glide_emodel>
-62.6658934328645

> <r_i_glide_energy>
-47.0168011188507

> <r_i_glide_einternal>
9.12746715545654

> <i_i_glide_confnum>
12

> <i_i_glide_posenum>
140

> <r_i_glide_eff_state_penalty>
0

> <s_user_duplicate_titles>
CHEMBL4581_lig87

> <s_m_subgroup_title>
dock_pv

> <s_m_subgroupid>
dock_pv

> <b_m_subgroup_collapsed>
1

$$$$
CHEMBL4581_lig377
                    3D
 Schrodinger Suite 2021-1.
 39 42  0  0  1  0            999 V2000
   17.5201   12.7534  112.6420 C   0  0  0  0  0  0
   18.5415   13.6459  112.9536 C   0  0  0  0  0  0
   19.1601   14.3732  111.9388 C   0  0  0  0  0  0
   17.1143   12.6033  111.3174 C   0  0  0  0  0  0
   17.7085   13.3357  110.2819 C   0  0  0  0  0  0
   18.7558   14.2237  110.6090 C   0  0  0  0  0  0
   19.5174   14.8627  109.6090 N   0  0  0  0  0  0
   19.4619   14.2983  108.2608 C   0  0  1  0  0  0
   17.2579   13.1508  108.8268 C   0  0  2  0  0  0
   17.9670   14.1382  107.8512 C   0  0  1  0  0  0
   17.1915   15.4702  107.6430 C   0  0  0  0  0  0
   15.6701   15.2832  107.6232 C   0  0  0  0  0  0
   15.2057   14.4480  108.8212 C   0  0  0  0  0  0
   15.8264   13.1698  108.7674 O   0  0  0  0  0  0
   20.3753   14.9733  107.2289 C   0  0  0  0  0  0
   21.3712   14.2177  106.5958 C   0  0  0  0  0  0
   22.2331   14.8053  105.6750 C   0  0  0  0  0  0
   22.0789   16.1527  105.3597 C   0  0  0  0  0  0
   21.0949   16.9145  105.9764 C   0  0  0  0  0  0
   20.2579   16.3361  106.9281 C   0  0  0  0  0  0
   17.9316   13.6360  106.8840 H   0  0  0  0  0  0
   17.5240   12.1374  108.5301 H   0  0  0  0  0  0
   17.0462   12.1738  113.4220 H   0  0  0  0  0  0
   18.8687   13.7581  113.9765 H   0  0  0  0  0  0
   19.9749   15.0396  112.1871 H   0  0  0  0  0  0
   16.3243   11.9015  111.0878 H   0  0  0  0  0  0
   20.3951   15.3055  109.8393 H   0  0  0  0  0  0
   19.8708   13.2917  108.3667 H   0  0  0  0  0  0
   17.5495   16.0170  106.7713 H   0  0  0  0  0  0
   17.3879   16.1171  108.4993 H   0  0  0  0  0  0
   15.3801   14.7835  106.6966 H   0  0  0  0  0  0
   15.1719   16.2516  107.6206 H   0  0  0  0  0  0
   14.1237   14.3058  108.7837 H   0  0  0  0  0  0
   15.4296   14.9483  109.7642 H   0  0  0  0  0  0
   21.4984   13.1680  106.8198 H   0  0  0  0  0  0
   22.9935   14.2129  105.1856 H   0  0  0  0  0  0
   22.7188   16.6067  104.6192 H   0  0  0  0  0  0
   20.9835   17.9614  105.7359 H   0  0  0  0  0  0
   19.5244   16.9467  107.4272 H   0  0  0  0  0  0
  1  2  2  0  0  0
  1  4  1  0  0  0
  1 23  1  0  0  0
  2  3  1  0  0  0
  2 24  1  0  0  0
  3  6  2  0  0  0
  3 25  1  0  0  0
  4  5  2  0  0  0
  4 26  1  0  0  0
  5  6  1  0  0  0
  5  9  1  0  0  0
  6  7  1  0  0  0
  7  8  1  0  0  0
  7 27  1  0  0  0
  8 10  1  0  0  0
  8 15  1  0  0  0
  8 28  1  0  0  0
  9 14  1  0  0  0
  9 10  1  0  0  0
  9 22  1  0  0  0
 10 11  1  0  0  0
 10 21  1  0  0  0
 11 12  1  0  0  0
 11 29  1  0  0  0
 11 30  1  0  0  0
 12 13  1  0  0  0
 12 31  1  0  0  0
 12 32  1  0  0  0
 13 14  1  0  0  0
 13 33  1  0  0  0
 13 34  1  0  0  0
 15 16  2  0  0  0
 15 20  1  0  0  0
 16 17  1  0  0  0
 16 35  1  0  0  0
 17 18  2  0  0  0
 17 36  1  0  0  0
 18 19  1  0  0  0
 18 37  1  0  0  0
 19 20  2  0  0  0
 19 38  1  0  0  0
 20 39  1  0  0  0
M  END
> <s_m_entry_id>
377

> <s_m_entry_name>
dock_pv.376

> <s_m_Source_Path>
/home/csk/Desktop/cluster/DUD-E-result/kif11

> <s_m_Source_File>
dock_pv.maegz

> <i_m_Source_File_Index>
376

> <chembl_id>
CHEMBL1096004

> <chembl_pref_name>
None

> <i_lp_mmshare_version>
53161

> <i_f3d_flags>
0

> <r_lp_tautomer_probability>
1

> <s_lp_Force_Field>
OPLS_2005

> <r_lp_Energy>
27.159275

> <b_lp_Chiralities_Consistent>
1

> <s_lp_Variant>
CHEMBL4581_lig377-2

> <s_i_glide_gridfile>
glide-grid_3cjo

> <i_i_glide_lignum>
531

> <i_i_glide_rotatable_bonds>
1

> <r_i_docking_score>
-7.45215571382081

> <r_i_glide_ligand_efficiency>
-0.372607785691041

> <r_i_glide_ligand_efficiency_sa>
-1.01141313655021

> <r_i_glide_ligand_efficiency_ln>
-1.86502878662401

> <r_i_glide_gscore>
-7.45215571382081

> <r_i_glide_lipo>
-4.2464053814628

> <r_i_glide_hbond>
0

> <r_i_glide_metal>
0

> <r_i_glide_rewards>
-1.69155603030303

> <r_i_glide_evdw>
-36.0166511535645

> <r_i_glide_ecoul>
0.226123601198196

> <r_i_glide_erotb>
0.252719715443509

> <r_i_glide_esite>
0

> <r_i_glide_emodel>
-49.3110478146787

> <r_i_glide_energy>
-35.7905275523663

> <r_i_glide_einternal>
2.40608978271484

> <i_i_glide_confnum>
2

> <i_i_glide_posenum>
111

> <r_i_glide_eff_state_penalty>
0

> <s_user_duplicate_titles>
CHEMBL4581_lig377

> <s_m_subgroup_title>
dock_pv

> <s_m_subgroupid>
dock_pv

> <b_m_subgroup_collapsed>
1

$$$$
CHEMBL4581_lig849
                    3D
 Schrodinger Suite 2021-1.
 54 56  0  0  1  0            999 V2000
   16.7216   18.7667  110.2893 C   0  0  0  0  0  0
   15.4925   19.1532  110.9593 N   0  0  0  0  0  0
   16.7981   17.2496  110.1381 C   0  0  0  0  0  0
   18.1093   16.7400  108.9943 S   0  0  0  0  0  0
   18.1687   14.8831  108.9045 C   0  0  0  0  0  0
   16.9069   14.4008  108.1050 C   0  0  0  0  0  0
   19.4891   14.5581  108.1282 C   0  0  0  0  0  0
   18.2191   14.2952  110.3547 C   0  0  0  0  0  0
   16.9950   13.7722  106.8485 C   0  0  0  0  0  0
   15.8566   13.3556  106.1609 C   0  0  0  0  0  0
   14.5917   13.5768  106.6992 C   0  0  0  0  0  0
   14.4622   14.2123  107.9368 C   0  0  0  0  0  0
   15.6183   14.5620  108.6451 C   0  0  0  0  0  0
   17.4663   13.1642  110.7205 C   0  0  0  0  0  0
   17.5179   12.6574  112.0164 C   0  0  0  0  0  0
   18.3329   13.2647  112.9658 C   0  0  0  0  0  0
   19.1070   14.3698  112.6243 C   0  0  0  0  0  0
   19.0517   14.8785  111.3283 C   0  0  0  0  0  0
   20.3786   13.5622  108.5652 C   0  0  0  0  0  0
   21.5228   13.2586  107.8329 C   0  0  0  0  0  0
   21.8162   13.9618  106.6694 C   0  0  0  0  0  0
   20.9756   14.9784  106.2342 C   0  0  0  0  0  0
   19.8207   15.2659  106.9545 C   0  0  0  0  0  0
   13.0953   14.4976  108.5098 C   0  0  0  0  0  0
   12.3100   13.5626  108.6739 O   0  0  0  0  0  0
   12.7912   15.7781  108.8544 N   0  0  0  0  0  0
   13.4976   16.9713  108.3765 C   0  0  0  0  0  0
   11.6232   16.1001  109.6768 C   0  0  0  0  0  0
   17.5853   19.1602  110.8275 H   0  0  0  0  0  0
   16.7235   19.2369  109.3049 H   0  0  0  0  0  0
   15.5243   18.8563  111.9294 H   0  0  0  0  0  0
   15.4233   20.1632  110.9871 H   0  0  0  0  0  0
   15.8421   16.9321  109.7339 H   0  0  0  0  0  0
   16.9290   16.7662  111.1103 H   0  0  0  0  0  0
   17.9415   13.5687  106.3725 H   0  0  0  0  0  0
   15.9610   12.8617  105.2047 H   0  0  0  0  0  0
   13.7184   13.2655  106.1430 H   0  0  0  0  0  0
   15.5087   14.9451  109.6463 H   0  0  0  0  0  0
   16.8440   12.6478  110.0040 H   0  0  0  0  0  0
   16.9255   11.7923  112.2800 H   0  0  0  0  0  0
   18.3762   12.8665  113.9711 H   0  0  0  0  0  0
   19.7537   14.8267  113.3600 H   0  0  0  0  0  0
   19.6724   15.7268  111.0769 H   0  0  0  0  0  0
   20.1782   12.9741  109.4503 H   0  0  0  0  0  0
   22.1806   12.4698  108.1578 H   0  0  0  0  0  0
   22.7012   13.7153  106.1011 H   0  0  0  0  0  0
   21.2053   15.5221  105.3307 H   0  0  0  0  0  0
   19.1664   16.0392  106.5756 H   0  0  0  0  0  0
   14.3700   16.7541  107.7603 H   0  0  0  0  0  0
   13.8216   17.5867  109.2172 H   0  0  0  0  0  0
   12.8223   17.5769  107.7708 H   0  0  0  0  0  0
   11.0905   15.2164  110.0328 H   0  0  0  0  0  0
   11.9280   16.6720  110.5540 H   0  0  0  0  0  0
   10.9248   16.7129  109.1090 H   0  0  0  0  0  0
  1  3  1  0  0  0
  1  2  1  0  0  0
  1 29  1  0  0  0
  1 30  1  0  0  0
  2 31  1  0  0  0
  2 32  1  0  0  0
  3  4  1  0  0  0
  3 33  1  0  0  0
  3 34  1  0  0  0
  4  5  1  0  0  0
  5  8  1  0  0  0
  5  6  1  0  0  0
  5  7  1  0  0  0
  6  9  2  0  0  0
  6 13  1  0  0  0
  7 19  2  0  0  0
  7 23  1  0  0  0
  8 14  2  0  0  0
  8 18  1  0  0  0
  9 10  1  0  0  0
  9 35  1  0  0  0
 10 11  2  0  0  0
 10 36  1  0  0  0
 11 12  1  0  0  0
 11 37  1  0  0  0
 12 24  1  0  0  0
 12 13  2  0  0  0
 13 38  1  0  0  0
 14 15  1  0  0  0
 14 39  1  0  0  0
 15 16  2  0  0  0
 15 40  1  0  0  0
 16 17  1  0  0  0
 16 41  1  0  0  0
 17 18  2  0  0  0
 17 42  1  0  0  0
 18 43  1  0  0  0
 19 20  1  0  0  0
 19 44  1  0  0  0
 20 21  2  0  0  0
 20 45  1  0  0  0
 21 22  1  0  0  0
 21 46  1  0  0  0
 22 23  2  0  0  0
 22 47  1  0  0  0
 23 48  1  0  0  0
 24 25  2  0  0  0
 24 26  1  0  0  0
 26 27  1  0  0  0
 26 28  1  0  0  0
 27 49  1  0  0  0
 27 50  1  0  0  0
 27 51  1  0  0  0
 28 52  1  0  0  0
 28 53  1  0  0  0
 28 54  1  0  0  0
M  END
> <s_m_entry_id>
378

> <s_m_entry_name>
dock_pv.377

> <s_m_Source_Path>
/home/csk/Desktop/cluster/DUD-E-result/kif11

> <s_m_Source_File>
dock_pv.maegz

> <i_m_Source_File_Index>
377

> <chembl_id>
CHEMBL2024127

> <chembl_pref_name>
None

> <i_lp_mmshare_version>
53161

> <i_f3d_flags>
0

> <r_lp_tautomer_probability>
1

> <s_lp_Force_Field>
OPLS_2005

> <r_lp_Energy>
37.272171

> <b_lp_Chiralities_Consistent>
1

> <s_lp_Variant>
CHEMBL4581_lig849-1

> <s_i_glide_gridfile>
glide-grid_3cjo

> <i_i_glide_lignum>
1236

> <i_i_glide_rotatable_bonds>
8

> <r_i_docking_score>
-7.448805450145

> <r_i_glide_ligand_efficiency>
-0.266028766076607

> <r_i_glide_ligand_efficiency_sa>
-0.807820016372642

> <r_i_glide_ligand_efficiency_ln>
-1.71940300432487

> <r_i_glide_gscore>
-7.448805450145

> <r_i_glide_lipo>
-4.24441746136236

> <r_i_glide_hbond>
-0.395781467110891

> <r_i_glide_metal>
0

> <r_i_glide_rewards>
-0.873959469863594

> <r_i_glide_evdw>
-42.2761840820312

> <r_i_glide_ecoul>
-3.92101454734802

> <r_i_glide_erotb>
0.767314334395614

> <r_i_glide_esite>
0

> <r_i_glide_emodel>
-60.8926319889797

> <r_i_glide_energy>
-46.1971986293793

> <r_i_glide_einternal>
6.6293158531189

> <i_i_glide_confnum>
56

> <i_i_glide_posenum>
329

> <r_i_glide_eff_state_penalty>
0

> <s_user_duplicate_titles>
CHEMBL4581_lig849

> <s_m_subgroup_title>
dock_pv

> <s_m_subgroupid>
dock_pv

> <b_m_subgroup_collapsed>
1

$$$$
CHEMBL4581_lig554
                    3D
 Schrodinger Suite 2021-1.
 64 67  0  0  1  0            999 V2000
   19.0520   16.2510  107.3678 N   0  0  0  0  0  0
   18.5178   16.0297  108.5290 C   0  0  0  0  0  0
   19.0407   15.0425  109.3800 N   0  0  0  0  0  0
   19.9867   14.0848  109.0131 C   0  0  0  0  0  0
   20.1215   15.4926  106.9891 C   0  0  0  0  0  0
   20.5744   14.3973  107.7220 C   0  0  0  0  0  0
   21.9178   13.5621  106.9654 S   0  0  0  0  0  0
   21.9673   14.8007  105.7543 C   0  0  0  0  0  0
   20.9425   15.7365  105.8828 C   0  0  0  0  0  0
   20.3331   13.1621  109.7457 O   0  0  0  0  0  0
   17.2561   16.8660  108.9644 C   0  0  2  0  0  0
   16.1451   16.8290  107.9223 N   0  0  0  0  0  0
   17.7844   18.2786  109.4287 C   0  0  0  0  0  0
   15.2661   17.8439  107.6223 C   0  0  0  0  0  0
   14.8869   18.8883  108.6453 C   0  0  0  0  0  0
   14.7138   17.9366  106.5244 O   0  0  0  0  0  0
   15.9938   15.5761  107.1122 C   0  0  0  0  0  0
   14.5992   14.8975  107.0515 C   0  0  0  0  0  0
   18.8342   15.1393  110.8503 C   0  0  0  0  0  0
   18.2387   13.9781  111.6202 C   0  0  0  0  0  0
   18.4624   13.9369  112.9974 C   0  0  0  0  0  0
   17.8977   12.9230  113.7589 C   0  0  0  0  0  0
   17.1180   11.9620  113.1265 C   0  0  0  0  0  0
   16.9293   11.9730  111.7473 C   0  0  0  0  0  0
   17.4762   12.9950  110.9893 C   0  0  0  0  0  0
   18.6522   18.3049  110.7005 C   0  0  0  0  0  0
   14.2449   14.0458  108.2811 C   0  0  0  0  0  0
   12.8744   13.5753  108.1590 N   0  0  0  0  0  0
   15.1112   20.2373  108.3276 C   0  0  0  0  0  0
   14.8527   21.2434  109.2562 C   0  0  0  0  0  0
   14.3343   20.9175  110.5061 C   0  0  0  0  0  0
   14.0491   19.5898  110.8158 C   0  0  0  0  0  0
   14.3068   18.5691  109.8934 C   0  0  0  0  0  0
   13.8820   17.1562  110.2617 C   0  0  0  0  0  0
   22.7187   14.7534  104.9796 H   0  0  0  0  0  0
   20.7895   16.5612  105.2024 H   0  0  0  0  0  0
   16.7823   16.3922  109.8199 H   0  0  0  0  0  0
   18.3150   18.7615  108.6073 H   0  0  0  0  0  0
   16.9985   18.9615  109.7086 H   0  0  0  0  0  0
   16.3274   15.8003  106.0975 H   0  0  0  0  0  0
   16.6756   14.8002  107.4550 H   0  0  0  0  0  0
   13.8147   15.6248  106.8437 H   0  0  0  0  0  0
   14.6033   14.2293  106.1884 H   0  0  0  0  0  0
   19.7969   15.3869  111.3009 H   0  0  0  0  0  0
   18.1810   15.9556  111.1225 H   0  0  0  0  0  0
   19.0584   14.6971  113.4820 H   0  0  0  0  0  0
   18.0487   12.8874  114.8295 H   0  0  0  0  0  0
   16.6456   11.1860  113.7110 H   0  0  0  0  0  0
   16.3244   11.2146  111.2703 H   0  0  0  0  0  0
   17.3064   13.0155  109.9227 H   0  0  0  0  0  0
   19.0349   19.2926  110.9276 H   0  0  0  0  0  0
   18.0778   18.0024  111.5734 H   0  0  0  0  0  0
   19.5180   17.6619  110.6143 H   0  0  0  0  0  0
   14.9199   13.1919  108.3613 H   0  0  0  0  0  0
   14.3505   14.6140  109.2051 H   0  0  0  0  0  0
   12.2495   14.3604  108.0300 H   0  0  0  0  0  0
   12.7869   13.0026  107.3298 H   0  0  0  0  0  0
   15.5183   20.5152  107.3655 H   0  0  0  0  0  0
   15.0583   22.2753  109.0126 H   0  0  0  0  0  0
   14.1394   21.6989  111.2275 H   0  0  0  0  0  0
   13.6156   19.3592  111.7784 H   0  0  0  0  0  0
   13.5023   16.6316  109.3869 H   0  0  0  0  0  0
   14.7107   16.5938  110.6893 H   0  0  0  0  0  0
   13.0522   17.1656  110.9658 H   0  0  0  0  0  0
  1  5  1  0  0  0
  1  2  2  0  0  0
  2 11  1  0  0  0
  2  3  1  0  0  0
  3 19  1  0  0  0
  3  4  1  0  0  0
  4 10  2  0  0  0
  4  6  1  0  0  0
  5  9  1  0  0  0
  5  6  2  0  0  0
  6  7  1  0  0  0
  7  8  1  0  0  0
  8  9  2  0  0  0
  8 35  1  0  0  0
  9 36  1  0  0  0
 11 12  1  0  0  0
 11 13  1  0  0  0
 11 37  1  0  0  0
 12 17  1  0  0  0
 12 14  1  0  0  0
 13 26  1  0  0  0
 13 38  1  0  0  0
 13 39  1  0  0  0
 14 15  1  0  0  0
 14 16  2  0  0  0
 15 29  2  0  0  0
 15 33  1  0  0  0
 17 18  1  0  0  0
 17 40  1  0  0  0
 17 41  1  0  0  0
 18 27  1  0  0  0
 18 42  1  0  0  0
 18 43  1  0  0  0
 19 20  1  0  0  0
 19 44  1  0  0  0
 19 45  1  0  0  0
 20 21  2  0  0  0
 20 25  1  0  0  0
 21 22  1  0  0  0
 21 46  1  0  0  0
 22 23  2  0  0  0
 22 47  1  0  0  0
 23 24  1  0  0  0
 23 48  1  0  0  0
 24 25  2  0  0  0
 24 49  1  0  0  0
 25 50  1  0  0  0
 26 51  1  0  0  0
 26 52  1  0  0  0
 26 53  1  0  0  0
 27 28  1  0  0  0
 27 54  1  0  0  0
 27 55  1  0  0  0
 28 56  1  0  0  0
 28 57  1  0  0  0
 29 30  1  0  0  0
 29 58  1  0  0  0
 30 31  2  0  0  0
 30 59  1  0  0  0
 31 32  1  0  0  0
 31 60  1  0  0  0
 32 33  2  0  0  0
 32 61  1  0  0  0
 33 34  1  0  0  0
 34 62  1  0  0  0
 34 63  1  0  0  0
 34 64  1  0  0  0
M  END
> <s_m_entry_id>
379

> <s_m_entry_name>
dock_pv.378

> <s_m_Source_Path>
/home/csk/Desktop/cluster/DUD-E-result/kif11

> <s_m_Source_File>
dock_pv.maegz

> <i_m_Source_File_Index>
378

> <chembl_id>
CHEMBL1829405

> <chembl_pref_name>
None

> <i_lp_mmshare_version>
53161

> <i_f3d_flags>
0

> <r_lp_tautomer_probability>
1

> <s_lp_Force_Field>
OPLS_2005

> <r_lp_Energy>
57.463055

> <b_lp_Chiralities_Consistent>
1

> <s_lp_Variant>
CHEMBL4581_lig554-1

> <s_i_glide_gridfile>
glide-grid_3cjo

> <i_i_glide_lignum>
834

> <i_i_glide_rotatable_bonds>
10

> <r_i_docking_score>
-7.44411450526432

> <r_i_glide_ligand_efficiency>
-0.21894454427248

> <r_i_glide_ligand_efficiency_sa>
-0.709295328616703

> <r_i_glide_ligand_efficiency_ln>
-1.64461369455222

> <r_i_glide_gscore>
-7.44411450526432

> <r_i_glide_lipo>
-4.8047959168811

> <r_i_glide_hbond>
0

> <r_i_glide_metal>
0

> <r_i_glide_rewards>
-0.663951738811171

> <r_i_glide_evdw>
-44.5790367126465

> <r_i_glide_ecoul>
-3.10058832168579

> <r_i_glide_erotb>
0.718673234313142

> <r_i_glide_esite>
0

> <r_i_glide_emodel>
-63.0751048507253

> <r_i_glide_energy>
-47.6796250343323

> <r_i_glide_einternal>
12.876124382019

> <i_i_glide_confnum>
159

> <i_i_glide_posenum>
222

> <r_i_glide_eff_state_penalty>
0

> <s_user_duplicate_titles>
CHEMBL4581_lig554

> <s_m_subgroup_title>
dock_pv

> <s_m_subgroupid>
dock_pv

> <b_m_subgroup_collapsed>
1

$$$$
CHEMBL4581_lig150
                    3D
 Schrodinger Suite 2021-1.
 28 29  0  0  1  0            999 V2000
   17.9275   13.4160  111.3453 C   0  0  0  0  0  0
   18.7101   14.5826  111.3575 C   0  0  0  0  0  0
   19.2320   15.0739  110.1710 C   0  0  0  0  0  0
   18.9952   14.4337  108.9555 C   0  0  0  0  0  0
   18.1496   13.3209  108.9339 C   0  0  0  0  0  0
   17.6003   12.8282  110.1203 C   0  0  0  0  0  0
   19.6413   14.9686  107.7399 C   0  0  0  0  0  0
   19.1758   16.1614  107.1856 C   0  0  0  0  0  0
   19.8624   16.7620  106.1362 C   0  0  0  0  0  0
   21.0250   16.1988  105.6376 C   0  0  0  0  0  0
   21.4891   14.9872  106.1591 C   0  0  0  0  0  0
   20.7865   14.3680  107.1995 C   0  0  0  0  0  0
   17.3701   12.8576  112.5021 N   0  0  0  0  0  0
   17.9579   12.7630  113.7046 C   0  0  0  0  0  0
   17.1174   12.3620  114.6385 N   0  0  0  0  0  0
   19.1179   13.0430  113.9771 O   0  0  0  0  0  0
   22.6282   14.4275  105.6898 F   0  0  0  0  0  0
   21.9181   17.1252  104.2359 Br  0  0  0  0  0  0
   18.9758   15.2605  112.4957 F   0  0  0  0  0  0
   19.8497   15.9555  110.2140 H   0  0  0  0  0  0
   17.9212   12.8276  107.9992 H   0  0  0  0  0  0
   16.9626   11.9567  110.0795 H   0  0  0  0  0  0
   18.2988   16.6434  107.5924 H   0  0  0  0  0  0
   19.5180   17.6879  105.7119 H   0  0  0  0  0  0
   21.1704   13.4524  107.6245 H   0  0  0  0  0  0
   16.5378   12.3045  112.3676 H   0  0  0  0  0  0
   17.4813   12.2531  115.5762 H   0  0  0  0  0  0
   16.1735   12.0868  114.4216 H   0  0  0  0  0  0
  1  6  1  0  0  0
  1 13  1  0  0  0
  1  2  2  0  0  0
  2  3  1  0  0  0
  2 19  1  0  0  0
  3  4  2  0  0  0
  3 20  1  0  0  0
  4  7  1  0  0  0
  4  5  1  0  0  0
  5  6  2  0  0  0
  5 21  1  0  0  0
  6 22  1  0  0  0
  7 12  1  0  0  0
  7  8  2  0  0  0
  8  9  1  0  0  0
  8 23  1  0  0  0
  9 10  2  0  0  0
  9 24  1  0  0  0
 10 11  1  0  0  0
 10 18  1  0  0  0
 11 12  2  0  0  0
 11 17  1  0  0  0
 12 25  1  0  0  0
 13 14  1  0  0  0
 13 26  1  0  0  0
 14 15  1  0  0  0
 14 16  2  0  0  0
 15 27  1  0  0  0
 15 28  1  0  0  0
M  END
> <s_m_entry_id>
380

> <s_m_entry_name>
dock_pv.379

> <s_m_Source_Path>
/home/csk/Desktop/cluster/DUD-E-result/kif11

> <s_m_Source_File>
dock_pv.maegz

> <i_m_Source_File_Index>
379

> <chembl_id>
CHEMBL244510

> <chembl_pref_name>
None

> <i_lp_mmshare_version>
53161

> <i_f3d_flags>
0

> <r_lp_tautomer_probability>
1

> <s_lp_Force_Field>
OPLS_2005

> <r_lp_Energy>
12.456811

> <b_lp_Chiralities_Consistent>
1

> <s_lp_Variant>
CHEMBL4581_lig150-1

> <s_i_glide_gridfile>
glide-grid_3cjo

> <i_i_glide_lignum>
246

> <i_i_glide_rotatable_bonds>
3

> <r_i_docking_score>
-7.43090700285138

> <r_i_glide_ligand_efficiency>
-0.391100368571125

> <r_i_glide_ligand_efficiency_sa>
-1.04361286728667

> <r_i_glide_ligand_efficiency_ln>
-1.88389452647122

> <r_i_glide_gscore>
-7.43090700285138

> <r_i_glide_lipo>
-3.06434974261259

> <r_i_glide_hbond>
-0.291245733201638

> <r_i_glide_metal>
0

> <r_i_glide_rewards>
-2.45531800478422

> <r_i_glide_evdw>
-32.4071960449219

> <r_i_glide_ecoul>
-2.3355233669281

> <r_i_glide_erotb>
0.350694785032382

> <r_i_glide_esite>
0

> <r_i_glide_emodel>
-44.012082318796

> <r_i_glide_energy>
-34.74271941185

> <r_i_glide_einternal>
8.41064739227295

> <i_i_glide_confnum>
8

> <i_i_glide_posenum>
83

> <r_i_glide_eff_state_penalty>
0

> <s_user_duplicate_titles>
CHEMBL4581_lig150,389268

> <s_m_subgroup_title>
dock_pv

> <s_m_subgroupid>
dock_pv

> <b_m_subgroup_collapsed>
1

$$$$
CHEMBL4581_lig26
                    3D
 Schrodinger Suite 2021-1.
 37 39  0  0  1  0            999 V2000
   19.4347   14.6580  107.7713 N   0  0  0  0  0  0
   19.5256   13.9667  108.9439 N   0  0  0  0  0  0
   18.1463   15.3687  107.6671 C   0  0  2  0  0  0
   18.5111   14.1925  109.6711 C   0  0  0  0  0  0
   17.5195   15.1175  109.0351 C   0  0  0  0  0  0
   20.5137   14.7624  106.9435 C   0  0  0  0  0  0
   17.2868   14.8956  106.4810 C   0  0  0  0  0  0
   16.7218   13.6103  106.4558 C   0  0  0  0  0  0
   18.3076   13.6927  111.0255 C   0  0  0  0  0  0
   21.4711   13.9824  106.9732 O   0  0  0  0  0  0
   15.9189   13.2112  105.3840 C   0  0  0  0  0  0
   15.3616   11.9623  105.3591 O   0  0  0  0  0  0
   17.0281   15.7664  105.4152 C   0  0  0  0  0  0
   20.6083   15.9241  105.9492 C   0  0  0  0  0  0
   16.2312   15.3661  104.3433 C   0  0  0  0  0  0
   19.1166   14.1699  112.0603 C   0  0  0  0  0  0
   17.3033   12.7566  111.2894 C   0  0  0  0  0  0
   15.6764   14.0881  104.3286 C   0  0  0  0  0  0
   18.9234   13.7080  113.3585 C   0  0  0  0  0  0
   17.1217   12.2907  112.5898 C   0  0  0  0  0  0
   17.9299   12.7676  113.6191 C   0  0  0  0  0  0
   18.3212   16.4420  107.5663 H   0  0  0  0  0  0
   17.4517   16.0397  109.6139 H   0  0  0  0  0  0
   16.5314   14.6593  108.9796 H   0  0  0  0  0  0
   16.9129   12.9199  107.2647 H   0  0  0  0  0  0
   15.5159   11.4591  106.1744 H   0  0  0  0  0  0
   17.4400   16.7622  105.4111 H   0  0  0  0  0  0
   19.7047   16.5186  105.8608 H   0  0  0  0  0  0
   21.4132   16.5917  106.2551 H   0  0  0  0  0  0
   20.8567   15.5398  104.9608 H   0  0  0  0  0  0
   16.0372   16.0477  103.5286 H   0  0  0  0  0  0
   19.8955   14.8944  111.8654 H   0  0  0  0  0  0
   16.6738   12.3765  110.4963 H   0  0  0  0  0  0
   15.0558   13.7766  103.5014 H   0  0  0  0  0  0
   19.5517   14.0714  114.1571 H   0  0  0  0  0  0
   16.3508   11.5625  112.8002 H   0  0  0  0  0  0
   17.7881   12.4037  114.6271 H   0  0  0  0  0  0
  1  2  1  0  0  0
  1  3  1  0  0  0
  1  6  1  0  0  0
  2  4  2  0  0  0
  3  5  1  0  0  0
  3  7  1  0  0  0
  3 22  1  0  0  0
  4  9  1  0  0  0
  4  5  1  0  0  0
  5 23  1  0  0  0
  5 24  1  0  0  0
  6 10  2  0  0  0
  6 14  1  0  0  0
  7  8  1  0  0  0
  7 13  2  0  0  0
  8 11  2  0  0  0
  8 25  1  0  0  0
  9 16  1  0  0  0
  9 17  2  0  0  0
 11 12  1  0  0  0
 11 18  1  0  0  0
 12 26  1  0  0  0
 13 15  1  0  0  0
 13 27  1  0  0  0
 14 28  1  0  0  0
 14 29  1  0  0  0
 14 30  1  0  0  0
 15 18  2  0  0  0
 15 31  1  0  0  0
 16 19  2  0  0  0
 16 32  1  0  0  0
 17 20  1  0  0  0
 17 33  1  0  0  0
 18 34  1  0  0  0
 19 21  1  0  0  0
 19 35  1  0  0  0
 20 21  2  0  0  0
 20 36  1  0  0  0
 21 37  1  0  0  0
M  END
> <s_m_entry_id>
381

> <s_m_entry_name>
dock_pv.380

> <s_m_Source_Path>
/home/csk/Desktop/cluster/DUD-E-result/kif11

> <s_m_Source_File>
dock_pv.maegz

> <i_m_Source_File_Index>
380

> <chembl_id>
CHEMBL381219

> <chembl_pref_name>
None

> <i_lp_mmshare_version>
53161

> <i_f3d_flags>
0

> <r_lp_tautomer_probability>
0.999999999997365

> <s_lp_Force_Field>
OPLS_2005

> <r_lp_Energy>
22.60905

> <b_lp_Chiralities_Consistent>
1

> <s_lp_Variant>
CHEMBL4581_lig26-1

> <s_i_glide_gridfile>
glide-grid_3cjo

> <i_i_glide_lignum>
38

> <i_i_glide_rotatable_bonds>
4

> <r_i_docking_score>
-7.43056322352312

> <r_i_glide_ligand_efficiency>
-0.353836343977292

> <r_i_glide_ligand_efficiency_sa>
-0.976207642890561

> <r_i_glide_ligand_efficiency_ln>
-1.83719174214932

> <r_i_glide_gscore>
-7.43056322352312

> <r_i_glide_lipo>
-2.39501275924462

> <r_i_glide_hbond>
-0.32

> <r_i_glide_metal>
0

> <r_i_glide_rewards>
-2.34115148554725

> <r_i_glide_evdw>
-37.1139144897461

> <r_i_glide_ecoul>
-6.52209043502808

> <r_i_glide_erotb>
0.459610311010261

> <r_i_glide_esite>
0

> <r_i_glide_emodel>
-58.0678713640765

> <r_i_glide_energy>
-43.6360049247742

> <r_i_glide_einternal>
6.62378263473511

> <i_i_glide_confnum>
3

> <i_i_glide_posenum>
322

> <r_i_glide_eff_state_penalty>
0

> <s_user_duplicate_titles>
CHEMBL4581_lig26

> <s_m_subgroup_title>
dock_pv

> <s_m_subgroupid>
dock_pv

> <b_m_subgroup_collapsed>
1

$$$$
CHEMBL4581_lig753
                    3D
 Schrodinger Suite 2021-1.
 40 42  0  0  1  0            999 V2000
   17.3742   13.9258  109.8629 C   0  0  0  0  0  0
   17.2171   14.8199  108.5925 C   0  0  2  0  0  0
   15.9600   14.5021  107.7232 C   0  0  0  0  0  0
   18.6204   14.4854  107.5211 S   0  0  0  0  0  0
   18.9598   16.2404  107.4739 C   0  0  0  0  0  0
   18.2030   16.9930  108.1591 N   0  0  0  0  0  0
   17.2529   16.2830  108.8248 N   0  0  0  0  0  0
   19.9850   16.7608  106.7500 N   0  0  0  0  0  0
   21.0247   16.1450  106.1452 C   0  0  0  0  0  0
   21.9582   17.0548  105.3593 C   0  0  0  0  0  0
   21.2817   14.9423  106.1831 O   0  0  0  0  0  0
   16.3978   16.9102  109.6903 C   0  0  0  0  0  0
   15.5049   16.3220  110.3048 O   0  0  0  0  0  0
   16.5520   18.4160  109.9442 C   0  0  0  0  0  0
   17.4724   12.2152  112.1268 C   0  0  0  0  0  0
   16.7607   11.8727  110.9993 C   0  0  0  0  0  0
   16.6837   12.7147  109.9084 C   0  0  0  0  0  0
   18.2361   13.3822  112.1350 C   0  0  0  0  0  0
   18.2276   14.2506  110.9897 C   0  0  0  0  0  0
   19.0992   15.3682  111.0455 C   0  0  0  0  0  0
   19.8761   15.6185  112.1589 C   0  0  0  0  0  0
   19.8730   14.7620  113.2517 C   0  0  0  0  0  0
   19.0427   13.6598  113.2601 C   0  0  0  0  0  0
   15.0419   14.5594  108.3090 H   0  0  0  0  0  0
   15.8551   15.2066  106.8962 H   0  0  0  0  0  0
   15.9997   13.5106  107.2695 H   0  0  0  0  0  0
   20.0256   17.7725  106.7767 H   0  0  0  0  0  0
   22.8190   17.3287  105.9698 H   0  0  0  0  0  0
   21.4477   17.9620  105.0415 H   0  0  0  0  0  0
   22.3178   16.5418  104.4665 H   0  0  0  0  0  0
   17.5616   18.6452  110.2871 H   0  0  0  0  0  0
   16.3591   18.9784  109.0306 H   0  0  0  0  0  0
   15.8530   18.7540  110.7097 H   0  0  0  0  0  0
   17.4943   11.5609  112.9835 H   0  0  0  0  0  0
   16.3069   10.9000  110.9648 H   0  0  0  0  0  0
   16.0948   12.3634  109.0766 H   0  0  0  0  0  0
   19.2083   16.0512  110.2296 H   0  0  0  0  0  0
   20.4768   16.5134  112.1719 H   0  0  0  0  0  0
   20.4993   14.9745  114.1056 H   0  0  0  0  0  0
   19.0353   12.9930  114.1114 H   0  0  0  0  0  0
  1  2  1  0  0  0
  1 19  2  0  0  0
  1 17  1  0  0  0
  2  3  1  0  0  0
  2  4  1  0  0  0
  2  7  1  0  0  0
  3 24  1  0  0  0
  3 25  1  0  0  0
  3 26  1  0  0  0
  4  5  1  0  0  0
  5  6  2  0  0  0
  5  8  1  0  0  0
  6  7  1  0  0  0
  7 12  1  0  0  0
  8  9  1  0  0  0
  8 27  1  0  0  0
  9 10  1  0  0  0
  9 11  2  0  0  0
 10 28  1  0  0  0
 10 29  1  0  0  0
 10 30  1  0  0  0
 12 13  2  0  0  0
 12 14  1  0  0  0
 14 31  1  0  0  0
 14 32  1  0  0  0
 14 33  1  0  0  0
 15 18  2  0  0  0
 15 16  1  0  0  0
 15 34  1  0  0  0
 16 17  2  0  0  0
 16 35  1  0  0  0
 17 36  1  0  0  0
 18 19  1  0  0  0
 18 23  1  0  0  0
 19 20  1  0  0  0
 20 21  2  0  0  0
 20 37  1  0  0  0
 21 22  1  0  0  0
 21 38  1  0  0  0
 22 23  2  0  0  0
 22 39  1  0  0  0
 23 40  1  0  0  0
M  END
> <s_m_entry_id>
382

> <s_m_entry_name>
dock_pv.381

> <s_m_Source_Path>
/home/csk/Desktop/cluster/DUD-E-result/kif11

> <s_m_Source_File>
dock_pv.maegz

> <i_m_Source_File_Index>
381

> <chembl_id>
CHEMBL4283187

> <chembl_pref_name>
None

> <i_lp_mmshare_version>
53161

> <i_f3d_flags>
0

> <r_lp_tautomer_probability>
1

> <s_lp_Force_Field>
OPLS_2005

> <r_lp_Energy>
26.936923

> <b_lp_Chiralities_Consistent>
1

> <s_lp_Variant>
CHEMBL4581_lig753-2

> <s_i_glide_gridfile>
glide-grid_3cjo

> <i_i_glide_lignum>
1113

> <i_i_glide_rotatable_bonds>
4

> <r_i_docking_score>
-7.43002801786851

> <r_i_glide_ligand_efficiency>
-0.323044696429065

> <r_i_glide_ligand_efficiency_sa>
-0.918696144230603

> <r_i_glide_ligand_efficiency_ln>
-1.79664814648983

> <r_i_glide_gscore>
-7.43002801786851

> <r_i_glide_lipo>
-2.84869110043042

> <r_i_glide_hbond>
-0.310391080919768

> <r_i_glide_metal>
0

> <r_i_glide_rewards>
-2.35589318209759

> <r_i_glide_evdw>
-33.9187240600586

> <r_i_glide_ecoul>
-3.79524183273315

> <r_i_glide_erotb>
0.35016982349217

> <r_i_glide_esite>
0

> <r_i_glide_emodel>
-54.3882513731133

> <r_i_glide_energy>
-37.7139658927917

> <r_i_glide_einternal>
4.95542478561401

> <i_i_glide_confnum>
2

> <i_i_glide_posenum>
82

> <r_i_glide_eff_state_penalty>
0

> <s_user_duplicate_titles>
CHEMBL4581_lig753

> <s_m_subgroup_title>
dock_pv

> <s_m_subgroupid>
dock_pv

> <b_m_subgroup_collapsed>
1

$$$$
CHEMBL4581_lig366
                    3D
 Schrodinger Suite 2021-1.
 50 53  0  0  1  0            999 V2000
   21.3556   15.7573  106.0247 C   0  0  0  0  0  0
   21.7712   14.4993  106.4658 C   0  0  0  0  0  0
   21.1182   13.8869  107.5207 C   0  0  0  0  0  0
   20.2206   16.3520  106.5848 C   0  0  0  0  0  0
   19.5378   15.7362  107.6407 C   0  0  0  0  0  0
   20.0299   14.5057  108.1189 C   0  0  0  0  0  0
   19.4331   13.8248  109.1849 N   0  0  0  0  0  0
   18.1481   14.2605  109.7101 C   0  0  2  0  0  0
   18.2674   16.3360  108.2254 C   0  0  2  0  0  0
   18.0262   15.8145  109.6599 C   0  0  1  0  0  0
   16.6760   16.3737  110.1521 C   0  0  0  0  0  0
   15.5323   15.9961  109.1978 C   0  0  0  0  0  0
   15.8740   16.2830  107.7097 C   0  0  1  0  0  0
   17.2143   15.9336  107.3496 O   0  0  0  0  0  0
   17.9457   13.6528  111.0862 C   0  0  0  0  0  0
   18.6393   14.1561  112.1932 C   0  0  0  0  0  0
   18.4547   13.5808  113.4443 C   0  0  0  0  0  0
   17.5770   12.5109  113.5873 C   0  0  0  0  0  0
   16.9598   11.9619  112.4757 C   0  0  0  0  0  0
   17.1180   12.5386  111.2241 C   0  0  0  0  0  0
   14.8492   15.6992  106.7033 C   0  0  0  0  0  0
   14.6766   14.2429  106.7417 N   0  0  1  0  0  0
   18.8077   16.2523  110.2832 H   0  0  0  0  0  0
   18.3353   17.4263  108.2440 H   0  0  0  0  0  0
   22.1630   16.4684  104.9613 C   0  0  0  0  0  0
   23.1175   17.1600  105.5790 F   0  0  0  0  0  0
   22.7182   15.5621  104.1593 F   0  0  0  0  0  0
   21.4289   17.3102  104.2353 F   0  0  0  0  0  0
   15.8208   13.5065  106.2120 C   0  0  0  0  0  0
   17.3132   11.9883  114.8026 F   0  0  0  0  0  0
   22.6323   14.0129  106.0300 H   0  0  0  0  0  0
   21.4769   12.9327  107.8784 H   0  0  0  0  0  0
   19.8796   17.3093  106.2161 H   0  0  0  0  0  0
   19.6600   12.8577  109.3679 H   0  0  0  0  0  0
   17.3835   13.8334  109.0593 H   0  0  0  0  0  0
   16.7361   17.4608  110.2316 H   0  0  0  0  0  0
   16.4450   16.0048  111.1520 H   0  0  0  0  0  0
   14.6302   16.5404  109.4806 H   0  0  0  0  0  0
   15.2912   14.9410  109.3274 H   0  0  0  0  0  0
   15.8158   17.3666  107.5801 H   0  0  0  0  0  0
   19.3237   14.9850  112.0878 H   0  0  0  0  0  0
   18.9997   13.9697  114.2855 H   0  0  0  0  0  0
   16.3180   11.1167  112.6104 H   0  0  0  0  0  0
   16.6066   12.1129  110.3720 H   0  0  0  0  0  0
   15.0969   16.0116  105.6872 H   0  0  0  0  0  0
   13.8757   16.1414  106.9194 H   0  0  0  0  0  0
   14.5012   13.9380  107.6901 H   0  0  0  0  0  0
   15.5877   12.4391  106.1943 H   0  0  0  0  0  0
   16.0564   13.8161  105.1905 H   0  0  0  0  0  0
   16.7140   13.6262  106.8295 H   0  0  0  0  0  0
  1  2  2  0  0  0
  1  4  1  0  0  0
  1 25  1  0  0  0
  2  3  1  0  0  0
  2 31  1  0  0  0
  3  6  2  0  0  0
  3 32  1  0  0  0
  4  5  2  0  0  0
  4 33  1  0  0  0
  5  9  1  0  0  0
  5  6  1  0  0  0
  6  7  1  0  0  0
  7  8  1  0  0  0
  7 34  1  0  0  0
  8 10  1  0  0  0
  8 15  1  0  0  0
  8 35  1  0  0  0
  9 10  1  0  0  0
  9 24  1  0  0  0
  9 14  1  0  0  0
 10 23  1  0  0  0
 10 11  1  0  0  0
 11 12  1  0  0  0
 11 36  1  0  0  0
 11 37  1  0  0  0
 12 13  1  0  0  0
 12 38  1  0  0  0
 12 39  1  0  0  0
 13 14  1  0  0  0
 13 21  1  0  0  0
 13 40  1  0  0  0
 15 16  2  0  0  0
 15 20  1  0  0  0
 16 17  1  0  0  0
 16 41  1  0  0  0
 17 18  2  0  0  0
 17 42  1  0  0  0
 18 19  1  0  0  0
 18 30  1  0  0  0
 19 20  2  0  0  0
 19 43  1  0  0  0
 20 44  1  0  0  0
 21 22  1  0  0  0
 21 45  1  0  0  0
 21 46  1  0  0  0
 22 29  1  0  0  0
 22 47  1  0  0  0
 25 26  1  0  0  0
 25 27  1  0  0  0
 25 28  1  0  0  0
 29 48  1  0  0  0
 29 49  1  0  0  0
 29 50  1  0  0  0
M  END
> <s_m_entry_id>
383

> <s_m_entry_name>
dock_pv.382

> <s_m_Source_Path>
/home/csk/Desktop/cluster/DUD-E-result/kif11

> <s_m_Source_File>
dock_pv.maegz

> <i_m_Source_File_Index>
382

> <chembl_id>
CHEMBL1086409

> <chembl_pref_name>
None

> <i_lp_mmshare_version>
53161

> <i_f3d_flags>
0

> <r_lp_tautomer_probability>
1

> <s_lp_Force_Field>
OPLS_2005

> <r_lp_Energy>
30.652802

> <b_lp_Chiralities_Consistent>
1

> <s_lp_Variant>
CHEMBL4581_lig366-1

> <s_i_glide_gridfile>
glide-grid_3cjo

> <i_i_glide_lignum>
519

> <i_i_glide_rotatable_bonds>
4

> <r_i_docking_score>
-7.42869813059329

> <r_i_glide_ligand_efficiency>
-0.265310647521189

> <r_i_glide_ligand_efficiency_sa>
-0.805639385489182

> <r_i_glide_ligand_efficiency_ln>
-1.71476164459578

> <r_i_glide_gscore>
-7.42869813059329

> <r_i_glide_lipo>
-4.57123943370797

> <r_i_glide_hbond>
0

> <r_i_glide_metal>
0

> <r_i_glide_rewards>
-1.57397751168256

> <r_i_glide_evdw>
-29.244026184082

> <r_i_glide_ecoul>
-0.483776181936264

> <r_i_glide_erotb>
0.251286551291783

> <r_i_glide_esite>
0

> <r_i_glide_emodel>
-41.3233900262469

> <r_i_glide_energy>
-29.7278023660183

> <r_i_glide_einternal>
3.24796724319458

> <i_i_glide_confnum>
3

> <i_i_glide_posenum>
35

> <r_i_glide_eff_state_penalty>
0

> <s_user_duplicate_titles>
CHEMBL4581_lig366

> <s_m_subgroup_title>
dock_pv

> <s_m_subgroupid>
dock_pv

> <b_m_subgroup_collapsed>
1

$$$$
CHEMBL4581_lig79
                    3D
 Schrodinger Suite 2021-1.
 46 48  0  0  1  0            999 V2000
   19.8896   16.0597  105.8384 C   0  0  0  0  0  0
   21.0290   15.3287  106.1589 C   0  0  0  0  0  0
   20.9845   14.4709  107.2657 C   0  0  0  0  0  0
   18.7211   15.9025  106.5769 C   0  0  0  0  0  0
   18.6739   15.0490  107.6836 C   0  0  0  0  0  0
   19.8407   14.3533  108.0586 C   0  0  0  0  0  0
   19.8560   13.4206  109.2730 C   0  0  0  0  0  0
   18.6423   13.5354  110.0980 N   0  0  0  0  0  0
   17.3870   13.5847  109.3300 C   0  0  0  0  0  0
   17.3891   14.9041  108.5105 C   0  0  1  0  0  0
   17.0783   16.1325  109.3764 C   0  0  0  0  0  0
   15.7584   16.3726  109.7746 C   0  0  0  0  0  0
   15.4491   17.4798  110.5619 C   0  0  0  0  0  0
   16.4538   18.3620  110.9525 C   0  0  0  0  0  0
   17.7709   18.1381  110.5592 C   0  0  0  0  0  0
   18.0815   17.0292  109.7773 C   0  0  0  0  0  0
   18.7148   13.9453  111.3932 C   0  0  0  0  0  0
   19.5603   14.7628  111.7578 O   0  0  0  0  0  0
   17.8472   13.3894  112.2829 N   0  0  0  0  0  0
   17.7493   13.8874  113.6577 C   0  0  0  0  0  0
   17.1176   12.1363  112.0651 C   0  0  0  0  0  0
   14.1592   17.6978  110.9577 O   0  0  0  0  0  0
   22.1324   15.5017  105.3483 O   0  0  0  0  0  0
   23.2265   14.6011  105.4742 C   0  0  0  0  0  0
   19.9057   16.7325  104.9941 H   0  0  0  0  0  0
   21.8552   13.8973  107.5422 H   0  0  0  0  0  0
   17.8375   16.4534  106.2933 H   0  0  0  0  0  0
   19.9041   12.3952  108.9077 H   0  0  0  0  0  0
   20.7629   13.5632  109.8619 H   0  0  0  0  0  0
   17.3757   12.7211  108.6626 H   0  0  0  0  0  0
   16.4958   13.4505  109.9414 H   0  0  0  0  0  0
   16.5672   14.8437  107.7944 H   0  0  0  0  0  0
   14.9691   15.6977  109.4781 H   0  0  0  0  0  0
   16.2245   19.2174  111.5697 H   0  0  0  0  0  0
   18.5529   18.8165  110.8693 H   0  0  0  0  0  0
   19.1130   16.8694  109.4983 H   0  0  0  0  0  0
   18.1521   14.8954  113.7592 H   0  0  0  0  0  0
   16.7181   13.9119  113.9974 H   0  0  0  0  0  0
   18.3016   13.2319  114.3314 H   0  0  0  0  0  0
   17.5611   11.5265  111.2776 H   0  0  0  0  0  0
   17.1011   11.5383  112.9753 H   0  0  0  0  0  0
   16.0894   12.3511  111.7774 H   0  0  0  0  0  0
   14.0751   18.5049  111.4706 H   0  0  0  0  0  0
   23.9178   14.7624  104.6483 H   0  0  0  0  0  0
   22.9033   13.5600  105.4231 H   0  0  0  0  0  0
   23.7717   14.7643  106.4046 H   0  0  0  0  0  0
  1  2  2  0  0  0
  1  4  1  0  0  0
  1 25  1  0  0  0
  2  3  1  0  0  0
  2 23  1  0  0  0
  3  6  2  0  0  0
  3 26  1  0  0  0
  4  5  2  0  0  0
  4 27  1  0  0  0
  5 10  1  0  0  0
  5  6  1  0  0  0
  6  7  1  0  0  0
  7  8  1  0  0  0
  7 28  1  0  0  0
  7 29  1  0  0  0
  8 17  1  0  0  0
  8  9  1  0  0  0
  9 10  1  0  0  0
  9 30  1  0  0  0
  9 31  1  0  0  0
 10 11  1  0  0  0
 10 32  1  0  0  0
 11 12  2  0  0  0
 11 16  1  0  0  0
 12 13  1  0  0  0
 12 33  1  0  0  0
 13 14  2  0  0  0
 13 22  1  0  0  0
 14 15  1  0  0  0
 14 34  1  0  0  0
 15 16  2  0  0  0
 15 35  1  0  0  0
 16 36  1  0  0  0
 17 18  2  0  0  0
 17 19  1  0  0  0
 19 20  1  0  0  0
 19 21  1  0  0  0
 20 37  1  0  0  0
 20 38  1  0  0  0
 20 39  1  0  0  0
 21 40  1  0  0  0
 21 41  1  0  0  0
 21 42  1  0  0  0
 22 43  1  0  0  0
 23 24  1  0  0  0
 24 44  1  0  0  0
 24 45  1  0  0  0
 24 46  1  0  0  0
M  END
> <s_m_entry_id>
384

> <s_m_entry_name>
dock_pv.383

> <s_m_Source_Path>
/home/csk/Desktop/cluster/DUD-E-result/kif11

> <s_m_Source_File>
dock_pv.maegz

> <i_m_Source_File_Index>
383

> <chembl_id>
CHEMBL205441

> <chembl_pref_name>
None

> <i_lp_mmshare_version>
53161

> <i_f3d_flags>
0

> <r_lp_tautomer_probability>
0.999999999997365

> <s_lp_Force_Field>
OPLS_2005

> <r_lp_Energy>
49.996509

> <b_lp_Chiralities_Consistent>
1

> <s_lp_Variant>
CHEMBL4581_lig79-2

> <s_i_glide_gridfile>
glide-grid_3cjo

> <i_i_glide_lignum>
124

> <i_i_glide_rotatable_bonds>
5

> <r_i_docking_score>
-7.42552052915132

> <r_i_glide_ligand_efficiency>
-0.309396688714638

> <r_i_glide_ligand_efficiency_sa>
-0.892454481761021

> <r_i_glide_ligand_efficiency_ln>
-1.77726779756041

> <r_i_glide_gscore>
-7.42552052915132

> <r_i_glide_lipo>
-3.86001710443123

> <r_i_glide_hbond>
0

> <r_i_glide_metal>
0

> <r_i_glide_rewards>
-1.75155260702381

> <r_i_glide_evdw>
-40.4078750610352

> <r_i_glide_ecoul>
-0.97097784280777

> <r_i_glide_erotb>
0.352089611776647

> <r_i_glide_esite>
0

> <r_i_glide_emodel>
-58.6572132792538

> <r_i_glide_energy>
-41.3788529038429

> <r_i_glide_einternal>
2.78234052658081

> <i_i_glide_confnum>
27

> <i_i_glide_posenum>
58

> <r_i_glide_eff_state_penalty>
0

> <s_user_duplicate_titles>
CHEMBL4581_lig79

> <s_m_subgroup_title>
dock_pv

> <s_m_subgroupid>
dock_pv

> <b_m_subgroup_collapsed>
1

$$$$
CHEMBL4581_lig315
                    3D
 Schrodinger Suite 2021-1.
 39 42  0  0  1  0            999 V2000
   17.6464   12.5492  113.2693 C   0  0  0  0  0  0
   18.6781   13.4522  113.5027 C   0  0  0  0  0  0
   19.1977   14.2001  112.4488 C   0  0  0  0  0  0
   17.1249   12.4106  111.9848 C   0  0  0  0  0  0
   17.6246   13.1596  110.9132 C   0  0  0  0  0  0
   18.7121   14.0219  111.1512 C   0  0  0  0  0  0
   19.3198   14.7498  110.1111 N   0  0  0  0  0  0
   18.7028   14.8303  108.7849 C   0  0  2  0  0  0
   16.9685   13.0939  109.5431 C   0  0  2  0  0  0
   17.9592   13.5133  108.4356 C   0  0  1  0  0  0
   17.2040   13.5592  107.0819 C   0  0  0  0  0  0
   15.9594   14.4551  107.1781 C   0  0  0  0  0  0
   15.0892   14.0026  108.3611 C   0  0  0  0  0  0
   15.8506   13.9879  109.5696 O   0  0  0  0  0  0
   19.7020   15.2112  107.6912 C   0  0  0  0  0  0
   20.7626   14.3618  107.3587 C   0  0  0  0  0  0
   21.6347   14.7007  106.3255 C   0  0  0  0  0  0
   21.4712   15.9091  105.6530 C   0  0  0  0  0  0
   20.4166   16.7588  105.9730 C   0  0  0  0  0  0
   19.5267   16.3971  106.9809 C   0  0  0  0  0  0
   18.7042   12.7212  108.3894 H   0  0  0  0  0  0
   16.6279   12.0730  109.3555 H   0  0  0  0  0  0
   17.2437   11.9654  114.0841 H   0  0  0  0  0  0
   19.0857   13.5616  114.4958 H   0  0  0  0  0  0
   20.0107   14.8848  112.6374 H   0  0  0  0  0  0
   16.3178   11.7149  111.8194 H   0  0  0  0  0  0
   19.9757   15.4905  110.3141 H   0  0  0  0  0  0
   17.9707   15.6361  108.8453 H   0  0  0  0  0  0
   16.8987   12.5489  106.8012 H   0  0  0  0  0  0
   17.8494   13.9049  106.2726 H   0  0  0  0  0  0
   15.3872   14.4085  106.2516 H   0  0  0  0  0  0
   16.2488   15.4981  107.3062 H   0  0  0  0  0  0
   14.7025   13.0061  108.1575 H   0  0  0  0  0  0
   14.2319   14.6654  108.4840 H   0  0  0  0  0  0
   20.9079   13.4364  107.8954 H   0  0  0  0  0  0
   22.4443   14.0379  106.0594 H   0  0  0  0  0  0
   22.1580   16.1785  104.8636 H   0  0  0  0  0  0
   20.2899   17.6929  105.4459 H   0  0  0  0  0  0
   18.7165   17.0614  107.2401 H   0  0  0  0  0  0
  1  2  2  0  0  0
  1  4  1  0  0  0
  1 23  1  0  0  0
  2  3  1  0  0  0
  2 24  1  0  0  0
  3  6  2  0  0  0
  3 25  1  0  0  0
  4  5  2  0  0  0
  4 26  1  0  0  0
  5  6  1  0  0  0
  5  9  1  0  0  0
  6  7  1  0  0  0
  7  8  1  0  0  0
  7 27  1  0  0  0
  8 10  1  0  0  0
  8 15  1  0  0  0
  8 28  1  0  0  0
  9 14  1  0  0  0
  9 10  1  0  0  0
  9 22  1  0  0  0
 10 11  1  0  0  0
 10 21  1  0  0  0
 11 12  1  0  0  0
 11 29  1  0  0  0
 11 30  1  0  0  0
 12 13  1  0  0  0
 12 31  1  0  0  0
 12 32  1  0  0  0
 13 14  1  0  0  0
 13 33  1  0  0  0
 13 34  1  0  0  0
 15 16  2  0  0  0
 15 20  1  0  0  0
 16 17  1  0  0  0
 16 35  1  0  0  0
 17 18  2  0  0  0
 17 36  1  0  0  0
 18 19  1  0  0  0
 18 37  1  0  0  0
 19 20  2  0  0  0
 19 38  1  0  0  0
 20 39  1  0  0  0
M  END
> <s_m_entry_id>
385

> <s_m_entry_name>
dock_pv.384

> <s_m_Source_Path>
/home/csk/Desktop/cluster/DUD-E-result/kif11

> <s_m_Source_File>
dock_pv.maegz

> <i_m_Source_File_Index>
384

> <chembl_id>
CHEMBL1091477

> <chembl_pref_name>
None

> <i_lp_mmshare_version>
53161

> <i_f3d_flags>
0

> <r_lp_tautomer_probability>
1

> <s_lp_Force_Field>
OPLS_2005

> <r_lp_Energy>
25.342483

> <b_lp_Chiralities_Consistent>
1

> <s_lp_Variant>
CHEMBL4581_lig315-1

> <s_i_glide_gridfile>
glide-grid_3cjo

> <i_i_glide_lignum>
468

> <i_i_glide_rotatable_bonds>
1

> <r_i_docking_score>
-7.42062819142985

> <r_i_glide_ligand_efficiency>
-0.371031409571493

> <r_i_glide_ligand_efficiency_sa>
-1.0071341934452

> <r_i_glide_ligand_efficiency_ln>
-1.85713848761684

> <r_i_glide_gscore>
-7.42062819142985

> <r_i_glide_lipo>
-4.095519795831

> <r_i_glide_hbond>
0

> <r_i_glide_metal>
0

> <r_i_glide_rewards>
-1.59988936363636

> <r_i_glide_evdw>
-34.9007148742676

> <r_i_glide_ecoul>
-1.55268669128418

> <r_i_glide_erotb>
0.252719715443509

> <r_i_glide_esite>
0

> <r_i_glide_emodel>
-52.2780498010621

> <r_i_glide_energy>
-36.4534015655518

> <r_i_glide_einternal>
0.19361937046051

> <i_i_glide_confnum>
2

> <i_i_glide_posenum>
157

> <r_i_glide_eff_state_penalty>
0

> <s_user_duplicate_titles>
CHEMBL4581_lig315,CHEMBL4581_lig377

> <s_m_subgroup_title>
dock_pv

> <s_m_subgroupid>
dock_pv

> <b_m_subgroup_collapsed>
1

$$$$
CHEMBL4581_lig76
                    3D
 Schrodinger Suite 2021-1.
 46 48  0  0  1  0            999 V2000
   21.5185   13.1626  108.0785 C   0  0  0  0  0  0
   21.6809   13.9620  106.9587 C   0  0  0  0  0  0
   20.7191   14.9288  106.6350 C   0  0  0  0  0  0
   20.3767   13.2803  108.8584 C   0  0  0  0  0  0
   19.3464   14.1554  108.4968 C   0  0  0  0  0  0
   19.5230   14.9913  107.3701 C   0  0  0  0  0  0
   18.4148   15.9607  106.9494 C   0  0  0  0  0  0
   17.1075   15.5259  107.4631 N   0  0  0  0  0  0
   17.0957   15.3450  108.9236 C   0  0  0  0  0  0
   18.0067   14.1382  109.2503 C   0  0  2  0  0  0
   18.1501   13.9623  110.7590 C   0  0  0  0  0  0
   17.3686   13.0141  111.4278 C   0  0  0  0  0  0
   17.5184   12.8333  112.8005 C   0  0  0  0  0  0
   18.4664   13.5688  113.5035 C   0  0  0  0  0  0
   19.2343   14.5308  112.8503 C   0  0  0  0  0  0
   19.0698   14.7330  111.4822 C   0  0  0  0  0  0
   15.9723   15.7088  106.7301 C   0  0  0  0  0  0
   15.9455   16.4915  105.7760 O   0  0  0  0  0  0
   14.8593   15.0093  107.0846 N   0  0  0  0  0  0
   14.8691   13.6241  107.5677 C   0  0  0  0  0  0
   13.5143   15.5287  106.8319 C   0  0  0  0  0  0
   16.7183   11.9584  113.4748 O   0  0  0  0  0  0
   20.8843   15.8501  105.6168 O   0  0  0  0  0  0
   22.1437   15.9484  104.9593 C   0  0  0  0  0  0
   22.2923   12.4581  108.3241 H   0  0  0  0  0  0
   22.5881   13.8550  106.3846 H   0  0  0  0  0  0
   20.2589   12.6301  109.7119 H   0  0  0  0  0  0
   18.3997   16.0408  105.8606 H   0  0  0  0  0  0
   18.6458   16.9518  107.3424 H   0  0  0  0  0  0
   16.0943   15.2079  109.3318 H   0  0  0  0  0  0
   17.4928   16.2491  109.3882 H   0  0  0  0  0  0
   17.5157   13.2317  108.8938 H   0  0  0  0  0  0
   16.6442   12.4239  110.8848 H   0  0  0  0  0  0
   18.5905   13.4016  114.5602 H   0  0  0  0  0  0
   19.9545   15.1222  113.3977 H   0  0  0  0  0  0
   19.6703   15.4777  110.9793 H   0  0  0  0  0  0
   15.8608   13.1759  107.5355 H   0  0  0  0  0  0
   14.4942   13.5711  108.5898 H   0  0  0  0  0  0
   14.2282   13.0011  106.9423 H   0  0  0  0  0  0
   13.5225   16.5733  106.5155 H   0  0  0  0  0  0
   13.0224   14.9460  106.0535 H   0  0  0  0  0  0
   12.9097   15.4638  107.7362 H   0  0  0  0  0  0
   16.0600   11.5192  112.9247 H   0  0  0  0  0  0
   22.1012   16.7515  104.2233 H   0  0  0  0  0  0
   22.9452   16.1836  105.6619 H   0  0  0  0  0  0
   22.3928   15.0291  104.4280 H   0  0  0  0  0  0
  1  2  2  0  0  0
  1  4  1  0  0  0
  1 25  1  0  0  0
  2  3  1  0  0  0
  2 26  1  0  0  0
  3  6  2  0  0  0
  3 23  1  0  0  0
  4  5  2  0  0  0
  4 27  1  0  0  0
  5 10  1  0  0  0
  5  6  1  0  0  0
  6  7  1  0  0  0
  7  8  1  0  0  0
  7 28  1  0  0  0
  7 29  1  0  0  0
  8 17  1  0  0  0
  8  9  1  0  0  0
  9 10  1  0  0  0
  9 30  1  0  0  0
  9 31  1  0  0  0
 10 11  1  0  0  0
 10 32  1  0  0  0
 11 12  2  0  0  0
 11 16  1  0  0  0
 12 13  1  0  0  0
 12 33  1  0  0  0
 13 14  2  0  0  0
 13 22  1  0  0  0
 14 15  1  0  0  0
 14 34  1  0  0  0
 15 16  2  0  0  0
 15 35  1  0  0  0
 16 36  1  0  0  0
 17 18  2  0  0  0
 17 19  1  0  0  0
 19 20  1  0  0  0
 19 21  1  0  0  0
 20 37  1  0  0  0
 20 38  1  0  0  0
 20 39  1  0  0  0
 21 40  1  0  0  0
 21 41  1  0  0  0
 21 42  1  0  0  0
 22 43  1  0  0  0
 23 24  1  0  0  0
 24 44  1  0  0  0
 24 45  1  0  0  0
 24 46  1  0  0  0
M  END
> <s_m_entry_id>
387

> <s_m_entry_name>
dock_pv.386

> <s_m_Source_Path>
/home/csk/Desktop/cluster/DUD-E-result/kif11

> <s_m_Source_File>
dock_pv.maegz

> <i_m_Source_File_Index>
386

> <chembl_id>
CHEMBL426857

> <chembl_pref_name>
None

> <i_lp_mmshare_version>
53161

> <i_f3d_flags>
0

> <r_lp_tautomer_probability>
0.999999999997365

> <s_lp_Force_Field>
OPLS_2005

> <r_lp_Energy>
50.199143

> <b_lp_Chiralities_Consistent>
1

> <s_lp_Variant>
CHEMBL4581_lig76-1

> <s_i_glide_gridfile>
glide-grid_3cjo

> <i_i_glide_lignum>
117

> <i_i_glide_rotatable_bonds>
5

> <r_i_docking_score>
-7.42037315343152

> <r_i_glide_ligand_efficiency>
-0.309182214726313

> <r_i_glide_ligand_efficiency_sa>
-0.891835831726669

> <r_i_glide_ligand_efficiency_ln>
-1.77603579435298

> <r_i_glide_gscore>
-7.42037315343152

> <r_i_glide_lipo>
-3.98701879070202

> <r_i_glide_hbond>
-0.288330999378721

> <r_i_glide_metal>
0

> <r_i_glide_rewards>
-1.38541147471162

> <r_i_glide_evdw>
-34.1450576782227

> <r_i_glide_ecoul>
-2.69632411003113

> <r_i_glide_erotb>
0.352089611776647

> <r_i_glide_esite>
0

> <r_i_glide_emodel>
-52.885369048113

> <r_i_glide_energy>
-36.8413817882538

> <r_i_glide_einternal>
1.74069666862488

> <i_i_glide_confnum>
15

> <i_i_glide_posenum>
154

> <r_i_glide_eff_state_penalty>
0

> <s_user_duplicate_titles>
CHEMBL4581_lig76

> <s_m_subgroup_title>
dock_pv

> <s_m_subgroupid>
dock_pv

> <b_m_subgroup_collapsed>
1

$$$$
CHEMBL4581_lig566
                    3D
 Schrodinger Suite 2021-1.
 63 65  0  0  1  0            999 V2000
   19.1134   16.3688  107.0875 N   0  0  0  0  0  0
   18.5398   16.0275  108.1909 C   0  0  0  0  0  0
   19.1258   15.0549  109.0163 N   0  0  0  0  0  0
   20.1275   14.1651  108.6134 C   0  0  0  0  0  0
   20.2330   15.7196  106.6897 C   0  0  0  0  0  0
   20.7260   14.6107  107.3598 C   0  0  0  0  0  0
   22.1133   13.9407  106.5592 S   0  0  0  0  0  0
   22.1142   15.2444  105.4157 C   0  0  0  0  0  0
   21.0501   16.1130  105.6248 C   0  0  0  0  0  0
   20.5054   13.2029  109.2822 O   0  0  0  0  0  0
   17.2415   16.7779  108.6344 C   0  0  2  0  0  0
   16.0642   16.6722  107.6980 N   0  0  0  0  0  0
   17.5764   18.2638  108.9657 C   0  0  0  0  0  0
   14.7763   16.7837  108.1629 C   0  0  0  0  0  0
   14.4959   16.8445  109.6856 C   0  0  0  0  0  0
   13.8106   16.8384  107.3962 O   0  0  0  0  0  0
   16.2239   16.5369  106.2232 C   0  0  0  0  0  0
   15.7687   15.1799  105.6360 C   0  0  0  0  0  0
   18.9447   15.1283  110.4931 C   0  0  0  0  0  0
   18.2650   13.9780  111.2079 C   0  0  0  0  0  0
   17.3881   13.1449  110.5212 C   0  0  0  0  0  0
   16.7355   12.1378  111.2062 C   0  0  0  0  0  0
   16.9406   11.9642  112.5726 C   0  0  0  0  0  0
   17.8407   12.7727  113.2600 C   0  0  0  0  0  0
   18.5078   13.7848  112.5715 C   0  0  0  0  0  0
   18.1540   18.4904  110.3741 C   0  0  0  0  0  0
   16.2780   13.9304  106.3758 C   0  0  0  0  0  0
   15.6121   12.7623  105.8301 N   0  0  0  0  0  0
   13.0585   17.2386  110.1368 C   0  0  0  0  0  0
   11.9511   16.2573  109.6886 C   0  0  0  0  0  0
   12.7000   18.6991  109.7960 C   0  0  0  0  0  0
   22.8694   15.2965  104.6446 H   0  0  0  0  0  0
   20.8530   16.9824  105.0148 H   0  0  0  0  0  0
   16.9023   16.3085  109.5540 H   0  0  0  0  0  0
   18.2748   18.6824  108.2389 H   0  0  0  0  0  0
   16.6798   18.8802  108.8764 H   0  0  0  0  0  0
   15.1784   17.5625  110.1373 H   0  0  0  0  0  0
   14.7355   15.8598  110.0895 H   0  0  0  0  0  0
   15.6286   17.3160  105.7522 H   0  0  0  0  0  0
   17.2229   16.7521  105.8792 H   0  0  0  0  0  0
   14.6769   15.1720  105.6156 H   0  0  0  0  0  0
   16.0742   15.1286  104.5896 H   0  0  0  0  0  0
   19.9175   15.2630  110.9553 H   0  0  0  0  0  0
   18.4007   16.0139  110.7998 H   0  0  0  0  0  0
   17.1985   13.2768  109.4664 H   0  0  0  0  0  0
   16.0356   11.5199  110.6711 H   0  0  0  0  0  0
   16.3385   11.2273  113.0940 H   0  0  0  0  0  0
   17.9966   12.6352  114.3206 H   0  0  0  0  0  0
   19.1918   14.4297  113.1022 H   0  0  0  0  0  0
   18.3284   19.5475  110.5615 H   0  0  0  0  0  0
   17.4793   18.1311  111.1517 H   0  0  0  0  0  0
   19.1186   18.0033  110.4978 H   0  0  0  0  0  0
   17.3617   13.8198  106.2694 H   0  0  0  0  0  0
   16.0537   13.9914  107.4415 H   0  0  0  0  0  0
   15.8520   11.9299  106.3673 H   0  0  0  0  0  0
   14.6127   12.8674  105.9284 H   0  0  0  0  0  0
   13.0738   17.1958  111.2251 H   0  0  0  0  0  0
   11.6520   16.4269  108.6541 H   0  0  0  0  0  0
   11.0561   16.3757  110.3024 H   0  0  0  0  0  0
   12.2716   15.2177  109.7630 H   0  0  0  0  0  0
   12.6385   18.8626  108.7213 H   0  0  0  0  0  0
   11.7323   18.9806  110.2298 H   0  0  0  0  0  0
   13.4478   19.3903  110.1968 H   0  0  0  0  0  0
  1  5  1  0  0  0
  1  2  2  0  0  0
  2  3  1  0  0  0
  2 11  1  0  0  0
  3 19  1  0  0  0
  3  4  1  0  0  0
  4 10  2  0  0  0
  4  6  1  0  0  0
  5  9  1  0  0  0
  5  6  2  0  0  0
  6  7  1  0  0  0
  7  8  1  0  0  0
  8  9  2  0  0  0
  8 32  1  0  0  0
  9 33  1  0  0  0
 11 12  1  0  0  0
 11 13  1  0  0  0
 11 34  1  0  0  0
 12 17  1  0  0  0
 12 14  1  0  0  0
 13 26  1  0  0  0
 13 35  1  0  0  0
 13 36  1  0  0  0
 14 15  1  0  0  0
 14 16  2  0  0  0
 15 29  1  0  0  0
 15 37  1  0  0  0
 15 38  1  0  0  0
 17 18  1  0  0  0
 17 39  1  0  0  0
 17 40  1  0  0  0
 18 27  1  0  0  0
 18 41  1  0  0  0
 18 42  1  0  0  0
 19 20  1  0  0  0
 19 43  1  0  0  0
 19 44  1  0  0  0
 20 21  2  0  0  0
 20 25  1  0  0  0
 21 22  1  0  0  0
 21 45  1  0  0  0
 22 23  2  0  0  0
 22 46  1  0  0  0
 23 24  1  0  0  0
 23 47  1  0  0  0
 24 25  2  0  0  0
 24 48  1  0  0  0
 25 49  1  0  0  0
 26 50  1  0  0  0
 26 51  1  0  0  0
 26 52  1  0  0  0
 27 28  1  0  0  0
 27 53  1  0  0  0
 27 54  1  0  0  0
 28 55  1  0  0  0
 28 56  1  0  0  0
 29 30  1  0  0  0
 29 31  1  0  0  0
 29 57  1  0  0  0
 30 58  1  0  0  0
 30 59  1  0  0  0
 30 60  1  0  0  0
 31 61  1  0  0  0
 31 62  1  0  0  0
 31 63  1  0  0  0
M  END
> <s_m_entry_id>
388

> <s_m_entry_name>
dock_pv.387

> <s_m_Source_Path>
/home/csk/Desktop/cluster/DUD-E-result/kif11

> <s_m_Source_File>
dock_pv.maegz

> <i_m_Source_File_Index>
387

> <chembl_id>
CHEMBL1829266

> <chembl_pref_name>
None

> <i_lp_mmshare_version>
53161

> <i_f3d_flags>
0

> <r_lp_tautomer_probability>
1

> <s_lp_Force_Field>
OPLS_2005

> <r_lp_Energy>
43.98438

> <b_lp_Chiralities_Consistent>
1

> <s_lp_Variant>
CHEMBL4581_lig566-1

> <s_i_glide_gridfile>
glide-grid_3cjo

> <i_i_glide_lignum>
860

> <i_i_glide_rotatable_bonds>
11

> <r_i_docking_score>
-7.4193835294739

> <r_i_glide_ligand_efficiency>
-0.239334952563674

> <r_i_glide_ligand_efficiency_sa>
-0.751842188563933

> <r_i_glide_ligand_efficiency_ln>
-1.67329836269462

> <r_i_glide_gscore>
-7.4193835294739

> <r_i_glide_lipo>
-4.39708609088384

> <r_i_glide_hbond>
-0.32

> <r_i_glide_metal>
0

> <r_i_glide_rewards>
-1.0041386638588

> <r_i_glide_evdw>
-39.7494850158691

> <r_i_glide_ecoul>
-3.5570285320282

> <r_i_glide_erotb>
0.822869755866423

> <r_i_glide_esite>
0

> <r_i_glide_emodel>
-51.7985315826954

> <r_i_glide_energy>
-43.3065135478973

> <r_i_glide_einternal>
17.6486358642578

> <i_i_glide_confnum>
47

> <i_i_glide_posenum>
147

> <r_i_glide_eff_state_penalty>
0

> <s_user_duplicate_titles>
CHEMBL4581_lig566

> <s_m_subgroup_title>
dock_pv

> <s_m_subgroupid>
dock_pv

> <b_m_subgroup_collapsed>
1

$$$$
CHEMBL4581_lig805
                    3D
 Schrodinger Suite 2021-1.
 40 41  0  0  1  0            999 V2000
   16.3669   14.8032  109.1410 S   0  0  0  0  0  0
   16.6054   13.1605  108.3638 C   0  0  0  0  0  0
   16.5104   13.1277  106.8130 C   0  0  1  0  0  0
   15.0944   13.4816  106.2836 C   0  0  0  0  0  0
   14.3180   12.3621  106.1781 O   0  0  0  0  0  0
   14.7300   14.6215  105.9932 O   0  0  0  0  0  0
   17.4986   14.0058  106.1591 N   0  0  0  0  0  0
   17.9812   15.2514  109.9196 C   0  0  0  0  0  0
   17.8208   16.7633  110.2674 C   0  0  0  0  0  0
   18.2425   14.4838  111.2555 C   0  0  0  0  0  0
   19.1142   15.0509  108.8740 C   0  0  0  0  0  0
   17.5178   13.3431  111.6419 C   0  0  0  0  0  0
   17.7535   12.7202  112.8651 C   0  0  0  0  0  0
   18.7180   13.2298  113.7265 C   0  0  0  0  0  0
   19.4652   14.3469  113.3575 C   0  0  0  0  0  0
   19.2320   14.9602  112.1305 C   0  0  0  0  0  0
   20.0206   13.9809  108.9740 C   0  0  0  0  0  0
   21.0242   13.8037  108.0256 C   0  0  0  0  0  0
   21.1166   14.6783  106.9475 C   0  0  0  0  0  0
   20.2420   15.7528  106.8326 C   0  0  0  0  0  0
   19.2468   15.9347  107.7897 C   0  0  0  0  0  0
   17.5652   12.7450  108.6717 H   0  0  0  0  0  0
   15.8595   12.4942  108.7961 H   0  0  0  0  0  0
   16.7207   12.1015  106.5080 H   0  0  0  0  0  0
   14.7573   11.5825  106.5399 H   0  0  0  0  0  0
   18.2321   14.2918  106.7961 H   0  0  0  0  0  0
   17.9550   13.5623  105.3550 H   0  0  0  0  0  0
   18.7658   17.2309  110.5427 H   0  0  0  0  0  0
   17.4216   17.3484  109.4398 H   0  0  0  0  0  0
   17.1309   16.9101  111.0991 H   0  0  0  0  0  0
   16.7485   12.9210  111.0171 H   0  0  0  0  0  0
   17.1777   11.8503  113.1506 H   0  0  0  0  0  0
   18.8970   12.7528  114.6787 H   0  0  0  0  0  0
   20.2215   14.7376  114.0230 H   0  0  0  0  0  0
   19.8322   15.8185  111.8674 H   0  0  0  0  0  0
   19.9515   13.2686  109.7826 H   0  0  0  0  0  0
   21.7128   12.9750  108.1127 H   0  0  0  0  0  0
   21.8861   14.5293  106.2012 H   0  0  0  0  0  0
   20.3236   16.4363  106.0015 H   0  0  0  0  0  0
   18.5657   16.7632  107.6619 H   0  0  0  0  0  0
  1  2  1  0  0  0
  1  8  1  0  0  0
  2  3  1  0  0  0
  2 22  1  0  0  0
  2 23  1  0  0  0
  3  7  1  0  0  0
  3  4  1  0  0  0
  3 24  1  0  0  0
  4  6  2  0  0  0
  4  5  1  0  0  0
  5 25  1  0  0  0
  7 26  1  0  0  0
  7 27  1  0  0  0
  8 11  1  0  0  0
  8  9  1  0  0  0
  8 10  1  0  0  0
  9 28  1  0  0  0
  9 29  1  0  0  0
  9 30  1  0  0  0
 10 12  2  0  0  0
 10 16  1  0  0  0
 11 17  2  0  0  0
 11 21  1  0  0  0
 12 13  1  0  0  0
 12 31  1  0  0  0
 13 14  2  0  0  0
 13 32  1  0  0  0
 14 15  1  0  0  0
 14 33  1  0  0  0
 15 16  2  0  0  0
 15 34  1  0  0  0
 16 35  1  0  0  0
 17 18  1  0  0  0
 17 36  1  0  0  0
 18 19  2  0  0  0
 18 37  1  0  0  0
 19 20  1  0  0  0
 19 38  1  0  0  0
 20 21  2  0  0  0
 20 39  1  0  0  0
 21 40  1  0  0  0
M  END
> <s_m_entry_id>
389

> <s_m_entry_name>
dock_pv.388

> <s_m_Source_Path>
/home/csk/Desktop/cluster/DUD-E-result/kif11

> <s_m_Source_File>
dock_pv.maegz

> <i_m_Source_File_Index>
388

> <chembl_id>
CHEMBL405611

> <chembl_pref_name>
None

> <i_lp_mmshare_version>
53161

> <i_f3d_flags>
0

> <r_lp_tautomer_probability>
1

> <s_lp_Force_Field>
OPLS_2005

> <r_lp_Energy>
13.787725

> <b_lp_Chiralities_Consistent>
1

> <s_lp_Variant>
CHEMBL4581_lig805-1

> <s_i_glide_gridfile>
glide-grid_3cjo

> <i_i_glide_lignum>
1190

> <i_i_glide_rotatable_bonds>
7

> <r_i_docking_score>
-7.41710694981293

> <r_i_glide_ligand_efficiency>
-0.353195569038711

> <r_i_glide_ligand_efficiency_sa>
-0.974439793422686

> <r_i_glide_ligand_efficiency_ln>
-1.83386470566544

> <r_i_glide_gscore>
-7.41710694981293

> <r_i_glide_lipo>
-3.85760930150728

> <r_i_glide_hbond>
-0.152

> <r_i_glide_metal>
0

> <r_i_glide_rewards>
-1.4873951969697

> <r_i_glide_evdw>
-33.0134010314941

> <r_i_glide_ecoul>
-9.77989768981934

> <r_i_glide_erotb>
1.21502711870628

> <r_i_glide_esite>
-0.0174748649946285

> <r_i_glide_emodel>
-60.6543020528692

> <r_i_glide_energy>
-42.7932987213135

> <r_i_glide_einternal>
4.51575326919556

> <i_i_glide_confnum>
19

> <i_i_glide_posenum>
367

> <r_i_glide_eff_state_penalty>
0

> <s_user_duplicate_titles>
CHEMBL4581_lig805

> <s_m_subgroup_title>
dock_pv

> <s_m_subgroupid>
dock_pv

> <b_m_subgroup_collapsed>
1

$$$$
CHEMBL4581_lig534
                    3D
 Schrodinger Suite 2021-1.
 64 67  0  0  1  0            999 V2000
   18.8407   16.3622  106.9227 N   0  0  0  0  0  0
   17.9307   15.8681  107.6757 C   0  0  0  0  0  0
   18.2340   14.7943  108.5454 N   0  0  0  0  0  0
   19.4339   14.0620  108.5053 C   0  0  0  0  0  0
   20.0057   15.7060  106.7968 C   0  0  0  0  0  0
   20.3210   14.5298  107.4441 C   0  0  0  0  0  0
   21.5175   13.9688  106.9626 C   0  0  0  0  0  0
   22.0674   14.7535  105.9507 C   0  0  0  0  0  0
   21.2348   16.2582  105.7296 S   0  0  0  0  0  0
   19.7365   13.1525  109.2661 O   0  0  0  0  0  0
   16.5229   16.5498  107.6165 C   0  0  2  0  0  0
   15.9264   16.7609  106.2336 N   0  0  0  0  0  0
   16.5356   17.8900  108.4273 C   0  0  0  0  0  0
   14.5799   16.9504  106.0760 C   0  0  0  0  0  0
   13.6525   16.3165  107.0611 C   0  0  0  0  0  0
   14.0729   17.5695  105.1353 O   0  0  0  0  0  0
   16.6937   16.7569  104.9580 C   0  0  0  0  0  0
   16.6974   15.3768  104.2694 C   0  0  0  0  0  0
   17.2198   14.2924  109.5275 C   0  0  0  0  0  0
   17.6615   13.9809  110.9643 C   0  0  0  0  0  0
   17.2131   12.8006  111.5741 C   0  0  0  0  0  0
   17.6411   12.4748  112.8614 C   0  0  0  0  0  0
   18.5262   13.3219  113.5309 C   0  0  0  0  0  0
   18.9752   14.4942  112.9285 C   0  0  0  0  0  0
   18.5335   14.8297  111.6511 C   0  0  0  0  0  0
   16.4971   17.7357  109.9517 C   0  0  0  0  0  0
   16.9985   15.4868  102.7703 C   0  0  0  0  0  0
   17.1166   14.1550  102.2057 N   0  0  0  0  0  0
   12.7306   17.1072  107.7475 C   0  0  0  0  0  0
   12.7833   14.3342  108.1214 C   0  0  0  0  0  0
   13.6823   14.9304  107.2444 C   0  0  0  0  0  0
   11.8667   15.1272  108.8021 C   0  0  0  0  0  0
   11.8426   16.5113  108.6315 C   0  0  0  0  0  0
   10.8858   14.4855  109.7404 C   0  0  0  0  0  0
   23.5177   14.3264  104.8163 Br  0  0  0  0  0  0
   21.9231   13.0278  107.2945 H   0  0  0  0  0  0
   15.8239   15.8863  108.1084 H   0  0  0  0  0  0
   17.4060   18.4930  108.1605 H   0  0  0  0  0  0
   15.6756   18.4964  108.1527 H   0  0  0  0  0  0
   16.2329   17.4607  104.2604 H   0  0  0  0  0  0
   17.6989   17.1612  105.0272 H   0  0  0  0  0  0
   17.4317   14.7452  104.7665 H   0  0  0  0  0  0
   15.7326   14.8909  104.3992 H   0  0  0  0  0  0
   16.4146   14.9992  109.6838 H   0  0  0  0  0  0
   16.7526   13.4072  109.0973 H   0  0  0  0  0  0
   16.5455   12.1266  111.0522 H   0  0  0  0  0  0
   17.2928   11.5687  113.3370 H   0  0  0  0  0  0
   18.8608   13.0633  114.5232 H   0  0  0  0  0  0
   19.6589   15.1498  113.4466 H   0  0  0  0  0  0
   18.8997   15.7314  111.1838 H   0  0  0  0  0  0
   16.4672   18.7131  110.4341 H   0  0  0  0  0  0
   15.6155   17.1837  110.2733 H   0  0  0  0  0  0
   17.3837   17.2219  110.3286 H   0  0  0  0  0  0
   16.2058   16.0278  102.2492 H   0  0  0  0  0  0
   17.9190   16.0392  102.6075 H   0  0  0  0  0  0
   17.7319   13.6208  102.8289 H   0  0  0  0  0  0
   16.2085   13.7047  102.2786 H   0  0  0  0  0  0
   12.6949   18.1775  107.5922 H   0  0  0  0  0  0
   12.7870   13.2597  108.2437 H   0  0  0  0  0  0
   14.3801   14.3061  106.7028 H   0  0  0  0  0  0
   11.1200   17.1217  109.1538 H   0  0  0  0  0  0
   10.6640   15.1666  110.5574 H   0  0  0  0  0  0
    9.9807   14.2499  109.1914 H   0  0  0  0  0  0
   11.2799   13.5622  110.1568 H   0  0  0  0  0  0
  1  5  1  0  0  0
  1  2  2  0  0  0
  2 11  1  0  0  0
  2  3  1  0  0  0
  3 19  1  0  0  0
  3  4  1  0  0  0
  4 10  2  0  0  0
  4  6  1  0  0  0
  5  9  1  0  0  0
  5  6  2  0  0  0
  6  7  1  0  0  0
  7  8  2  0  0  0
  7 36  1  0  0  0
  8  9  1  0  0  0
  8 35  1  0  0  0
 11 12  1  0  0  0
 11 13  1  0  0  0
 11 37  1  0  0  0
 12 17  1  0  0  0
 12 14  1  0  0  0
 13 26  1  0  0  0
 13 38  1  0  0  0
 13 39  1  0  0  0
 14 15  1  0  0  0
 14 16  2  0  0  0
 15 29  2  0  0  0
 15 31  1  0  0  0
 17 18  1  0  0  0
 17 40  1  0  0  0
 17 41  1  0  0  0
 18 27  1  0  0  0
 18 42  1  0  0  0
 18 43  1  0  0  0
 19 20  1  0  0  0
 19 44  1  0  0  0
 19 45  1  0  0  0
 20 21  2  0  0  0
 20 25  1  0  0  0
 21 22  1  0  0  0
 21 46  1  0  0  0
 22 23  2  0  0  0
 22 47  1  0  0  0
 23 24  1  0  0  0
 23 48  1  0  0  0
 24 25  2  0  0  0
 24 49  1  0  0  0
 25 50  1  0  0  0
 26 51  1  0  0  0
 26 52  1  0  0  0
 26 53  1  0  0  0
 27 28  1  0  0  0
 27 54  1  0  0  0
 27 55  1  0  0  0
 28 56  1  0  0  0
 28 57  1  0  0  0
 29 33  1  0  0  0
 29 58  1  0  0  0
 30 32  1  0  0  0
 30 31  2  0  0  0
 30 59  1  0  0  0
 31 60  1  0  0  0
 32 33  2  0  0  0
 32 34  1  0  0  0
 33 61  1  0  0  0
 34 62  1  0  0  0
 34 63  1  0  0  0
 34 64  1  0  0  0
M  END
> <s_m_entry_id>
391

> <s_m_entry_name>
dock_pv.390

> <s_m_Source_Path>
/home/csk/Desktop/cluster/DUD-E-result/kif11

> <s_m_Source_File>
dock_pv.maegz

> <i_m_Source_File_Index>
390

> <chembl_id>
CHEMBL1829425

> <chembl_pref_name>
None

> <i_lp_mmshare_version>
53161

> <i_f3d_flags>
0

> <r_lp_tautomer_probability>
1

> <s_lp_Force_Field>
OPLS_2005

> <r_lp_Energy>
53.557003

> <b_lp_Chiralities_Consistent>
1

> <s_lp_Variant>
CHEMBL4581_lig534-1

> <s_i_glide_gridfile>
glide-grid_3cjo

> <i_i_glide_lignum>
792

> <i_i_glide_rotatable_bonds>
10

> <r_i_docking_score>
-7.41472930572588

> <r_i_glide_ligand_efficiency>
-0.211849408735025

> <r_i_glide_ligand_efficiency_sa>
-0.69297346292526

> <r_i_glide_ligand_efficiency_ln>
-1.62769764365746

> <r_i_glide_gscore>
-7.41472930572588

> <r_i_glide_lipo>
-4.19741827279934

> <r_i_glide_hbond>
-0.456

> <r_i_glide_metal>
0

> <r_i_glide_rewards>
-0.154037577093605

> <r_i_glide_evdw>
-45.8957824707031

> <r_i_glide_ecoul>
-5.21222448348999

> <r_i_glide_erotb>
0.46934934022572

> <r_i_glide_esite>
0

> <r_i_glide_emodel>
-57.4278052716272

> <r_i_glide_energy>
-51.1080069541931

> <r_i_glide_einternal>
19.2699680328369

> <i_i_glide_confnum>
102

> <i_i_glide_posenum>
25

> <r_i_glide_eff_state_penalty>
0

> <s_user_duplicate_titles>
CHEMBL4581_lig534

> <s_m_subgroup_title>
dock_pv

> <s_m_subgroupid>
dock_pv

> <b_m_subgroup_collapsed>
1

$$$$
CHEMBL4581_lig176
                    3D
 Schrodinger Suite 2021-1.
 31 32  0  0  1  0            999 V2000
   17.5191   13.1410  110.8893 C   0  0  0  0  0  0
   17.0660   12.9055  109.5930 C   0  0  0  0  0  0
   17.6608   13.5628  108.5295 C   0  0  0  0  0  0
   18.7012   14.4524  108.7796 C   0  0  0  0  0  0
   19.1054   14.7460  110.0789 C   0  0  0  0  0  0
   18.5146   14.0924  111.1417 C   0  0  0  0  0  0
   19.4886   14.9890  107.6817 C   0  0  0  0  0  0
   19.0837   16.1186  106.9756 C   0  0  0  0  0  0
   19.9360   16.6641  106.0247 C   0  0  0  0  0  0
   21.1761   16.0690  105.7951 C   0  0  0  0  0  0
   21.5310   14.8908  106.4476 C   0  0  0  0  0  0
   20.6966   14.3623  107.4044 C   0  0  0  0  0  0
   22.1784   16.6828  104.8553 C   0  0  0  0  0  0
   23.1179   17.2907  105.5784 F   0  0  0  0  0  0
   22.7180   15.6861  104.1590 F   0  0  0  0  0  0
   21.6370   17.5619  104.0119 F   0  0  0  0  0  0
   16.9245   12.3618  111.8700 N   0  0  0  0  0  0
   17.1378   12.3620  113.1879 C   0  0  0  0  0  0
   16.2726   11.5620  113.7597 N   0  0  0  0  0  0
   17.9747   12.9884  113.8281 O   0  0  0  0  0  0
   16.2930   12.1780  109.3930 H   0  0  0  0  0  0
   17.3609   13.3325  107.5168 H   0  0  0  0  0  0
   19.9148   15.4386  110.2620 H   0  0  0  0  0  0
   18.8786   14.3164  112.1308 H   0  0  0  0  0  0
   18.1399   16.5952  107.1976 H   0  0  0  0  0  0
   19.6496   17.5619  105.5009 H   0  0  0  0  0  0
   22.4817   14.4127  106.2575 H   0  0  0  0  0  0
   21.0008   13.4805  107.9502 H   0  0  0  0  0  0
   16.2139   11.7262  111.5411 H   0  0  0  0  0  0
   16.3304   11.4269  114.7562 H   0  0  0  0  0  0
   15.4993   11.1609  113.2331 H   0  0  0  0  0  0
  1  6  1  0  0  0
  1  2  2  0  0  0
  1 17  1  0  0  0
  2  3  1  0  0  0
  2 21  1  0  0  0
  3  4  2  0  0  0
  3 22  1  0  0  0
  4  7  1  0  0  0
  4  5  1  0  0  0
  5  6  2  0  0  0
  5 23  1  0  0  0
  6 24  1  0  0  0
  7 12  1  0  0  0
  7  8  2  0  0  0
  8  9  1  0  0  0
  8 25  1  0  0  0
  9 10  2  0  0  0
  9 26  1  0  0  0
 10 11  1  0  0  0
 10 13  1  0  0  0
 11 12  2  0  0  0
 11 27  1  0  0  0
 12 28  1  0  0  0
 13 14  1  0  0  0
 13 15  1  0  0  0
 13 16  1  0  0  0
 17 18  1  0  0  0
 17 29  1  0  0  0
 18 19  1  0  0  0
 18 20  2  0  0  0
 19 30  1  0  0  0
 19 31  1  0  0  0
M  END
> <s_m_entry_id>
392

> <s_m_entry_name>
dock_pv.391

> <s_m_Source_Path>
/home/csk/Desktop/cluster/DUD-E-result/kif11

> <s_m_Source_File>
dock_pv.maegz

> <i_m_Source_File_Index>
391

> <chembl_id>
CHEMBL243883

> <chembl_pref_name>
None

> <i_lp_mmshare_version>
53161

> <i_f3d_flags>
0

> <r_lp_tautomer_probability>
1

> <s_lp_Force_Field>
OPLS_2005

> <r_lp_Energy>
15.360528

> <b_lp_Chiralities_Consistent>
1

> <s_lp_Variant>
CHEMBL4581_lig176-1

> <s_i_glide_gridfile>
glide-grid_3cjo

> <i_i_glide_lignum>
272

> <i_i_glide_rotatable_bonds>
4

> <r_i_docking_score>
-7.4128585772116

> <r_i_glide_ligand_efficiency>
-0.37064292886058

> <r_i_glide_ligand_efficiency_sa>
-1.00607969456084

> <r_i_glide_ligand_efficiency_ln>
-1.85519400943704

> <r_i_glide_gscore>
-7.4128585772116

> <r_i_glide_lipo>
-3.013685746474

> <r_i_glide_hbond>
-0.502524801385179

> <r_i_glide_metal>
0

> <r_i_glide_rewards>
-2.53576417687926

> <r_i_glide_evdw>
-26.362756729126

> <r_i_glide_ecoul>
-3.22041821479797

> <r_i_glide_erotb>
0.459826815318676

> <r_i_glide_esite>
-0.0195100991158431

> <r_i_glide_emodel>
-40.6466098610435

> <r_i_glide_energy>
-29.583174943924

> <r_i_glide_einternal>
7.28449392318726

> <i_i_glide_confnum>
9

> <i_i_glide_posenum>
310

> <r_i_glide_eff_state_penalty>
0

> <s_user_duplicate_titles>
CHEMBL4581_lig176,389170

> <s_m_subgroup_title>
dock_pv

> <s_m_subgroupid>
dock_pv

> <b_m_subgroup_collapsed>
1

$$$$
CHEMBL4581_lig831
                    3D
 Schrodinger Suite 2021-1.
 46 48  0  0  1  0            999 V2000
   16.9538   18.7153  110.1749 C   0  0  0  0  0  0
   15.8105   19.1570  110.9584 N   0  0  0  0  0  0
   16.9669   17.1794  110.1172 C   0  0  0  0  0  0
   18.0968   16.6005  109.2218 C   0  0  0  0  0  0
   18.2901   15.0251  109.1447 C   0  0  0  0  0  0
   19.6154   14.7013  108.3634 C   0  0  0  0  0  0
   18.4059   14.4364  110.5961 C   0  0  0  0  0  0
   17.0478   14.4627  108.3646 C   0  0  0  0  0  0
   20.3900   13.5622  108.6621 C   0  0  0  0  0  0
   21.5180   13.2302  107.9086 C   0  0  0  0  0  0
   21.8878   14.0063  106.8179 C   0  0  0  0  0  0
   21.1938   15.1878  106.5590 C   0  0  0  0  0  0
   20.0692   15.5237  107.3133 C   0  0  0  0  0  0
   15.7863   14.4092  108.9845 C   0  0  0  0  0  0
   14.6581   13.9720  108.2983 C   0  0  0  0  0  0
   14.7743   13.5614  106.9753 C   0  0  0  0  0  0
   16.0148   13.5626  106.3463 C   0  0  0  0  0  0
   17.1391   14.0103  107.0324 C   0  0  0  0  0  0
   17.8337   13.1950  110.9323 C   0  0  0  0  0  0
   17.9121   12.6949  112.2291 C   0  0  0  0  0  0
   18.5945   13.4107  113.2057 C   0  0  0  0  0  0
   19.2099   14.6155  112.8871 C   0  0  0  0  0  0
   19.1175   15.1246  111.5949 C   0  0  0  0  0  0
   21.7761   16.2837  105.3587 Cl  0  0  0  0  0  0
   17.8720   19.1102  110.6130 H   0  0  0  0  0  0
   16.8666   19.1306  109.1708 H   0  0  0  0  0  0
   15.9186   18.8761  111.9287 H   0  0  0  0  0  0
   15.7699   20.1686  110.9686 H   0  0  0  0  0  0
   16.0006   16.8749  109.7224 H   0  0  0  0  0  0
   17.0308   16.7828  111.1302 H   0  0  0  0  0  0
   19.0368   17.0675  109.5171 H   0  0  0  0  0  0
   17.8994   16.9868  108.2221 H   0  0  0  0  0  0
   20.1118   12.8905  109.4607 H   0  0  0  0  0  0
   22.0954   12.3618  108.1576 H   0  0  0  0  0  0
   22.7581   13.7468  106.2330 H   0  0  0  0  0  0
   19.5526   16.4318  107.0445 H   0  0  0  0  0  0
   15.6688   14.7111  110.0136 H   0  0  0  0  0  0
   13.6956   13.9538  108.7885 H   0  0  0  0  0  0
   13.9015   13.2168  106.4400 H   0  0  0  0  0  0
   16.1081   13.2223  105.3255 H   0  0  0  0  0  0
   18.0719   13.9970  106.4908 H   0  0  0  0  0  0
   17.3262   12.5984  110.1888 H   0  0  0  0  0  0
   17.4504   11.7489  112.4719 H   0  0  0  0  0  0
   18.6643   13.0201  114.2117 H   0  0  0  0  0  0
   19.7609   15.1550  113.6410 H   0  0  0  0  0  0
   19.6144   16.0579  111.3808 H   0  0  0  0  0  0
  1  2  1  0  0  0
  1  3  1  0  0  0
  1 25  1  0  0  0
  1 26  1  0  0  0
  2 27  1  0  0  0
  2 28  1  0  0  0
  3  4  1  0  0  0
  3 29  1  0  0  0
  3 30  1  0  0  0
  4  5  1  0  0  0
  4 31  1  0  0  0
  4 32  1  0  0  0
  5  7  1  0  0  0
  5  8  1  0  0  0
  5  6  1  0  0  0
  6 13  1  0  0  0
  6  9  2  0  0  0
  7 19  2  0  0  0
  7 23  1  0  0  0
  8 14  2  0  0  0
  8 18  1  0  0  0
  9 10  1  0  0  0
  9 33  1  0  0  0
 10 11  2  0  0  0
 10 34  1  0  0  0
 11 12  1  0  0  0
 11 35  1  0  0  0
 12 13  2  0  0  0
 12 24  1  0  0  0
 13 36  1  0  0  0
 14 15  1  0  0  0
 14 37  1  0  0  0
 15 16  2  0  0  0
 15 38  1  0  0  0
 16 17  1  0  0  0
 16 39  1  0  0  0
 17 18  2  0  0  0
 17 40  1  0  0  0
 18 41  1  0  0  0
 19 20  1  0  0  0
 19 42  1  0  0  0
 20 21  2  0  0  0
 20 43  1  0  0  0
 21 22  1  0  0  0
 21 44  1  0  0  0
 22 23  2  0  0  0
 22 45  1  0  0  0
 23 46  1  0  0  0
M  END
> <s_m_entry_id>
393

> <s_m_entry_name>
dock_pv.392

> <s_m_Source_Path>
/home/csk/Desktop/cluster/DUD-E-result/kif11

> <s_m_Source_File>
dock_pv.maegz

> <i_m_Source_File_Index>
392

> <chembl_id>
CHEMBL2022993

> <chembl_pref_name>
None

> <i_lp_mmshare_version>
53161

> <i_f3d_flags>
0

> <r_lp_tautomer_probability>
1

> <s_lp_Force_Field>
OPLS_2005

> <r_lp_Energy>
29.320566

> <b_lp_Chiralities_Consistent>
1

> <s_lp_Variant>
CHEMBL4581_lig831-1

> <s_i_glide_gridfile>
glide-grid_3cjo

> <i_i_glide_lignum>
1218

> <i_i_glide_rotatable_bonds>
6

> <r_i_docking_score>
-7.4110596416254

> <r_i_glide_ligand_efficiency>
-0.308794151734392

> <r_i_glide_ligand_efficiency_sa>
-0.890716464361152

> <r_i_glide_ligand_efficiency_ln>
-1.77380664360856

> <r_i_glide_gscore>
-7.4110596416254

> <r_i_glide_lipo>
-4.67528099730845

> <r_i_glide_hbond>
-0.32

> <r_i_glide_metal>
0

> <r_i_glide_rewards>
-1.19102326324163

> <r_i_glide_evdw>
-38.5960006713867

> <r_i_glide_ecoul>
-0.878207325935364

> <r_i_glide_erotb>
0.836775751384324

> <r_i_glide_esite>
0

> <r_i_glide_emodel>
-56.399905598271

> <r_i_glide_energy>
-39.4742079973221

> <r_i_glide_einternal>
2.50592494010925

> <i_i_glide_confnum>
92

> <i_i_glide_posenum>
321

> <r_i_glide_eff_state_penalty>
0

> <s_user_duplicate_titles>
CHEMBL4581_lig831

> <s_m_subgroup_title>
dock_pv

> <s_m_subgroupid>
dock_pv

> <b_m_subgroup_collapsed>
1

$$$$
CHEMBL4581_lig290
                    3D
 Schrodinger Suite 2021-1.
 48 51  0  0  1  0            999 V2000
   19.1152   15.5898  109.7381 N   0  0  0  0  0  0
   17.6557   14.0751  108.9913 C   0  0  0  0  0  0
   18.4737   15.1220  108.6252 C   0  0  0  0  0  0
   18.6386   15.7032  107.2189 C   0  0  2  0  0  0
   17.5848   15.1210  106.3116 N   0  0  0  0  0  0
   16.3843   14.4631  106.9123 C   0  0  0  0  0  0
   16.8198   13.3894  107.9418 C   0  0  0  0  0  0
   18.7848   14.8399  110.8392 C   0  0  0  0  0  0
   17.8358   13.8666  110.4048 C   0  0  0  0  0  0
   17.3044   12.9795  111.3579 C   0  0  0  0  0  0
   17.7152   13.0926  112.6904 C   0  0  0  0  0  0
   18.6753   14.0293  113.0665 C   0  0  0  0  0  0
   19.2273   14.9276  112.1590 C   0  0  0  0  0  0
   20.1033   15.5644  106.7529 C   0  0  0  0  0  0
   20.7415   16.6191  106.0907 C   0  0  0  0  0  0
   22.0336   16.4603  105.5965 C   0  0  0  0  0  0
   22.6890   15.2414  105.7586 C   0  0  0  0  0  0
   22.0721   14.1879  106.4279 C   0  0  0  0  0  0
   20.7913   14.3624  106.9418 C   0  0  0  0  0  0
   17.4920   15.5618  105.0174 C   0  0  0  0  0  0
   18.2925   16.3620  104.5300 O   0  0  0  0  0  0
   16.4492   14.9231  104.0660 C   0  0  0  0  0  0
   16.5177   15.3307  102.5740 C   0  0  0  0  0  0
   16.1467   16.7204  102.3594 N   0  0  0  0  0  0
   17.1171   12.2038  113.7598 C   0  0  0  0  0  0
   19.7579   16.3662  109.6976 H   0  0  0  0  0  0
   18.4117   16.7657  107.3028 H   0  0  0  0  0  0
   15.7983   13.8943  106.1911 H   0  0  0  0  0  0
   15.7532   15.2087  107.3987 H   0  0  0  0  0  0
   15.9324   12.9393  108.3891 H   0  0  0  0  0  0
   17.3628   12.5774  107.4558 H   0  0  0  0  0  0
   16.5744   12.2375  111.0671 H   0  0  0  0  0  0
   18.9953   14.0710  114.0974 H   0  0  0  0  0  0
   19.9591   15.6585  112.4693 H   0  0  0  0  0  0
   20.2262   17.5569  105.9375 H   0  0  0  0  0  0
   22.5170   17.2721  105.0735 H   0  0  0  0  0  0
   23.6847   15.1115  105.3621 H   0  0  0  0  0  0
   22.5870   13.2472  106.5556 H   0  0  0  0  0  0
   20.3178   13.5622  107.4806 H   0  0  0  0  0  0
   15.4487   15.1468  104.4368 H   0  0  0  0  0  0
   16.5878   13.8423  104.1170 H   0  0  0  0  0  0
   15.8403   14.7001  101.9961 H   0  0  0  0  0  0
   17.5166   15.1575  102.1741 H   0  0  0  0  0  0
   16.0900   16.9300  101.3728 H   0  0  0  0  0  0
   15.2293   16.9036  102.7421 H   0  0  0  0  0  0
   17.8787   11.9621  114.5002 H   0  0  0  0  0  0
   16.3184   12.7240  114.2841 H   0  0  0  0  0  0
   16.7254   11.2699  113.3550 H   0  0  0  0  0  0
  1  8  1  0  0  0
  1  3  1  0  0  0
  1 26  1  0  0  0
  2  7  1  0  0  0
  2  9  1  0  0  0
  2  3  2  0  0  0
  3  4  1  0  0  0
  4  5  1  0  0  0
  4 14  1  0  0  0
  4 27  1  0  0  0
  5  6  1  0  0  0
  5 20  1  0  0  0
  6  7  1  0  0  0
  6 28  1  0  0  0
  6 29  1  0  0  0
  7 30  1  0  0  0
  7 31  1  0  0  0
  8 13  1  0  0  0
  8  9  2  0  0  0
  9 10  1  0  0  0
 10 11  2  0  0  0
 10 32  1  0  0  0
 11 12  1  0  0  0
 11 25  1  0  0  0
 12 13  2  0  0  0
 12 33  1  0  0  0
 13 34  1  0  0  0
 14 15  2  0  0  0
 14 19  1  0  0  0
 15 16  1  0  0  0
 15 35  1  0  0  0
 16 17  2  0  0  0
 16 36  1  0  0  0
 17 18  1  0  0  0
 17 37  1  0  0  0
 18 19  2  0  0  0
 18 38  1  0  0  0
 19 39  1  0  0  0
 20 21  2  0  0  0
 20 22  1  0  0  0
 22 23  1  0  0  0
 22 40  1  0  0  0
 22 41  1  0  0  0
 23 24  1  0  0  0
 23 42  1  0  0  0
 23 43  1  0  0  0
 24 44  1  0  0  0
 24 45  1  0  0  0
 25 46  1  0  0  0
 25 47  1  0  0  0
 25 48  1  0  0  0
M  END
> <s_m_entry_id>
394

> <s_m_entry_name>
dock_pv.393

> <s_m_Source_Path>
/home/csk/Desktop/cluster/DUD-E-result/kif11

> <s_m_Source_File>
dock_pv.maegz

> <i_m_Source_File_Index>
393

> <chembl_id>
CHEMBL589393

> <chembl_pref_name>
None

> <i_lp_mmshare_version>
53161

> <i_f3d_flags>
0

> <r_lp_tautomer_probability>
1

> <s_lp_Force_Field>
OPLS_2005

> <r_lp_Energy>
29.279967

> <b_lp_Chiralities_Consistent>
1

> <s_lp_Variant>
CHEMBL4581_lig290-1

> <s_i_glide_gridfile>
glide-grid_3cjo

> <i_i_glide_lignum>
416

> <i_i_glide_rotatable_bonds>
4

> <r_i_docking_score>
-7.41053522032197

> <r_i_glide_ligand_efficiency>
-0.296421408812879

> <r_i_glide_ligand_efficiency_sa>
-0.866741456424927

> <r_i_glide_ligand_efficiency_ln>
-1.75651892303644

> <r_i_glide_gscore>
-7.41053522032197

> <r_i_glide_lipo>
-4.38004031334584

> <r_i_glide_hbond>
-0.0565754668106785

> <r_i_glide_metal>
0

> <r_i_glide_rewards>
-1.25085288103392

> <r_i_glide_evdw>
-41.2517242431641

> <r_i_glide_ecoul>
-0.913826882839203

> <r_i_glide_erotb>
0.508593759632098

> <r_i_glide_esite>
-0.0320000741795433

> <r_i_glide_emodel>
-59.4351184849011

> <r_i_glide_energy>
-42.1655511260033

> <r_i_glide_einternal>
1.81342017650604

> <i_i_glide_confnum>
4

> <i_i_glide_posenum>
128

> <r_i_glide_eff_state_penalty>
0

> <s_user_duplicate_titles>
CHEMBL4581_lig290,590316

> <s_m_subgroup_title>
dock_pv

> <s_m_subgroupid>
dock_pv

> <b_m_subgroup_collapsed>
1

$$$$
CHEMBL4581_lig839
                    3D
 Schrodinger Suite 2021-1.
 48 50  0  0  1  0            999 V2000
   15.0140   13.6621  106.4541 C   0  0  1  0  0  0
   14.8944   12.3623  105.7588 N   0  0  0  0  0  0
   16.4415   13.9113  107.0058 C   0  0  0  0  0  0
   16.6965   13.1621  108.6551 S   0  0  0  0  0  0
   17.6294   14.4173  109.6743 C   0  0  0  0  0  0
   16.7942   15.7389  109.8404 C   0  0  0  0  0  0
   17.8787   13.8633  111.1158 C   0  0  0  0  0  0
   18.9409   14.5349  108.8414 C   0  0  0  0  0  0
   15.3895   15.7088  109.7253 C   0  0  0  0  0  0
   14.6137   16.8601  109.8398 C   0  0  0  0  0  0
   15.2200   18.0831  110.0988 C   0  0  0  0  0  0
   16.5993   18.1467  110.2532 C   0  0  0  0  0  0
   17.3795   16.9952  110.1382 C   0  0  0  0  0  0
   19.0900   15.5112  107.8407 C   0  0  0  0  0  0
   20.1633   15.4708  106.9597 C   0  0  0  0  0  0
   21.1182   14.4722  107.0946 C   0  0  0  0  0  0
   21.0603   13.5621  108.1472 C   0  0  0  0  0  0
   19.9652   13.5841  109.0040 C   0  0  0  0  0  0
   17.1184   12.8145  111.6651 C   0  0  0  0  0  0
   17.3464   12.3618  112.9617 C   0  0  0  0  0  0
   18.3387   12.9459  113.7379 C   0  0  0  0  0  0
   19.1186   13.9686  113.2122 C   0  0  0  0  0  0
   18.9001   14.4105  111.9101 C   0  0  0  0  0  0
   14.5470   14.8119  105.5217 C   0  0  0  0  0  0
   14.3637   14.6882  104.3095 O   0  0  0  0  0  0
   14.3573   15.9705  106.2242 O   0  0  0  0  0  0
   18.7182   17.1568  110.3576 O   0  0  0  0  0  0
   14.3204   13.6692  107.2958 H   0  0  0  0  0  0
   15.1543   11.6062  106.3916 H   0  0  0  0  0  0
   13.9416   12.1816  105.4724 H   0  0  0  0  0  0
   16.6310   14.9782  107.0929 H   0  0  0  0  0  0
   17.1984   13.5224  106.3199 H   0  0  0  0  0  0
   14.8631   14.7831  109.5577 H   0  0  0  0  0  0
   13.5388   16.8031  109.7450 H   0  0  0  0  0  0
   14.6229   18.9780  110.2005 H   0  0  0  0  0  0
   17.0561   19.1000  110.4780 H   0  0  0  0  0  0
   18.3434   16.2756  107.6946 H   0  0  0  0  0  0
   20.2427   16.1973  106.1659 H   0  0  0  0  0  0
   21.9443   14.4321  106.3996 H   0  0  0  0  0  0
   21.8261   12.8086  108.2548 H   0  0  0  0  0  0
   19.8866   12.8133  109.7563 H   0  0  0  0  0  0
   16.3170   12.3417  111.1178 H   0  0  0  0  0  0
   16.7361   11.5662  113.3653 H   0  0  0  0  0  0
   18.5101   12.5973  114.7473 H   0  0  0  0  0  0
   19.9047   14.4095  113.8072 H   0  0  0  0  0  0
   19.5364   15.1901  111.5242 H   0  0  0  0  0  0
   14.5654   15.8896  107.1559 H   0  0  0  0  0  0
   18.9415   18.0617  110.5878 H   0  0  0  0  0  0
  1  3  1  0  0  0
  1 24  1  0  0  0
  1  2  1  0  0  0
  1 28  1  0  0  0
  2 29  1  0  0  0
  2 30  1  0  0  0
  3  4  1  0  0  0
  3 31  1  0  0  0
  3 32  1  0  0  0
  4  5  1  0  0  0
  5  7  1  0  0  0
  5  8  1  0  0  0
  5  6  1  0  0  0
  6  9  2  0  0  0
  6 13  1  0  0  0
  7 19  2  0  0  0
  7 23  1  0  0  0
  8 14  2  0  0  0
  8 18  1  0  0  0
  9 10  1  0  0  0
  9 33  1  0  0  0
 10 11  2  0  0  0
 10 34  1  0  0  0
 11 12  1  0  0  0
 11 35  1  0  0  0
 12 13  2  0  0  0
 12 36  1  0  0  0
 13 27  1  0  0  0
 14 15  1  0  0  0
 14 37  1  0  0  0
 15 16  2  0  0  0
 15 38  1  0  0  0
 16 17  1  0  0  0
 16 39  1  0  0  0
 17 18  2  0  0  0
 17 40  1  0  0  0
 18 41  1  0  0  0
 19 20  1  0  0  0
 19 42  1  0  0  0
 20 21  2  0  0  0
 20 43  1  0  0  0
 21 22  1  0  0  0
 21 44  1  0  0  0
 22 23  2  0  0  0
 22 45  1  0  0  0
 23 46  1  0  0  0
 24 25  2  0  0  0
 24 26  1  0  0  0
 26 47  1  0  0  0
 27 48  1  0  0  0
M  END
> <s_m_entry_id>
395

> <s_m_entry_name>
dock_pv.394

> <s_m_Source_Path>
/home/csk/Desktop/cluster/DUD-E-result/kif11

> <s_m_Source_File>
dock_pv.maegz

> <i_m_Source_File_Index>
394

> <chembl_id>
CHEMBL2023003

> <chembl_pref_name>
None

> <i_lp_mmshare_version>
53161

> <i_f3d_flags>
0

> <r_lp_tautomer_probability>
0.999999999997365

> <s_lp_Force_Field>
OPLS_2005

> <r_lp_Energy>
29.190543

> <b_lp_Chiralities_Consistent>
1

> <s_lp_Variant>
CHEMBL4581_lig839-1

> <s_i_glide_gridfile>
glide-grid_3cjo

> <i_i_glide_lignum>
1226

> <i_i_glide_rotatable_bonds>
9

> <r_i_docking_score>
-7.40895781726558

> <r_i_glide_ligand_efficiency>
-0.274405845083911

> <r_i_glide_ligand_efficiency_sa>
-0.823217534347335

> <r_i_glide_ligand_efficiency_ln>
-1.72468323364357

> <r_i_glide_gscore>
-7.40895781726558

> <r_i_glide_lipo>
-4.47483373378101

> <r_i_glide_hbond>
-0.32

> <r_i_glide_metal>
0

> <r_i_glide_rewards>
-0.93010806060606

> <r_i_glide_evdw>
-40.7964553833008

> <r_i_glide_ecoul>
-3.91183304786682

> <r_i_glide_erotb>
0.942581703466547

> <r_i_glide_esite>
0

> <r_i_glide_emodel>
-63.7354354490842

> <r_i_glide_energy>
-44.7082884311676

> <r_i_glide_einternal>
3.64013385772705

> <i_i_glide_confnum>
139

> <i_i_glide_posenum>
14

> <r_i_glide_eff_state_penalty>
0

> <s_user_duplicate_titles>
CHEMBL4581_lig839

> <s_m_subgroup_title>
dock_pv

> <s_m_subgroupid>
dock_pv

> <b_m_subgroup_collapsed>
1

$$$$
CHEMBL4581_lig772
                    3D
 Schrodinger Suite 2021-1.
 47 50  0  0  1  0            999 V2000
   16.7520   15.1056  108.0868 C   0  0  2  0  0  0
   15.6605   14.1112  107.5620 C   0  0  0  0  0  0
   14.3029   14.2235  108.2794 C   0  0  0  0  0  0
   13.8316   15.5673  108.2331 O   0  0  0  0  0  0
   17.7294   15.5633  106.6403 S   0  0  0  0  0  0
   19.2136   15.0056  107.4627 C   0  0  0  0  0  0
   19.0493   14.4693  108.5968 N   0  0  0  0  0  0
   17.7515   14.4700  108.9813 N   0  0  0  0  0  0
   20.5059   15.1729  106.7914 C   0  0  0  0  0  0
   20.7298   16.3139  106.0061 C   0  0  0  0  0  0
   21.9195   16.4623  105.3027 C   0  0  0  0  0  0
   22.8865   15.4648  105.3594 C   0  0  0  0  0  0
   22.6836   14.3325  106.1346 C   0  0  0  0  0  0
   21.5180   14.1980  106.8833 C   0  0  0  0  0  0
   17.4265   13.9737  110.2091 C   0  0  0  0  0  0
   16.3179   14.1308  110.7132 O   0  0  0  0  0  0
   18.4774   13.1572  110.9932 C   0  0  0  0  0  0
   21.4398   13.1552  107.7416 F   0  0  0  0  0  0
   22.1227   17.5618  104.5489 F   0  0  0  0  0  0
   16.1083   16.3766  108.6756 C   0  0  0  0  0  0
   14.7060   16.5070  108.7394 C   0  0  0  0  0  0
   14.1108   17.6412  109.2905 C   0  0  0  0  0  0
   14.9036   18.6638  109.8059 C   0  0  0  0  0  0
   16.2902   18.5530  109.7625 C   0  0  0  0  0  0
   16.8819   17.4199  109.2084 C   0  0  0  0  0  0
   17.9735   12.4890  112.2931 C   0  0  0  0  0  0
   17.7772   13.4742  113.4510 C   0  0  0  0  0  0
   17.1817   12.7618  114.5591 N   0  0  0  0  0  0
   16.0193   13.0804  107.5980 H   0  0  0  0  0  0
   15.4455   14.2945  106.5076 H   0  0  0  0  0  0
   14.3648   13.8844  109.3108 H   0  0  0  0  0  0
   13.5679   13.5819  107.7926 H   0  0  0  0  0  0
   19.9901   17.0980  105.9298 H   0  0  0  0  0  0
   23.8098   15.5605  104.8245 H   0  0  0  0  0  0
   23.4435   13.5682  106.1611 H   0  0  0  0  0  0
   18.7749   12.3628  110.3108 H   0  0  0  0  0  0
   19.3604   13.7645  111.1965 H   0  0  0  0  0  0
   13.0345   17.7252  109.3173 H   0  0  0  0  0  0
   14.4462   19.5415  110.2374 H   0  0  0  0  0  0
   16.9098   19.3425  110.1587 H   0  0  0  0  0  0
   17.9605   17.3520  109.1890 H   0  0  0  0  0  0
   17.0423   11.9532  112.0910 H   0  0  0  0  0  0
   18.6882   11.7271  112.6063 H   0  0  0  0  0  0
   18.7270   13.9163  113.7569 H   0  0  0  0  0  0
   17.1179   14.2923  113.1618 H   0  0  0  0  0  0
   17.8824   12.2257  115.0589 H   0  0  0  0  0  0
   16.8035   13.4174  115.2273 H   0  0  0  0  0  0
  1  2  1  0  0  0
  1 20  1  0  0  0
  1  8  1  0  0  0
  1  5  1  0  0  0
  2  3  1  0  0  0
  2 29  1  0  0  0
  2 30  1  0  0  0
  3  4  1  0  0  0
  3 31  1  0  0  0
  3 32  1  0  0  0
  4 21  1  0  0  0
  5  6  1  0  0  0
  6  7  2  0  0  0
  6  9  1  0  0  0
  7  8  1  0  0  0
  8 15  1  0  0  0
  9 10  2  0  0  0
  9 14  1  0  0  0
 10 11  1  0  0  0
 10 33  1  0  0  0
 11 12  2  0  0  0
 11 19  1  0  0  0
 12 13  1  0  0  0
 12 34  1  0  0  0
 13 14  2  0  0  0
 13 35  1  0  0  0
 14 18  1  0  0  0
 15 16  2  0  0  0
 15 17  1  0  0  0
 17 26  1  0  0  0
 17 36  1  0  0  0
 17 37  1  0  0  0
 20 21  2  0  0  0
 20 25  1  0  0  0
 21 22  1  0  0  0
 22 23  2  0  0  0
 22 38  1  0  0  0
 23 24  1  0  0  0
 23 39  1  0  0  0
 24 25  2  0  0  0
 24 40  1  0  0  0
 25 41  1  0  0  0
 26 27  1  0  0  0
 26 42  1  0  0  0
 26 43  1  0  0  0
 27 28  1  0  0  0
 27 44  1  0  0  0
 27 45  1  0  0  0
 28 46  1  0  0  0
 28 47  1  0  0  0
M  END
> <s_m_entry_id>
396

> <s_m_entry_name>
dock_pv.395

> <s_m_Source_Path>
/home/csk/Desktop/cluster/DUD-E-result/kif11

> <s_m_Source_File>
dock_pv.maegz

> <i_m_Source_File_Index>
395

> <chembl_id>
CHEMBL3402350

> <chembl_pref_name>
None

> <i_lp_mmshare_version>
53161

> <i_f3d_flags>
0

> <r_lp_tautomer_probability>
1

> <s_lp_Force_Field>
OPLS_2005

> <r_lp_Energy>
27.341565

> <b_lp_Chiralities_Consistent>
1

> <s_lp_Variant>
CHEMBL4581_lig772-1

> <s_i_glide_gridfile>
glide-grid_3cjo

> <i_i_glide_lignum>
1149

> <i_i_glide_rotatable_bonds>
5

> <r_i_docking_score>
-7.4081187152472

> <r_i_glide_ligand_efficiency>
-0.264575668401686

> <r_i_glide_ligand_efficiency_sa>
-0.803407556002819

> <r_i_glide_ligand_efficiency_ln>
-1.71001131129601

> <r_i_glide_gscore>
-7.4081187152472

> <r_i_glide_lipo>
-3.35505881860084

> <r_i_glide_hbond>
-0.0741783523519959

> <r_i_glide_metal>
0

> <r_i_glide_rewards>
-2.13579553093528

> <r_i_glide_evdw>
-39.7353668212891

> <r_i_glide_ecoul>
-2.25870561599731

> <r_i_glide_erotb>
0.482488170104962

> <r_i_glide_esite>
0

> <r_i_glide_emodel>
-58.7947960032999

> <r_i_glide_energy>
-41.9940724372864

> <r_i_glide_einternal>
2.79938006401062

> <i_i_glide_confnum>
14

> <i_i_glide_posenum>
248

> <r_i_glide_eff_state_penalty>
0

> <s_user_duplicate_titles>
CHEMBL4581_lig772

> <s_m_subgroup_title>
dock_pv

> <s_m_subgroupid>
dock_pv

> <b_m_subgroup_collapsed>
1

$$$$
CHEMBL4581_lig607
                    3D
 Schrodinger Suite 2021-1.
 43 45  0  0  1  0            999 V2000
   15.9477   13.0305  105.9983 C   0  0  0  0  0  0
   16.7969   13.8683  106.9587 C   0  0  0  0  0  0
   16.3175   13.3711  104.6367 N   0  0  0  0  0  0
   16.5869   13.4710  108.7230 S   0  0  0  0  0  0
   17.7686   14.5380  109.6993 C   0  0  0  0  0  0
   17.4354   18.3157  110.4359 C   0  0  0  0  0  0
   17.9749   17.0670  110.1542 C   0  0  0  0  0  0
   17.1492   15.9411  109.9829 C   0  0  0  0  0  0
   15.7622   16.1133  110.1197 C   0  0  0  0  0  0
   15.2197   17.3630  110.4042 C   0  0  0  0  0  0
   16.0588   18.4618  110.5592 C   0  0  0  0  0  0
   18.0154   13.9093  111.1090 C   0  0  0  0  0  0
   18.9638   14.4908  111.9706 C   0  0  0  0  0  0
   19.1206   13.9930  113.2654 C   0  0  0  0  0  0
   18.4128   12.9440  113.7478 N   0  0  0  0  0  0
   17.5176   12.3634  112.9140 C   0  0  0  0  0  0
   17.2972   12.8016  111.6079 C   0  0  0  0  0  0
   19.0568   14.5861  108.8216 C   0  0  0  0  0  0
   20.0604   13.6157  108.9604 C   0  0  0  0  0  0
   21.1183   13.5618  108.0562 C   0  0  0  0  0  0
   21.1688   14.4562  106.9887 C   0  0  0  0  0  0
   20.2357   15.4781  106.8836 C   0  0  0  0  0  0
   19.1972   15.5510  107.8031 C   0  0  0  0  0  0
   16.1336   11.9653  106.1556 H   0  0  0  0  0  0
   14.8843   13.2065  106.1581 H   0  0  0  0  0  0
   16.5977   14.9313  106.8130 H   0  0  0  0  0  0
   17.8379   13.6841  106.6942 H   0  0  0  0  0  0
   17.3129   13.1616  104.5032 H   0  0  0  0  0  0
   15.8199   12.7749  103.9911 H   0  0  0  0  0  0
   18.0907   19.1608  110.5737 H   0  0  0  0  0  0
   19.0489   16.9826  110.0811 H   0  0  0  0  0  0
   15.0891   15.2766  110.0233 H   0  0  0  0  0  0
   14.1521   17.4771  110.5129 H   0  0  0  0  0  0
   15.6408   19.4301  110.7916 H   0  0  0  0  0  0
   19.5593   15.3317  111.6497 H   0  0  0  0  0  0
   19.8357   14.4361  113.9415 H   0  0  0  0  0  0
   16.9461   11.5423  113.3205 H   0  0  0  0  0  0
   16.5451   12.2843  111.0328 H   0  0  0  0  0  0
   19.9939   12.8600  109.7294 H   0  0  0  0  0  0
   21.8673   12.7899  108.1431 H   0  0  0  0  0  0
   21.9673   14.3832  106.2634 H   0  0  0  0  0  0
   20.2978   16.1935  106.0752 H   0  0  0  0  0  0
   18.4501   16.3176  107.6569 H   0  0  0  0  0  0
  1  2  1  0  0  0
  1  3  1  0  0  0
  1 24  1  0  0  0
  1 25  1  0  0  0
  2  4  1  0  0  0
  2 26  1  0  0  0
  2 27  1  0  0  0
  3 28  1  0  0  0
  3 29  1  0  0  0
  4  5  1  0  0  0
  5  8  1  0  0  0
  5 12  1  0  0  0
  5 18  1  0  0  0
  6  7  1  0  0  0
  6 11  2  0  0  0
  6 30  1  0  0  0
  7  8  2  0  0  0
  7 31  1  0  0  0
  8  9  1  0  0  0
  9 10  2  0  0  0
  9 32  1  0  0  0
 10 11  1  0  0  0
 10 33  1  0  0  0
 11 34  1  0  0  0
 12 13  1  0  0  0
 12 17  2  0  0  0
 13 14  2  0  0  0
 13 35  1  0  0  0
 14 15  1  0  0  0
 14 36  1  0  0  0
 15 16  2  0  0  0
 16 17  1  0  0  0
 16 37  1  0  0  0
 17 38  1  0  0  0
 18 19  1  0  0  0
 18 23  2  0  0  0
 19 20  2  0  0  0
 19 39  1  0  0  0
 20 21  1  0  0  0
 20 40  1  0  0  0
 21 22  2  0  0  0
 21 41  1  0  0  0
 22 23  1  0  0  0
 22 42  1  0  0  0
 23 43  1  0  0  0
M  END
> <s_m_entry_id>
397

> <s_m_entry_name>
dock_pv.396

> <s_m_Source_Path>
/home/csk/Desktop/cluster/DUD-E-result/kif11

> <s_m_Source_File>
dock_pv.maegz

> <i_m_Source_File_Index>
396

> <chembl_id>
CHEMBL2043394

> <chembl_pref_name>
None

> <i_lp_mmshare_version>
53161

> <i_f3d_flags>
0

> <r_lp_tautomer_probability>
1

> <s_lp_Force_Field>
OPLS_2005

> <r_lp_Energy>
21.780332

> <b_lp_Chiralities_Consistent>
1

> <s_lp_Variant>
CHEMBL4581_lig607-1

> <s_i_glide_gridfile>
glide-grid_3cjo

> <i_i_glide_lignum>
938

> <i_i_glide_rotatable_bonds>
6

> <r_i_docking_score>
-7.40608544071967

> <r_i_glide_ligand_efficiency>
-0.322003714813899

> <r_i_glide_ligand_efficiency_sa>
-0.915735730991692

> <r_i_glide_ligand_efficiency_ln>
-1.79085861423595

> <r_i_glide_gscore>
-7.40608544071967

> <r_i_glide_lipo>
-4.41871229466363

> <r_i_glide_hbond>
-0.16

> <r_i_glide_metal>
0

> <r_i_glide_rewards>
-1.26585621212121

> <r_i_glide_evdw>
-40.2788887023926

> <r_i_glide_ecoul>
-3.04510498046875

> <r_i_glide_erotb>
0.909193248255111

> <r_i_glide_esite>
0

> <r_i_glide_emodel>
-61.7399227564322

> <r_i_glide_energy>
-43.3239936828613

> <r_i_glide_einternal>
3.46191048622131

> <i_i_glide_confnum>
157

> <i_i_glide_posenum>
265

> <r_i_glide_eff_state_penalty>
0

> <s_user_duplicate_titles>
CHEMBL4581_lig607

> <s_m_subgroup_title>
dock_pv

> <s_m_subgroupid>
dock_pv

> <b_m_subgroup_collapsed>
1

$$$$
CHEMBL4581_lig6
                    3D
 Schrodinger Suite 2021-1.
 34 36  0  0  1  0            999 V2000
   23.5180   14.9085  105.6791 N   0  0  0  0  0  0
   22.1983   15.5654  105.3647 C   0  0  0  0  0  0
   23.1180   14.6636  104.5639 N   0  0  0  0  0  0
   17.3893   13.3046  111.6185 C   0  0  0  0  0  0
   16.9621   12.6722  110.4554 C   0  0  0  0  0  0
   17.3854   13.1621  109.2300 C   0  0  0  0  0  0
   18.2156   14.2807  109.2019 C   0  0  0  0  0  0
   18.4687   15.0251  110.3508 C   0  0  0  0  0  0
   18.0568   14.5337  111.5722 C   0  0  0  0  0  0
   19.0987   14.4902  108.0671 C   0  0  0  0  0  0
   18.7805   15.3029  106.9849 C   0  0  0  0  0  0
   19.7630   15.5622  106.0377 C   0  0  0  0  0  0
   21.0373   14.9926  106.1693 C   0  0  0  0  0  0
   21.2796   14.0532  107.1738 C   0  0  0  0  0  0
   20.3382   13.8688  108.1591 C   0  0  0  0  0  0
   17.8339   12.7619  113.9355 C   0  0  0  0  0  0
   18.9820   13.1773  114.0513 O   0  0  0  0  0  0
   22.3012   17.0890  105.1824 C   0  0  0  0  0  0
   21.9180   17.4747  103.9672 F   0  0  0  0  0  0
   21.5180   17.7038  106.0510 F   0  0  0  0  0  0
   23.5180   17.5634  105.4228 F   0  0  0  0  0  0
   17.1180   12.6612  112.8156 N   0  0  0  0  0  0
   17.1180   12.3620  114.9590 N   0  0  0  0  0  0
   16.4101   11.7435  110.4945 H   0  0  0  0  0  0
   17.1967   12.5867  108.3338 H   0  0  0  0  0  0
   19.1093   15.8955  110.3177 H   0  0  0  0  0  0
   18.3404   15.0620  112.4707 H   0  0  0  0  0  0
   17.8154   15.7835  106.9190 H   0  0  0  0  0  0
   19.5566   16.2728  105.2515 H   0  0  0  0  0  0
   22.2364   13.5684  107.2976 H   0  0  0  0  0  0
   20.5695   13.2249  108.9965 H   0  0  0  0  0  0
   16.3396   12.0200  112.8131 H   0  0  0  0  0  0
   16.1589   12.0722  114.8613 H   0  0  0  0  0  0
   17.5964   12.2908  115.8522 H   0  0  0  0  0  0
  1  2  1  0  0  0
  1  3  2  0  0  0
  2 13  1  0  0  0
  2 18  1  0  0  0
  2  3  1  0  0  0
  4  9  1  0  0  0
  4  5  2  0  0  0
  4 22  1  0  0  0
  5  6  1  0  0  0
  5 24  1  0  0  0
  6  7  2  0  0  0
  6 25  1  0  0  0
  7  8  1  0  0  0
  7 10  1  0  0  0
  8  9  2  0  0  0
  8 26  1  0  0  0
  9 27  1  0  0  0
 10 11  2  0  0  0
 10 15  1  0  0  0
 11 12  1  0  0  0
 11 28  1  0  0  0
 12 13  2  0  0  0
 12 29  1  0  0  0
 13 14  1  0  0  0
 14 15  2  0  0  0
 14 30  1  0  0  0
 15 31  1  0  0  0
 16 17  2  0  0  0
 16 22  1  0  0  0
 16 23  1  0  0  0
 18 19  1  0  0  0
 18 20  1  0  0  0
 18 21  1  0  0  0
 22 32  1  0  0  0
 23 33  1  0  0  0
 23 34  1  0  0  0
M  END
> <s_m_entry_id>
398

> <s_m_entry_name>
dock_pv.397

> <s_m_Source_Path>
/home/csk/Desktop/cluster/DUD-E-result/kif11

> <s_m_Source_File>
dock_pv.maegz

> <i_m_Source_File_Index>
397

> <chembl_id>
CHEMBL1222255

> <chembl_pref_name>
None

> <i_lp_mmshare_version>
53161

> <i_f3d_flags>
0

> <r_lp_tautomer_probability>
1

> <s_lp_Force_Field>
OPLS_2005

> <r_lp_Energy>
31.624877

> <b_lp_Chiralities_Consistent>
1

> <s_lp_Variant>
CHEMBL4581_lig6-1

> <s_i_glide_gridfile>
glide-grid_3cjo

> <i_i_glide_lignum>
7

> <i_i_glide_rotatable_bonds>
5

> <r_i_docking_score>
-7.40357305436249

> <r_i_glide_ligand_efficiency>
-0.321894480624456

> <r_i_glide_ligand_efficiency_sa>
-0.91542508348759

> <r_i_glide_ligand_efficiency_ln>
-1.79025109643373

> <r_i_glide_gscore>
-7.40357305436249

> <r_i_glide_lipo>
-2.81281428188614

> <r_i_glide_hbond>
-0.32

> <r_i_glide_metal>
0

> <r_i_glide_rewards>
-2.80658961941317

> <r_i_glide_evdw>
-30.6792697906494

> <r_i_glide_ecoul>
-3.1751389503479

> <r_i_glide_erotb>
0.546065179021472

> <r_i_glide_esite>
0

> <r_i_glide_emodel>
-39.7152845562423

> <r_i_glide_energy>
-33.8544087409973

> <r_i_glide_einternal>
12.9364862442017

> <i_i_glide_confnum>
11

> <i_i_glide_posenum>
158

> <r_i_glide_eff_state_penalty>
0

> <s_user_duplicate_titles>
CHEMBL4581_lig6,688689

> <s_m_subgroup_title>
dock_pv

> <s_m_subgroupid>
dock_pv

> <b_m_subgroup_collapsed>
1

$$$$
CHEMBL4581_lig207
                    3D
 Schrodinger Suite 2021-1.
 57 60  0  0  1  0            999 V2000
   18.3092   13.0455  113.7821 C   0  0  0  0  0  0
   19.1181   14.0768  113.3189 C   0  0  0  0  0  0
   19.1229   14.4119  111.9740 C   0  0  0  0  0  0
   18.3346   13.7114  111.0500 C   0  0  0  0  0  0
   17.5168   12.6701  111.5252 C   0  0  0  0  0  0
   17.5033   12.3527  112.8839 C   0  0  0  0  0  0
   19.9181   14.7601  114.1590 F   0  0  0  0  0  0
   16.7179   11.9620  110.6961 F   0  0  0  0  0  0
   18.3793   14.1076  109.6302 C   0  0  0  0  0  0
   17.7859   13.5453  108.6580 N   0  0  0  0  0  0
   17.9649   14.2399  107.4987 N   0  0  0  0  0  0
   18.8685   15.4045  107.7030 C   0  0  1  0  0  0
   19.1925   15.2869  109.1884 C   0  0  0  0  0  0
   17.1537   14.0254  106.4158 C   0  0  0  0  0  0
   17.1338   14.7619  105.4270 O   0  0  0  0  0  0
   20.1849   15.3362  106.8639 C   0  0  0  0  0  0
   18.0852   16.7311  107.4630 C   0  0  0  0  0  0
   20.6264   16.4008  106.0575 C   0  0  0  0  0  0
   21.8286   16.3219  105.3589 C   0  0  0  0  0  0
   22.5990   15.1668  105.4362 C   0  0  0  0  0  0
   22.1903   14.1036  106.2333 C   0  0  0  0  0  0
   21.0047   14.2028  106.9586 C   0  0  0  0  0  0
   16.6669   16.9365  108.0613 C   0  0  0  0  0  0
   16.6327   17.8099  109.3287 C   0  0  0  0  0  0
   16.1796   12.8470  106.4067 C   0  0  0  0  0  0
   15.2626   18.1652  109.6916 N   0  0  2  0  0  0
   14.6464   19.1881  108.8535 C   0  0  0  0  0  0
   13.4221   19.6740  109.6395 C   0  0  0  0  0  0
   13.7871   19.3886  111.0994 C   0  0  0  0  0  0
   15.1744   18.7475  111.0226 C   0  0  0  0  0  0
   12.9219   18.5333  111.6489 F   0  0  0  0  0  0
   13.8473   20.5096  111.8184 F   0  0  0  0  0  0
   18.3074   12.7838  114.8307 H   0  0  0  0  0  0
   19.7724   15.2220  111.6779 H   0  0  0  0  0  0
   16.8588   11.5619  113.2390 H   0  0  0  0  0  0
   18.9264   16.1831  109.7469 H   0  0  0  0  0  0
   20.2507   15.0984  109.3748 H   0  0  0  0  0  0
   18.7180   17.5620  107.7590 H   0  0  0  0  0  0
   17.9662   16.7620  106.3832 H   0  0  0  0  0  0
   20.0643   17.3163  105.9615 H   0  0  0  0  0  0
   22.1525   17.1476  104.7423 H   0  0  0  0  0  0
   23.5184   15.0941  104.8758 H   0  0  0  0  0  0
   22.7904   13.2084  106.2972 H   0  0  0  0  0  0
   20.7185   13.3898  107.6073 H   0  0  0  0  0  0
   16.0065   17.3440  107.2956 H   0  0  0  0  0  0
   16.2315   15.9726  108.3193 H   0  0  0  0  0  0
   17.0655   17.2420  110.1525 H   0  0  0  0  0  0
   17.2623   18.6956  109.2192 H   0  0  0  0  0  0
   16.7180   11.9268  106.2002 H   0  0  0  0  0  0
   15.6534   12.7621  107.3569 H   0  0  0  0  0  0
   15.4298   12.9765  105.6265 H   0  0  0  0  0  0
   15.3391   19.9964  108.6083 H   0  0  0  0  0  0
   14.3646   18.7489  107.8959 H   0  0  0  0  0  0
   13.2544   20.7357  109.4568 H   0  0  0  0  0  0
   12.5353   19.1227  109.3254 H   0  0  0  0  0  0
   15.3256   17.9616  111.7593 H   0  0  0  0  0  0
   15.9718   19.4713  111.2022 H   0  0  0  0  0  0
  1  6  1  0  0  0
  1  2  2  0  0  0
  1 33  1  0  0  0
  2  3  1  0  0  0
  2  7  1  0  0  0
  3  4  2  0  0  0
  3 34  1  0  0  0
  4  9  1  0  0  0
  4  5  1  0  0  0
  5  8  1  0  0  0
  5  6  2  0  0  0
  6 35  1  0  0  0
  9 10  2  0  0  0
  9 13  1  0  0  0
 10 11  1  0  0  0
 11 12  1  0  0  0
 11 14  1  0  0  0
 12 16  1  0  0  0
 12 17  1  0  0  0
 12 13  1  0  0  0
 13 36  1  0  0  0
 13 37  1  0  0  0
 14 25  1  0  0  0
 14 15  2  0  0  0
 16 18  2  0  0  0
 16 22  1  0  0  0
 17 23  1  0  0  0
 17 38  1  0  0  0
 17 39  1  0  0  0
 18 19  1  0  0  0
 18 40  1  0  0  0
 19 20  2  0  0  0
 19 41  1  0  0  0
 20 21  1  0  0  0
 20 42  1  0  0  0
 21 22  2  0  0  0
 21 43  1  0  0  0
 22 44  1  0  0  0
 23 24  1  0  0  0
 23 45  1  0  0  0
 23 46  1  0  0  0
 24 26  1  0  0  0
 24 47  1  0  0  0
 24 48  1  0  0  0
 25 49  1  0  0  0
 25 50  1  0  0  0
 25 51  1  0  0  0
 26 27  1  0  0  0
 26 30  1  0  0  0
 27 28  1  0  0  0
 27 52  1  0  0  0
 27 53  1  0  0  0
 28 29  1  0  0  0
 28 54  1  0  0  0
 28 55  1  0  0  0
 29 30  1  0  0  0
 29 31  1  0  0  0
 29 32  1  0  0  0
 30 56  1  0  0  0
 30 57  1  0  0  0
M  END
> <s_m_entry_id>
399

> <s_m_entry_name>
dock_pv.398

> <s_m_Source_Path>
/home/csk/Desktop/cluster/DUD-E-result/kif11

> <s_m_Source_File>
dock_pv.maegz

> <i_m_Source_File_Index>
398

> <chembl_id>
CHEMBL400041

> <chembl_pref_name>
None

> <i_lp_mmshare_version>
53161

> <i_f3d_flags>
0

> <r_lp_tautomer_probability>
1

> <s_lp_Force_Field>
OPLS_2005

> <r_lp_Energy>
52.469731

> <b_lp_Chiralities_Consistent>
1

> <s_lp_Variant>
CHEMBL4581_lig207-1

> <s_i_glide_gridfile>
glide-grid_3cjo

> <i_i_glide_lignum>
314

> <i_i_glide_rotatable_bonds>
7

> <r_i_docking_score>
-7.40320415104806

> <r_i_glide_ligand_efficiency>
-0.231350129720252

> <r_i_glide_ligand_efficiency_sa>
-0.734490877733298

> <r_i_glide_ligand_efficiency_ln>
-1.65777921314306

> <r_i_glide_gscore>
-7.40320415104806

> <r_i_glide_lipo>
-4.56266296346619

> <r_i_glide_hbond>
0

> <r_i_glide_metal>
0

> <r_i_glide_rewards>
-1.00863635737966

> <r_i_glide_evdw>
-41.8367919921875

> <r_i_glide_ecoul>
-1.3558828830719

> <r_i_glide_erotb>
0.500051391122773

> <r_i_glide_esite>
-0.0367341892548277

> <r_i_glide_emodel>
-59.3551956331225

> <r_i_glide_energy>
-43.1926748752594

> <r_i_glide_einternal>
6.8776593208313

> <i_i_glide_confnum>
50

> <i_i_glide_posenum>
355

> <r_i_glide_eff_state_penalty>
0

> <s_user_duplicate_titles>
CHEMBL4581_lig207,402128

> <s_m_subgroup_title>
dock_pv

> <s_m_subgroupid>
dock_pv

> <b_m_subgroup_collapsed>
1

$$$$
CHEMBL4581_lig38
                    3D
 Schrodinger Suite 2021-1.
 40 42  0  0  1  0            999 V2000
   19.0505   14.9467  107.7332 N   0  0  0  0  0  0
   19.2015   14.1923  108.8574 N   0  0  0  0  0  0
   18.2032   14.3410  109.6239 C   0  0  0  0  0  0
   17.7246   15.5871  107.6910 C   0  0  2  0  0  0
   17.1661   15.2723  109.0753 C   0  0  0  0  0  0
   20.0954   15.1562  106.8829 C   0  0  0  0  0  0
   18.0704   13.7506  110.9513 C   0  0  0  0  0  0
   16.8657   15.0678  106.5286 C   0  0  0  0  0  0
   18.7340   14.2897  112.0688 C   0  0  0  0  0  0
   16.4784   13.7207  106.4630 C   0  0  0  0  0  0
   21.1412   14.5038  106.9455 O   0  0  0  0  0  0
   15.6822   13.2667  105.4106 C   0  0  0  0  0  0
   19.7042   15.7222  111.9736 Cl  0  0  0  0  0  0
   15.2753   11.9620  105.3589 O   0  0  0  0  0  0
   16.4446   15.9455  105.5225 C   0  0  0  0  0  0
   17.2539   12.6249  111.1093 C   0  0  0  0  0  0
   19.9806   16.2714  105.8203 C   0  0  0  0  0  0
   15.6624   15.4873  104.4629 C   0  0  0  0  0  0
   18.6079   13.6693  113.3112 C   0  0  0  0  0  0
   15.2814   14.1478  104.4082 C   0  0  0  0  0  0
   21.3246   16.7190  105.2074 C   0  0  0  0  0  0
   17.1182   12.0299  112.3629 C   0  0  0  0  0  0
   17.7994   12.5458  113.4626 C   0  0  0  0  0  0
   17.8280   16.6693  107.5944 H   0  0  0  0  0  0
   17.1104   16.1681  109.6956 H   0  0  0  0  0  0
   16.1838   14.7987  109.0410 H   0  0  0  0  0  0
   16.7946   13.0280  107.2296 H   0  0  0  0  0  0
   15.5180   11.4396  106.1356 H   0  0  0  0  0  0
   16.7192   16.9881  105.5549 H   0  0  0  0  0  0
   16.7297   12.1962  110.2655 H   0  0  0  0  0  0
   19.3241   15.9153  105.0266 H   0  0  0  0  0  0
   19.5181   17.1526  106.2609 H   0  0  0  0  0  0
   15.3420   16.1710  103.6907 H   0  0  0  0  0  0
   19.1423   14.0644  114.1591 H   0  0  0  0  0  0
   14.6664   13.7937  103.5944 H   0  0  0  0  0  0
   21.1577   17.4895  104.4536 H   0  0  0  0  0  0
   21.9840   17.1533  105.9605 H   0  0  0  0  0  0
   21.8448   15.8991  104.7095 H   0  0  0  0  0  0
   16.4764   11.1690  112.4843 H   0  0  0  0  0  0
   17.6997   12.0762  114.4310 H   0  0  0  0  0  0
  1  2  1  0  0  0
  1  4  1  0  0  0
  1  6  1  0  0  0
  2  3  2  0  0  0
  3  7  1  0  0  0
  3  5  1  0  0  0
  4  5  1  0  0  0
  4  8  1  0  0  0
  4 24  1  0  0  0
  5 25  1  0  0  0
  5 26  1  0  0  0
  6 11  2  0  0  0
  6 17  1  0  0  0
  7  9  2  0  0  0
  7 16  1  0  0  0
  8 10  1  0  0  0
  8 15  2  0  0  0
  9 13  1  0  0  0
  9 19  1  0  0  0
 10 12  2  0  0  0
 10 27  1  0  0  0
 12 14  1  0  0  0
 12 20  1  0  0  0
 14 28  1  0  0  0
 15 18  1  0  0  0
 15 29  1  0  0  0
 16 22  2  0  0  0
 16 30  1  0  0  0
 17 21  1  0  0  0
 17 31  1  0  0  0
 17 32  1  0  0  0
 18 20  2  0  0  0
 18 33  1  0  0  0
 19 23  2  0  0  0
 19 34  1  0  0  0
 20 35  1  0  0  0
 21 36  1  0  0  0
 21 37  1  0  0  0
 21 38  1  0  0  0
 22 23  1  0  0  0
 22 39  1  0  0  0
 23 40  1  0  0  0
M  END
> <s_m_entry_id>
400

> <s_m_entry_name>
dock_pv.399

> <s_m_Source_Path>
/home/csk/Desktop/cluster/DUD-E-result/kif11

> <s_m_Source_File>
dock_pv.maegz

> <i_m_Source_File_Index>
399

> <chembl_id>
CHEMBL370051

> <chembl_pref_name>
None

> <i_lp_mmshare_version>
53161

> <i_f3d_flags>
0

> <r_lp_tautomer_probability>
0.999999999997365

> <s_lp_Force_Field>
OPLS_2005

> <r_lp_Energy>
26.317695

> <b_lp_Chiralities_Consistent>
1

> <s_lp_Variant>
CHEMBL4581_lig38-1

> <s_i_glide_gridfile>
glide-grid_3cjo

> <i_i_glide_lignum>
60

> <i_i_glide_rotatable_bonds>
5

> <r_i_docking_score>
-7.40257643792234

> <r_i_glide_ligand_efficiency>
-0.321851149474884

> <r_i_glide_ligand_efficiency_sa>
-0.915301855462253

> <r_i_glide_ligand_efficiency_ln>
-1.79001010554168

> <r_i_glide_gscore>
-7.40257643792234

> <r_i_glide_lipo>
-2.73845170873705

> <r_i_glide_hbond>
-0.32

> <r_i_glide_metal>
0

> <r_i_glide_rewards>
-2.03261143105327

> <r_i_glide_evdw>
-37.5272521972656

> <r_i_glide_ecoul>
-6.37658262252808

> <r_i_glide_erotb>
0.52133670511047

> <r_i_glide_esite>
0

> <r_i_glide_emodel>
-61.1931006808375

> <r_i_glide_energy>
-43.9038348197937

> <r_i_glide_einternal>
3.65094113349915

> <i_i_glide_confnum>
4

> <i_i_glide_posenum>
13

> <r_i_glide_eff_state_penalty>
0

> <s_user_duplicate_titles>
CHEMBL4581_lig38

> <s_m_subgroup_title>
dock_pv

> <s_m_subgroupid>
dock_pv

> <b_m_subgroup_collapsed>
1

$$$$
CHEMBL4581_lig404
                    3D
 Schrodinger Suite 2021-1.
 47 50  0  0  1  0            999 V2000
   17.5172   12.3621  112.7602 C   0  0  0  0  0  0
   18.4594   13.2062  113.3400 C   0  0  0  0  0  0
   19.0769   14.2276  112.6138 C   0  0  0  0  0  0
   17.1376   12.5052  111.4261 C   0  0  0  0  0  0
   17.7267   13.5224  110.6580 C   0  0  0  0  0  0
   18.7002   14.3678  111.2736 C   0  0  0  0  0  0
   19.1187   15.2565  110.3060 N   0  0  0  0  0  0
   17.5771   13.9716  109.3015 C   0  0  0  0  0  0
   18.4439   15.0366  109.1322 C   0  0  0  0  0  0
   18.6439   15.8042  107.8226 C   0  0  2  0  0  0
   17.4772   15.5756  106.9566 N   0  0  1  0  0  0
   17.1089   14.1520  106.8147 C   0  0  1  0  0  0
   16.6656   13.5084  108.1752 C   0  0  0  0  0  0
   19.9715   15.5361  107.0977 C   0  0  0  0  0  0
   20.7136   14.3621  107.2964 C   0  0  0  0  0  0
   21.8741   14.1144  106.5589 C   0  0  0  0  0  0
   22.3321   15.0631  105.6483 C   0  0  0  0  0  0
   21.6124   16.2412  105.4581 C   0  0  0  0  0  0
   20.4363   16.4691  106.1651 C   0  0  0  0  0  0
   22.0421   17.1705  104.5585 O   0  0  0  0  0  0
   15.9726   13.9957  105.7625 C   0  0  0  0  0  0
   15.4342   14.9692  105.2283 O   0  0  0  0  0  0
   15.5751   12.7374  105.5051 N   0  0  0  0  0  0
   14.4525   12.3548  104.6482 C   0  0  0  0  0  0
   13.8316   11.0334  105.1284 C   0  0  0  0  0  0
   12.7375   10.6314  104.3261 O   0  0  0  0  0  0
   17.0652   11.5834  113.3592 H   0  0  0  0  0  0
   18.7221   13.0595  114.3787 H   0  0  0  0  0  0
   19.8125   14.8724  113.0720 H   0  0  0  0  0  0
   16.3989   11.8437  110.9942 H   0  0  0  0  0  0
   19.8090   15.9860  110.4032 H   0  0  0  0  0  0
   18.6479   16.8718  108.0514 H   0  0  0  0  0  0
   16.6677   16.0517  107.3301 H   0  0  0  0  0  0
   17.9414   13.5981  106.3757 H   0  0  0  0  0  0
   15.6290   13.7534  108.4143 H   0  0  0  0  0  0
   16.7187   12.4212  108.1029 H   0  0  0  0  0  0
   20.3739   13.6115  107.9957 H   0  0  0  0  0  0
   22.4197   13.1923  106.6963 H   0  0  0  0  0  0
   23.2351   14.8710  105.0877 H   0  0  0  0  0  0
   19.8851   17.3813  105.9904 H   0  0  0  0  0  0
   22.8095   16.8762  104.0642 H   0  0  0  0  0  0
   16.0649   11.9823  105.9642 H   0  0  0  0  0  0
   14.8104   12.2755  103.6227 H   0  0  0  0  0  0
   13.6834   13.1312  104.6688 H   0  0  0  0  0  0
   13.5180   11.1620  106.1591 H   0  0  0  0  0  0
   14.5745   10.2381  105.1875 H   0  0  0  0  0  0
   12.2481    9.9341  104.7882 H   0  0  0  0  0  0
  1  2  2  0  0  0
  1  4  1  0  0  0
  1 27  1  0  0  0
  2  3  1  0  0  0
  2 28  1  0  0  0
  3  6  2  0  0  0
  3 29  1  0  0  0
  4  5  2  0  0  0
  4 30  1  0  0  0
  5  8  1  0  0  0
  5  6  1  0  0  0
  6  7  1  0  0  0
  7  9  1  0  0  0
  7 31  1  0  0  0
  8  9  2  0  0  0
  8 13  1  0  0  0
  9 10  1  0  0  0
 10 11  1  0  0  0
 10 14  1  0  0  0
 10 32  1  0  0  0
 11 12  1  0  0  0
 11 33  1  0  0  0
 12 13  1  0  0  0
 12 21  1  0  0  0
 12 34  1  0  0  0
 13 35  1  0  0  0
 13 36  1  0  0  0
 14 15  2  0  0  0
 14 19  1  0  0  0
 15 16  1  0  0  0
 15 37  1  0  0  0
 16 17  2  0  0  0
 16 38  1  0  0  0
 17 18  1  0  0  0
 17 39  1  0  0  0
 18 19  2  0  0  0
 18 20  1  0  0  0
 19 40  1  0  0  0
 20 41  1  0  0  0
 21 22  2  0  0  0
 21 23  1  0  0  0
 23 24  1  0  0  0
 23 42  1  0  0  0
 24 25  1  0  0  0
 24 43  1  0  0  0
 24 44  1  0  0  0
 25 26  1  0  0  0
 25 45  1  0  0  0
 25 46  1  0  0  0
 26 47  1  0  0  0
M  END
> <s_m_entry_id>
401

> <s_m_entry_name>
dock_pv.400

> <s_m_Source_Path>
/home/csk/Desktop/cluster/DUD-E-result/kif11

> <s_m_Source_File>
dock_pv.maegz

> <i_m_Source_File_Index>
400

> <chembl_id>
CHEMBL1165017

> <chembl_pref_name>
None

> <i_lp_mmshare_version>
53161

> <i_f3d_flags>
0

> <r_lp_tautomer_probability>
0.999999999997365

> <s_lp_Force_Field>
OPLS_2005

> <r_lp_Energy>
17.106314

> <b_lp_Chiralities_Consistent>
1

> <s_lp_Variant>
CHEMBL4581_lig404-3

> <s_i_glide_gridfile>
glide-grid_3cjo

> <i_i_glide_lignum>
590

> <i_i_glide_rotatable_bonds>
7

> <r_i_docking_score>
-7.40178043139231

> <r_i_glide_ligand_efficiency>
-0.284683862745858

> <r_i_glide_ligand_efficiency_sa>
-0.843374823207696

> <r_i_glide_ligand_efficiency_ln>
-1.73828384708993

> <r_i_glide_gscore>
-7.40178043139231

> <r_i_glide_lipo>
-4.08323993930789

> <r_i_glide_hbond>
-0.194676746589888

> <r_i_glide_metal>
0

> <r_i_glide_rewards>
-1.01313652846644

> <r_i_glide_evdw>
-43.780200958252

> <r_i_glide_ecoul>
-4.46797704696655

> <r_i_glide_erotb>
0.772280176000551

> <r_i_glide_esite>
-0.0238007880710687

> <r_i_glide_emodel>
-68.3609546747831

> <r_i_glide_energy>
-48.2481780052185

> <r_i_glide_einternal>
4.01854372024536

> <i_i_glide_confnum>
103

> <i_i_glide_posenum>
395

> <r_i_glide_eff_state_penalty>
0

> <s_user_duplicate_titles>
CHEMBL4581_lig404,644725

> <s_m_subgroup_title>
dock_pv

> <s_m_subgroupid>
dock_pv

> <b_m_subgroup_collapsed>
1

$$$$
CHEMBL4581_lig723
                    3D
 Schrodinger Suite 2021-1.
 76 80  0  0  1  0            999 V2000
   16.7572   19.1601  108.5548 C   0  0  0  0  0  0
   16.4596   18.1580  109.6703 C   0  0  0  0  0  0
   17.5509   18.4270  110.7481 C   0  0  0  0  0  0
   15.0798   18.5120  110.2784 C   0  0  0  0  0  0
   16.4415   16.6536  109.1746 C   0  0  1  0  0  0
   15.3508   16.2532  108.1960 N   0  0  0  0  0  0
   15.1758   16.7881  106.8053 C   0  0  0  0  0  0
   16.2597   16.4807  105.7588 C   0  0  2  0  0  0
   15.9305   16.8937  104.3164 C   0  0  0  0  0  0
   17.0046   16.3557  103.4963 N   0  0  2  0  0  0
   17.4927   15.1919  104.2319 C   0  0  0  0  0  0
   16.6472   15.0238  105.4997 C   0  0  2  0  0  0
   15.5625   14.3005  105.2027 F   0  0  0  0  0  0
   14.4155   15.3697  108.6188 C   0  0  0  0  0  0
   14.7293   14.4325  109.3607 O   0  0  0  0  0  0
   12.9346   15.5771  108.1411 C   0  0  2  0  0  0
   11.8212   15.1261  109.0877 C   0  0  0  0  0  0
   11.7156   13.6543  108.7929 C   0  0  0  0  0  0
   12.1203   13.5284  107.3196 C   0  0  0  0  0  0
   12.6635   14.8027  106.9751 O   0  0  0  0  0  0
   17.8137   15.9975  108.9377 C   0  0  0  0  0  0
   18.4936   16.0070  107.8268 N   0  0  0  0  0  0
   19.5696   15.2828  108.0979 C   0  0  0  0  0  0
   19.6611   14.8278  109.3265 N   0  0  0  0  0  0
   18.5887   15.3673  109.8914 N   0  0  0  0  0  0
   18.4870   15.3309  111.3451 C   0  0  0  0  0  0
   18.0184   14.0494  111.9814 C   0  0  0  0  0  0
   18.1142   13.9783  113.3668 C   0  0  0  0  0  0
   17.5173   12.9311  114.0529 C   0  0  0  0  0  0
   16.8394   11.9603  113.3276 C   0  0  0  0  0  0
   16.8389   11.9656  111.9307 C   0  0  0  0  0  0
   17.4102   13.0274  111.2524 C   0  0  0  0  0  0
   20.6770   15.1037  107.1142 C   0  0  0  0  0  0
   20.9299   16.1604  106.2288 C   0  0  0  0  0  0
   21.9964   16.0947  105.3431 C   0  0  0  0  0  0
   22.2575   17.1461  104.5386 F   0  0  0  0  0  0
   22.7882   14.9515  105.2896 C   0  0  0  0  0  0
   22.5350   13.8936  106.1625 C   0  0  0  0  0  0
   21.5139   13.9717  107.0994 C   0  0  0  0  0  0
   21.4032   12.9967  108.0299 F   0  0  0  0  0  0
   16.0429   19.1393  107.7528 H   0  0  0  0  0  0
   16.7004   20.1863  108.9221 H   0  0  0  0  0  0
   17.7594   18.9919  108.1595 H   0  0  0  0  0  0
   17.2130   18.1940  111.7566 H   0  0  0  0  0  0
   18.4832   17.9027  110.5579 H   0  0  0  0  0  0
   17.8740   19.4596  110.7521 H   0  0  0  0  0  0
   14.8118   17.8364  111.0937 H   0  0  0  0  0  0
   15.0632   19.5250  110.6851 H   0  0  0  0  0  0
   14.2805   18.4534  109.5389 H   0  0  0  0  0  0
   16.1568   16.1611  110.1071 H   0  0  0  0  0  0
   14.9387   17.8459  106.8306 H   0  0  0  0  0  0
   14.2909   16.3732  106.3313 H   0  0  0  0  0  0
   17.1166   17.0669  106.0547 H   0  0  0  0  0  0
   15.8442   17.9611  104.1773 H   0  0  0  0  0  0
   14.9522   16.5140  104.0145 H   0  0  0  0  0  0
   17.7344   17.0517  103.4380 H   0  0  0  0  0  0
   17.5081   14.3198  103.5847 H   0  0  0  0  0  0
   18.5225   15.3739  104.5418 H   0  0  0  0  0  0
   17.1641   14.5119  106.3093 H   0  0  0  0  0  0
   12.8112   16.6467  107.9664 H   0  0  0  0  0  0
   11.9654   15.3592  110.1413 H   0  0  0  0  0  0
   10.9108   15.6685  108.8315 H   0  0  0  0  0  0
   12.4557   13.1620  109.4153 H   0  0  0  0  0  0
   10.7348   13.2341  109.0149 H   0  0  0  0  0  0
   12.8873   12.7630  107.1946 H   0  0  0  0  0  0
   11.2579   13.3000  106.6872 H   0  0  0  0  0  0
   19.4644   15.6152  111.7444 H   0  0  0  0  0  0
   17.7801   16.0764  111.7027 H   0  0  0  0  0  0
   18.6117   14.7754  113.8983 H   0  0  0  0  0  0
   17.5354   12.8871  115.1288 H   0  0  0  0  0  0
   16.3184   11.1777  113.8564 H   0  0  0  0  0  0
   16.3339   11.1853  111.3736 H   0  0  0  0  0  0
   17.3330   13.0688  110.1735 H   0  0  0  0  0  0
   20.3332   17.0609  106.2544 H   0  0  0  0  0  0
   23.5918   14.8891  104.5742 H   0  0  0  0  0  0
   23.1176   12.9949  106.1435 H   0  0  0  0  0  0
  1  2  1  0  0  0
  1 41  1  0  0  0
  1 42  1  0  0  0
  1 43  1  0  0  0
  2  3  1  0  0  0
  2  4  1  0  0  0
  2  5  1  0  0  0
  3 44  1  0  0  0
  3 45  1  0  0  0
  3 46  1  0  0  0
  4 47  1  0  0  0
  4 48  1  0  0  0
  4 49  1  0  0  0
  5  6  1  0  0  0
  5 21  1  0  0  0
  5 50  1  0  0  0
  6  7  1  0  0  0
  6 14  1  0  0  0
  7  8  1  0  0  0
  7 51  1  0  0  0
  7 52  1  0  0  0
  8  9  1  0  0  0
  8 12  1  0  0  0
  8 53  1  0  0  0
  9 10  1  0  0  0
  9 54  1  0  0  0
  9 55  1  0  0  0
 10 11  1  0  0  0
 10 56  1  0  0  0
 11 12  1  0  0  0
 11 57  1  0  0  0
 11 58  1  0  0  0
 12 13  1  0  0  0
 12 59  1  0  0  0
 14 15  2  0  0  0
 14 16  1  0  0  0
 16 17  1  0  0  0
 16 20  1  0  0  0
 16 60  1  0  0  0
 17 18  1  0  0  0
 17 61  1  0  0  0
 17 62  1  0  0  0
 18 19  1  0  0  0
 18 63  1  0  0  0
 18 64  1  0  0  0
 19 20  1  0  0  0
 19 65  1  0  0  0
 19 66  1  0  0  0
 21 22  2  0  0  0
 21 25  1  0  0  0
 22 23  1  0  0  0
 23 24  2  0  0  0
 23 33  1  0  0  0
 24 25  1  0  0  0
 25 26  1  0  0  0
 26 27  1  0  0  0
 26 67  1  0  0  0
 26 68  1  0  0  0
 27 28  2  0  0  0
 27 32  1  0  0  0
 28 29  1  0  0  0
 28 69  1  0  0  0
 29 30  2  0  0  0
 29 70  1  0  0  0
 30 31  1  0  0  0
 30 71  1  0  0  0
 31 32  2  0  0  0
 31 72  1  0  0  0
 32 73  1  0  0  0
 33 34  2  0  0  0
 33 39  1  0  0  0
 34 35  1  0  0  0
 34 74  1  0  0  0
 35 36  1  0  0  0
 35 37  2  0  0  0
 37 38  1  0  0  0
 37 75  1  0  0  0
 38 39  2  0  0  0
 38 76  1  0  0  0
 39 40  1  0  0  0
M  END
> <s_m_entry_id>
402

> <s_m_entry_name>
dock_pv.401

> <s_m_Source_Path>
/home/csk/Desktop/cluster/DUD-E-result/kif11

> <s_m_Source_File>
dock_pv.maegz

> <i_m_Source_File_Index>
401

> <chembl_id>
CHEMBL3645241

> <chembl_pref_name>
None

> <i_lp_mmshare_version>
53161

> <i_f3d_flags>
0

> <r_lp_tautomer_probability>
1

> <s_lp_Force_Field>
OPLS_2005

> <r_lp_Energy>
78.244577

> <b_lp_Chiralities_Consistent>
1

> <s_lp_Variant>
CHEMBL4581_lig723-1

> <s_i_glide_gridfile>
glide-grid_3cjo

> <i_i_glide_lignum>
1068

> <i_i_glide_rotatable_bonds>
10

> <r_i_docking_score>
-7.39696950848776

> <r_i_glide_ligand_efficiency>
-0.184924237712194

> <r_i_glide_ligand_efficiency_sa>
-0.632431996113096

> <r_i_glide_ligand_efficiency_ln>
-1.57755591306528

> <r_i_glide_gscore>
-7.39696950848776

> <r_i_glide_lipo>
-4.63045776830692

> <r_i_glide_hbond>
0

> <r_i_glide_metal>
0

> <r_i_glide_rewards>
-0.987353251950362

> <r_i_glide_evdw>
-40.7010231018066

> <r_i_glide_ecoul>
-0.878903210163116

> <r_i_glide_erotb>
0.395942779496924

> <r_i_glide_esite>
-0.00821463111260795

> <r_i_glide_emodel>
-40.3021263050961

> <r_i_glide_energy>
-41.5799263119698

> <r_i_glide_einternal>
8.32191944122314

> <i_i_glide_confnum>
41

> <i_i_glide_posenum>
3

> <r_i_glide_eff_state_penalty>
0

> <s_user_duplicate_titles>
CHEMBL4581_lig723

> <s_m_subgroup_title>
dock_pv

> <s_m_subgroupid>
dock_pv

> <b_m_subgroup_collapsed>
1

$$$$
CHEMBL4581_lig894
                    3D
 Schrodinger Suite 2021-1.
 56 58  0  0  1  0            999 V2000
   17.5985   14.4497  109.6464 C   0  0  2  0  0  0
   18.8754   14.4490  108.7429 C   0  0  0  0  0  0
   17.0136   15.8843  109.8893 C   0  0  0  0  0  0
   18.9616   15.3060  107.6324 C   0  0  0  0  0  0
   20.0687   15.2865  106.7942 C   0  0  0  0  0  0
   21.1180   14.4119  107.0539 C   0  0  0  0  0  0
   21.0671   13.5619  108.1585 C   0  0  0  0  0  0
   19.9428   13.5664  108.9821 C   0  0  0  0  0  0
   17.8471   17.0144  109.9338 C   0  0  0  0  0  0
   17.3236   18.2870  110.1411 C   0  0  0  0  0  0
   15.9525   18.4705  110.3046 C   0  0  0  0  0  0
   15.1091   17.3536  110.2760 C   0  0  0  0  0  0
   15.6362   16.0823  110.0734 C   0  0  0  0  0  0
   17.9102   13.8971  111.0777 C   0  0  0  0  0  0
   17.2645   12.7704  111.6185 C   0  0  0  0  0  0
   17.5179   12.3622  112.9250 C   0  0  0  0  0  0
   18.4401   13.0497  113.7043 C   0  0  0  0  0  0
   19.1177   14.1443  113.1808 C   0  0  0  0  0  0
   18.8571   14.5599  111.8789 C   0  0  0  0  0  0
   16.5561   13.5359  108.8848 C   0  0  0  0  0  0
   16.0854   14.0094  107.4809 C   0  0  0  0  0  0
   14.7291   13.4219  107.0270 C   0  0  1  0  0  0
   13.6503   14.0482  107.7885 N   0  0  0  0  0  0
   22.3452   14.4324  106.1579 C   0  0  0  0  0  0
   15.5177   19.7671  110.4860 O   0  0  0  0  0  0
   14.1357   20.0188  110.7135 C   0  0  0  0  0  0
   14.4803   13.5442  105.5002 C   0  0  0  0  0  0
   13.2931   13.0418  105.1602 F   0  0  0  0  0  0
   14.5138   14.8139  105.0895 F   0  0  0  0  0  0
   15.4015   12.8763  104.8034 F   0  0  0  0  0  0
   18.1608   15.9930  107.4024 H   0  0  0  0  0  0
   20.1104   15.9532  105.9456 H   0  0  0  0  0  0
   21.8813   12.8832  108.3642 H   0  0  0  0  0  0
   19.9065   12.8656  109.8012 H   0  0  0  0  0  0
   18.9158   16.9187  109.8115 H   0  0  0  0  0  0
   17.9848   19.1405  110.1763 H   0  0  0  0  0  0
   14.0427   17.4520  110.4048 H   0  0  0  0  0  0
   14.9465   15.2565  110.0676 H   0  0  0  0  0  0
   16.5400   12.1980  111.0622 H   0  0  0  0  0  0
   16.9854   11.5192  113.3381 H   0  0  0  0  0  0
   18.6330   12.7294  114.7187 H   0  0  0  0  0  0
   19.8417   14.6733  113.7820 H   0  0  0  0  0  0
   19.3939   15.4145  111.4964 H   0  0  0  0  0  0
   16.9757   12.5339  108.7673 H   0  0  0  0  0  0
   15.6714   13.3777  109.4989 H   0  0  0  0  0  0
   16.0298   15.0966  107.4335 H   0  0  0  0  0  0
   16.8537   13.7260  106.7606 H   0  0  0  0  0  0
   14.7179   12.3622  107.2667 H   0  0  0  0  0  0
   13.6409   15.0405  107.5953 H   0  0  0  0  0  0
   12.7635   13.6962  107.4541 H   0  0  0  0  0  0
   22.7911   15.4264  106.1601 H   0  0  0  0  0  0
   23.1116   13.7194  106.4669 H   0  0  0  0  0  0
   22.0657   14.2145  105.1281 H   0  0  0  0  0  0
   13.9913   21.0869  110.8753 H   0  0  0  0  0  0
   13.5295   19.7276  109.8529 H   0  0  0  0  0  0
   13.7718   19.5010  111.6024 H   0  0  0  0  0  0
  1  2  1  0  0  0
  1  3  1  0  0  0
  1 14  1  0  0  0
  1 20  1  0  0  0
  2  4  2  0  0  0
  2  8  1  0  0  0
  3  9  2  0  0  0
  3 13  1  0  0  0
  4  5  1  0  0  0
  4 31  1  0  0  0
  5  6  2  0  0  0
  5 32  1  0  0  0
  6  7  1  0  0  0
  6 24  1  0  0  0
  7  8  2  0  0  0
  7 33  1  0  0  0
  8 34  1  0  0  0
  9 10  1  0  0  0
  9 35  1  0  0  0
 10 11  2  0  0  0
 10 36  1  0  0  0
 11 12  1  0  0  0
 11 25  1  0  0  0
 12 13  2  0  0  0
 12 37  1  0  0  0
 13 38  1  0  0  0
 14 15  2  0  0  0
 14 19  1  0  0  0
 15 16  1  0  0  0
 15 39  1  0  0  0
 16 17  2  0  0  0
 16 40  1  0  0  0
 17 18  1  0  0  0
 17 41  1  0  0  0
 18 19  2  0  0  0
 18 42  1  0  0  0
 19 43  1  0  0  0
 20 21  1  0  0  0
 20 44  1  0  0  0
 20 45  1  0  0  0
 21 22  1  0  0  0
 21 46  1  0  0  0
 21 47  1  0  0  0
 22 23  1  0  0  0
 22 27  1  0  0  0
 22 48  1  0  0  0
 23 49  1  0  0  0
 23 50  1  0  0  0
 24 51  1  0  0  0
 24 52  1  0  0  0
 24 53  1  0  0  0
 25 26  1  0  0  0
 26 54  1  0  0  0
 26 55  1  0  0  0
 26 56  1  0  0  0
 27 28  1  0  0  0
 27 29  1  0  0  0
 27 30  1  0  0  0
M  END
> <s_m_entry_id>
403

> <s_m_entry_name>
dock_pv.402

> <s_m_Source_Path>
/home/csk/Desktop/cluster/DUD-E-result/kif11

> <s_m_Source_File>
dock_pv.maegz

> <i_m_Source_File_Index>
402

> <chembl_id>
CHEMBL2325428

> <chembl_pref_name>
None

> <i_lp_mmshare_version>
53161

> <i_f3d_flags>
0

> <r_lp_tautomer_probability>
1

> <s_lp_Force_Field>
OPLS_2005

> <r_lp_Energy>
37.638756

> <b_lp_Chiralities_Consistent>
1

> <s_lp_Variant>
CHEMBL4581_lig894-3

> <s_i_glide_gridfile>
glide-grid_3cjo

> <i_i_glide_lignum>
1299

> <i_i_glide_rotatable_bonds>
8

> <r_i_docking_score>
-7.39204359219006

> <r_i_glide_ligand_efficiency>
-0.246401453073002

> <r_i_glide_ligand_efficiency_sa>
-0.765626603634681

> <r_i_glide_ligand_efficiency_ln>
-1.67955284691149

> <r_i_glide_gscore>
-7.39204359219006

> <r_i_glide_lipo>
-4.96441635853413

> <r_i_glide_hbond>
0

> <r_i_glide_metal>
0

> <r_i_glide_rewards>
-0.725459509051137

> <r_i_glide_evdw>
-43.4598922729492

> <r_i_glide_ecoul>
-1.42915213108063

> <r_i_glide_erotb>
0.692386040291556

> <r_i_glide_esite>
-0.00718633158679737

> <r_i_glide_emodel>
-62.2296099346735

> <r_i_glide_energy>
-44.8890444040298

> <r_i_glide_einternal>
4.85455513000488

> <i_i_glide_confnum>
59

> <i_i_glide_posenum>
140

> <r_i_glide_eff_state_penalty>
0

> <s_user_duplicate_titles>
CHEMBL4581_lig894

> <s_m_subgroup_title>
dock_pv

> <s_m_subgroupid>
dock_pv

> <b_m_subgroup_collapsed>
1

$$$$
CHEMBL4581_lig761
                    3D
 Schrodinger Suite 2021-1.
 40 43  0  0  1  0            999 V2000
   17.1256   14.9433  108.9509 C   0  0  2  0  0  0
   16.1692   13.7141  108.9113 C   0  0  0  0  0  0
   14.8229   14.0338  108.2414 C   0  0  0  0  0  0
   14.1637   15.1232  108.9581 N   0  0  0  0  0  0
   17.8091   15.1167  107.2889 S   0  0  0  0  0  0
   19.4481   14.9125  107.9573 C   0  0  0  0  0  0
   19.5339   14.7116  109.2047 N   0  0  0  0  0  0
   18.3173   14.7182  109.8017 N   0  0  0  0  0  0
   20.5869   14.9993  107.0493 C   0  0  0  0  0  0
   20.7229   16.1386  106.2423 C   0  0  0  0  0  0
   21.7933   16.2506  105.3590 C   0  0  0  0  0  0
   22.7181   15.2158  105.2579 C   0  0  0  0  0  0
   22.5961   14.0862  106.0609 C   0  0  0  0  0  0
   21.5417   13.9708  106.9596 C   0  0  0  0  0  0
   18.2226   14.6310  111.1611 C   0  0  0  0  0  0
   17.1478   14.6202  111.7590 O   0  0  0  0  0  0
   19.4901   14.5714  112.0191 C   0  0  0  0  0  0
   21.5180   12.8917  107.7749 F   0  0  0  0  0  0
   21.9181   17.3449  104.5769 F   0  0  0  0  0  0
   16.3423   16.2346  109.2845 C   0  0  0  0  0  0
   14.9284   16.2492  109.3114 C   0  0  0  0  0  0
   14.2338   17.4270  109.5982 C   0  0  0  0  0  0
   14.9230   18.5961  109.9066 C   0  0  0  0  0  0
   16.3127   18.5973  109.9083 C   0  0  0  0  0  0
   17.0087   17.4322  109.5989 C   0  0  0  0  0  0
   15.9518   13.3543  109.9173 H   0  0  0  0  0  0
   16.6397   12.8640  108.4131 H   0  0  0  0  0  0
   14.1775   13.1626  108.1581 H   0  0  0  0  0  0
   14.9846   14.4053  107.2280 H   0  0  0  0  0  0
   13.2096   15.2766  108.6648 H   0  0  0  0  0  0
   20.0108   16.9507  106.3001 H   0  0  0  0  0  0
   23.5185   15.2799  104.5434 H   0  0  0  0  0  0
   23.3142   13.2904  105.9890 H   0  0  0  0  0  0
   19.8925   15.5767  112.1590 H   0  0  0  0  0  0
   19.2784   14.1420  113.0008 H   0  0  0  0  0  0
   20.2510   13.9621  111.5357 H   0  0  0  0  0  0
   13.1538   17.4397  109.5893 H   0  0  0  0  0  0
   14.3822   19.5014  110.1397 H   0  0  0  0  0  0
   16.8507   19.5014  110.1471 H   0  0  0  0  0  0
   18.0883   17.4626  109.5988 H   0  0  0  0  0  0
  1  2  1  0  0  0
  1 20  1  0  0  0
  1  8  1  0  0  0
  1  5  1  0  0  0
  2  3  1  0  0  0
  2 26  1  0  0  0
  2 27  1  0  0  0
  3  4  1  0  0  0
  3 28  1  0  0  0
  3 29  1  0  0  0
  4 21  1  0  0  0
  4 30  1  0  0  0
  5  6  1  0  0  0
  6  7  2  0  0  0
  6  9  1  0  0  0
  7  8  1  0  0  0
  8 15  1  0  0  0
  9 10  2  0  0  0
  9 14  1  0  0  0
 10 11  1  0  0  0
 10 31  1  0  0  0
 11 12  2  0  0  0
 11 19  1  0  0  0
 12 13  1  0  0  0
 12 32  1  0  0  0
 13 14  2  0  0  0
 13 33  1  0  0  0
 14 18  1  0  0  0
 15 16  2  0  0  0
 15 17  1  0  0  0
 17 34  1  0  0  0
 17 35  1  0  0  0
 17 36  1  0  0  0
 20 21  2  0  0  0
 20 25  1  0  0  0
 21 22  1  0  0  0
 22 23  2  0  0  0
 22 37  1  0  0  0
 23 24  1  0  0  0
 23 38  1  0  0  0
 24 25  2  0  0  0
 24 39  1  0  0  0
 25 40  1  0  0  0
M  END
> <s_m_entry_id>
404

> <s_m_entry_name>
dock_pv.403

> <s_m_Source_Path>
/home/csk/Desktop/cluster/DUD-E-result/kif11

> <s_m_Source_File>
dock_pv.maegz

> <i_m_Source_File_Index>
403

> <chembl_id>
CHEMBL3402340

> <chembl_pref_name>
None

> <i_lp_mmshare_version>
53161

> <i_f3d_flags>
0

> <r_lp_tautomer_probability>
1

> <s_lp_Force_Field>
OPLS_2005

> <r_lp_Energy>
22.284971

> <b_lp_Chiralities_Consistent>
1

> <s_lp_Variant>
CHEMBL4581_lig761-1

> <s_i_glide_gridfile>
glide-grid_3cjo

> <i_i_glide_lignum>
1127

> <i_i_glide_rotatable_bonds>
2

> <r_i_docking_score>
-7.39018463151746

> <r_i_glide_ligand_efficiency>
-0.295607385260699

> <r_i_glide_ligand_efficiency_sa>
-0.864361237121583

> <r_i_glide_ligand_efficiency_ln>
-1.75169522363184

> <r_i_glide_gscore>
-7.39018463151746

> <r_i_glide_lipo>
-2.90952371991986

> <r_i_glide_hbond>
0

> <r_i_glide_metal>
0

> <r_i_glide_rewards>
-2.57300524564426

> <r_i_glide_evdw>
-37.1419868469238

> <r_i_glide_ecoul>
-1.32632088661194

> <r_i_glide_erotb>
0.148391809384639

> <r_i_glide_esite>
0

> <r_i_glide_emodel>
-54.914800828145

> <r_i_glide_energy>
-38.4683077335358

> <r_i_glide_einternal>
1.07639169692993

> <i_i_glide_confnum>
6

> <i_i_glide_posenum>
30

> <r_i_glide_eff_state_penalty>
0

> <s_user_duplicate_titles>
CHEMBL4581_lig761

> <s_m_subgroup_title>
dock_pv

> <s_m_subgroupid>
dock_pv

> <b_m_subgroup_collapsed>
1

$$$$
CHEMBL4581_lig518
                    3D
 Schrodinger Suite 2021-1.
 64 67  0  0  1  0            999 V2000
   19.0162   16.3565  107.4683 N   0  0  0  0  0  0
   18.5633   15.9141  108.5982 C   0  0  0  0  0  0
   19.2985   14.9838  109.3396 N   0  0  0  0  0  0
   20.2588   14.1328  108.8056 C   0  0  0  0  0  0
   20.1188   15.7484  106.9411 C   0  0  0  0  0  0
   20.7108   14.6294  107.5228 C   0  0  0  0  0  0
   22.0003   13.9613  106.5846 S   0  0  0  0  0  0
   21.8896   15.3130  105.5046 C   0  0  0  0  0  0
   20.8196   16.1564  105.8011 C   0  0  0  0  0  0
   20.7170   13.1614  109.3997 O   0  0  0  0  0  0
   17.1787   16.3617  109.1378 C   0  0  2  0  0  0
   16.0736   15.9085  108.2273 N   0  0  0  0  0  0
   17.1667   17.8719  109.4942 C   0  0  0  0  0  0
   15.8866   18.3000  110.2335 C   0  0  0  0  0  0
   15.2118   14.9288  108.6405 C   0  0  0  0  0  0
   14.2761   14.3258  107.6318 C   0  0  0  0  0  0
   15.1804   14.4753  109.7853 O   0  0  0  0  0  0
   13.0276   14.9044  107.3904 C   0  0  0  0  0  0
   12.1912   14.3634  106.4168 C   0  0  0  0  0  0
   12.6042   13.2490  105.6872 C   0  0  0  0  0  0
   13.8425   12.6625  105.9393 C   0  0  0  0  0  0
   14.6714   13.1899  106.9214 C   0  0  0  0  0  0
   11.6938   12.6619  104.6277 C   0  0  0  0  0  0
   15.9065   16.5948  106.9192 C   0  0  0  0  0  0
   16.3929   15.8334  105.6592 C   0  0  0  0  0  0
   16.4657   16.7302  104.4138 C   0  0  0  0  0  0
   16.9149   15.9621  103.2620 N   0  0  0  0  0  0
   19.2825   15.0259  110.8267 C   0  0  0  0  0  0
   18.5217   13.9277  111.5645 C   0  0  0  0  0  0
   18.5537   13.9178  112.9630 C   0  0  0  0  0  0
   17.8549   12.9436  113.6718 C   0  0  0  0  0  0
   17.1262   11.9811  112.9762 C   0  0  0  0  0  0
   17.1207   11.9652  111.5859 C   0  0  0  0  0  0
   17.7997   12.9455  110.8799 C   0  0  0  0  0  0
   22.5778   15.3949  104.6761 H   0  0  0  0  0  0
   20.5515   17.0258  105.2180 H   0  0  0  0  0  0
   17.0397   15.8622  110.0953 H   0  0  0  0  0  0
   18.0175   18.1021  110.1405 H   0  0  0  0  0  0
   17.3039   18.4950  108.6096 H   0  0  0  0  0  0
   15.9195   19.3564  110.4914 H   0  0  0  0  0  0
   14.9983   18.1323  109.6236 H   0  0  0  0  0  0
   15.7673   17.7465  111.1634 H   0  0  0  0  0  0
   12.7095   15.7770  107.9408 H   0  0  0  0  0  0
   11.2278   14.8139  106.2253 H   0  0  0  0  0  0
   14.1664   11.8015  105.3785 H   0  0  0  0  0  0
   15.6366   12.7400  107.1023 H   0  0  0  0  0  0
   10.7066   12.4832  105.0555 H   0  0  0  0  0  0
   11.5766   13.3612  103.7993 H   0  0  0  0  0  0
   12.0624   11.7081  104.2452 H   0  0  0  0  0  0
   14.8616   16.8713  106.7784 H   0  0  0  0  0  0
   16.4034   17.5565  106.9627 H   0  0  0  0  0  0
   17.3579   15.3617  105.8273 H   0  0  0  0  0  0
   15.7081   15.0229  105.4340 H   0  0  0  0  0  0
   15.4853   17.1631  104.2017 H   0  0  0  0  0  0
   17.1590   17.5553  104.5718 H   0  0  0  0  0  0
   16.3663   15.1105  103.2087 H   0  0  0  0  0  0
   16.6947   16.4870  102.4248 H   0  0  0  0  0  0
   20.3130   14.9961  111.2015 H   0  0  0  0  0  0
   18.9032   15.9889  111.1713 H   0  0  0  0  0  0
   19.1124   14.6674  113.5043 H   0  0  0  0  0  0
   17.8713   12.9372  114.7521 H   0  0  0  0  0  0
   16.5593   11.2346  113.5129 H   0  0  0  0  0  0
   16.5586   11.2105  111.0526 H   0  0  0  0  0  0
   17.7589   12.9263  109.7991 H   0  0  0  0  0  0
  1  5  1  0  0  0
  1  2  2  0  0  0
  2 11  1  0  0  0
  2  3  1  0  0  0
  3  4  1  0  0  0
  3 28  1  0  0  0
  4 10  2  0  0  0
  4  6  1  0  0  0
  5  9  1  0  0  0
  5  6  2  0  0  0
  6  7  1  0  0  0
  7  8  1  0  0  0
  8  9  2  0  0  0
  8 35  1  0  0  0
  9 36  1  0  0  0
 11 12  1  0  0  0
 11 13  1  0  0  0
 11 37  1  0  0  0
 12 24  1  0  0  0
 12 15  1  0  0  0
 13 14  1  0  0  0
 13 38  1  0  0  0
 13 39  1  0  0  0
 14 40  1  0  0  0
 14 41  1  0  0  0
 14 42  1  0  0  0
 15 17  2  0  0  0
 15 16  1  0  0  0
 16 18  2  0  0  0
 16 22  1  0  0  0
 18 19  1  0  0  0
 18 43  1  0  0  0
 19 20  2  0  0  0
 19 44  1  0  0  0
 20 21  1  0  0  0
 20 23  1  0  0  0
 21 22  2  0  0  0
 21 45  1  0  0  0
 22 46  1  0  0  0
 23 47  1  0  0  0
 23 48  1  0  0  0
 23 49  1  0  0  0
 24 25  1  0  0  0
 24 50  1  0  0  0
 24 51  1  0  0  0
 25 26  1  0  0  0
 25 52  1  0  0  0
 25 53  1  0  0  0
 26 27  1  0  0  0
 26 54  1  0  0  0
 26 55  1  0  0  0
 27 56  1  0  0  0
 27 57  1  0  0  0
 28 29  1  0  0  0
 28 58  1  0  0  0
 28 59  1  0  0  0
 29 30  2  0  0  0
 29 34  1  0  0  0
 30 31  1  0  0  0
 30 60  1  0  0  0
 31 32  2  0  0  0
 31 61  1  0  0  0
 32 33  1  0  0  0
 32 62  1  0  0  0
 33 34  2  0  0  0
 33 63  1  0  0  0
 34 64  1  0  0  0
M  END
> <s_m_entry_id>
405

> <s_m_entry_name>
dock_pv.404

> <s_m_Source_Path>
/home/csk/Desktop/cluster/DUD-E-result/kif11

> <s_m_Source_File>
dock_pv.maegz

> <i_m_Source_File_Index>
404

> <chembl_id>
CHEMBL1829246

> <chembl_pref_name>
None

> <i_lp_mmshare_version>
53161

> <i_f3d_flags>
0

> <r_lp_tautomer_probability>
1

> <s_lp_Force_Field>
OPLS_2005

> <r_lp_Energy>
55.484629

> <b_lp_Chiralities_Consistent>
1

> <s_lp_Variant>
CHEMBL4581_lig518-1

> <s_i_glide_gridfile>
glide-grid_3cjo

> <i_i_glide_lignum>
760

> <i_i_glide_rotatable_bonds>
10

> <r_i_docking_score>
-7.38480876447523

> <r_i_glide_ligand_efficiency>
-0.217200257778683

> <r_i_glide_ligand_efficiency_sa>
-0.703644517513232

> <r_i_glide_ligand_efficiency_ln>
-1.63151139294223

> <r_i_glide_gscore>
-7.38480876447523

> <r_i_glide_lipo>
-4.46140392721893

> <r_i_glide_hbond>
0

> <r_i_glide_metal>
0

> <r_i_glide_rewards>
-0.824295979475018

> <r_i_glide_evdw>
-45.1337928771973

> <r_i_glide_ecoul>
-3.74061632156372

> <r_i_glide_erotb>
0.718673234313142

> <r_i_glide_esite>
0

> <r_i_glide_emodel>
-47.4597587085055

> <r_i_glide_energy>
-48.874409198761

> <r_i_glide_einternal>
18.3993186950684

> <i_i_glide_confnum>
110

> <i_i_glide_posenum>
207

> <r_i_glide_eff_state_penalty>
0

> <s_user_duplicate_titles>
CHEMBL4581_lig518

> <s_m_subgroup_title>
dock_pv

> <s_m_subgroupid>
dock_pv

> <b_m_subgroup_collapsed>
1

$$$$
CHEMBL4581_lig748
                    3D
 Schrodinger Suite 2021-1.
 31 32  0  0  1  0            999 V2000
   19.1181   13.0148  114.1589 Cl  0  0  0  0  0  0
   18.3419   14.2229  107.9077 S   0  0  0  0  0  0
   18.6655   14.4097  111.5590 S   0  0  0  0  0  0
   15.5840   16.3937  110.8272 O   0  0  0  0  0  0
   21.0683   14.4584  106.5586 O   0  0  0  0  0  0
   17.2547   16.1482  109.2799 N   0  0  0  0  0  0
   18.2116   16.7629  108.5368 N   0  0  0  0  0  0
   19.8666   16.3620  107.0304 N   0  0  0  0  0  0
   17.1092   14.6750  109.1393 C   0  0  2  0  0  0
   17.4004   13.9170  110.4450 C   0  0  0  0  0  0
   18.8485   15.9383  107.8217 C   0  0  0  0  0  0
   16.4784   16.8838  110.1348 C   0  0  0  0  0  0
   16.7822   12.7712  110.9570 C   0  0  0  0  0  0
   15.7322   14.2935  108.5289 C   0  0  0  0  0  0
   18.2721   13.1554  112.6770 C   0  0  0  0  0  0
   17.2479   12.3620  112.2069 C   0  0  0  0  0  0
   16.7248   18.3919  110.2761 C   0  0  0  0  0  0
   20.8631   15.6670  106.4436 C   0  0  0  0  0  0
   21.8348   16.4996  105.6126 C   0  0  0  0  0  0
   19.9353   17.3675  106.9590 H   0  0  0  0  0  0
   15.9817   12.2572  110.4456 H   0  0  0  0  0  0
   14.9120   14.4794  109.2226 H   0  0  0  0  0  0
   15.5240   14.8633  107.6219 H   0  0  0  0  0  0
   15.6881   13.2366  108.2597 H   0  0  0  0  0  0
   16.8379   11.5276  112.7540 H   0  0  0  0  0  0
   17.7622   18.5885  110.5502 H   0  0  0  0  0  0
   16.5098   18.9030  109.3377 H   0  0  0  0  0  0
   16.0878   18.8176  111.0519 H   0  0  0  0  0  0
   21.8190   17.5500  105.9053 H   0  0  0  0  0  0
   21.5781   16.4300  104.5556 H   0  0  0  0  0  0
   22.8525   16.1277  105.7407 H   0  0  0  0  0  0
  1 15  1  0  0  0
  2  9  1  0  0  0
  2 11  1  0  0  0
  3 10  1  0  0  0
  3 15  1  0  0  0
  4 12  2  0  0  0
  5 18  2  0  0  0
  6  7  1  0  0  0
  6  9  1  0  0  0
  6 12  1  0  0  0
  7 11  2  0  0  0
  8 11  1  0  0  0
  8 18  1  0  0  0
  8 20  1  0  0  0
  9 10  1  0  0  0
  9 14  1  0  0  0
 10 13  2  0  0  0
 12 17  1  0  0  0
 13 16  1  0  0  0
 13 21  1  0  0  0
 14 22  1  0  0  0
 14 23  1  0  0  0
 14 24  1  0  0  0
 15 16  2  0  0  0
 16 25  1  0  0  0
 17 26  1  0  0  0
 17 27  1  0  0  0
 17 28  1  0  0  0
 18 19  1  0  0  0
 19 29  1  0  0  0
 19 30  1  0  0  0
 19 31  1  0  0  0
M  END
> <s_m_entry_id>
406

> <s_m_entry_name>
dock_pv.405

> <s_m_Source_Path>
/home/csk/Desktop/cluster/DUD-E-result/kif11

> <s_m_Source_File>
dock_pv.maegz

> <i_m_Source_File_Index>
405

> <chembl_id>
CHEMBL1391655

> <chembl_pref_name>
None

> <i_lp_mmshare_version>
53161

> <i_f3d_flags>
0

> <r_lp_tautomer_probability>
1

> <s_lp_Force_Field>
OPLS_2005

> <r_lp_Energy>
10.728279

> <b_lp_Chiralities_Consistent>
1

> <s_lp_Variant>
CHEMBL4581_lig748-2

> <s_i_glide_gridfile>
glide-grid_3cjo

> <i_i_glide_lignum>
1103

> <i_i_glide_rotatable_bonds>
4

> <r_i_docking_score>
-7.38268742186073

> <r_i_glide_ligand_efficiency>
-0.388562495887407

> <r_i_glide_ligand_efficiency_sa>
-1.03684080363983

> <r_i_glide_ligand_efficiency_ln>
-1.87166982702845

> <r_i_glide_gscore>
-7.38268742186073

> <r_i_glide_lipo>
-2.47937848660525

> <r_i_glide_hbond>
-0.32

> <r_i_glide_metal>
0

> <r_i_glide_rewards>
-2.36621666747491

> <r_i_glide_evdw>
-40.7192573547363

> <r_i_glide_ecoul>
-3.6675717830658

> <r_i_glide_erotb>
0.369006367416116

> <r_i_glide_esite>
0

> <r_i_glide_emodel>
-60.9837447030767

> <r_i_glide_energy>
-44.3868291378021

> <r_i_glide_einternal>
5.01472759246826

> <i_i_glide_confnum>
5

> <i_i_glide_posenum>
37

> <r_i_glide_eff_state_penalty>
0

> <s_user_duplicate_titles>
CHEMBL4581_lig748

> <s_m_subgroup_title>
dock_pv

> <s_m_subgroupid>
dock_pv

> <b_m_subgroup_collapsed>
1

$$$$
CHEMBL4581_lig283
                    3D
 Schrodinger Suite 2021-1.
 50 53  0  0  1  0            999 V2000
   15.4833   15.0300  103.8449 C   0  0  0  0  0  0
   16.7752   15.4894  103.5500 C   0  0  0  0  0  0
   17.6510   15.9613  104.5306 C   0  0  0  0  0  0
   15.0175   15.0799  105.1671 C   0  0  0  0  0  0
   15.6196   15.7083  107.5012 N   0  0  0  0  0  0
   15.8720   15.5571  106.1693 C   0  0  0  0  0  0
   17.1906   15.9633  105.8476 C   0  0  0  0  0  0
   17.7556   16.3251  107.0614 N   0  0  0  0  0  0
   16.7390   16.1679  107.9948 C   0  0  0  0  0  0
   16.9239   16.4407  109.3240 N   0  0  0  0  0  0
   17.1664   15.4535  110.2867 C   0  0  0  0  0  0
   17.9980   15.7956  111.3519 C   0  0  0  0  0  0
   18.3786   14.8296  112.2750 C   0  0  0  0  0  0
   17.9056   13.5322  112.1411 C   0  0  0  0  0  0
   17.0860   13.1678  111.0771 C   0  0  0  0  0  0
   16.7074   14.1350  110.1509 C   0  0  0  0  0  0
   19.1642   16.7030  107.3242 C   0  0  0  0  0  0
   20.1163   15.5115  107.3589 C   0  0  0  0  0  0
   21.1918   15.3190  106.4593 C   0  0  0  0  0  0
   21.9330   14.1309  106.5590 C   0  0  0  0  0  0
   21.7158   13.2381  107.6033 C   0  0  0  0  0  0
   20.7323   13.4815  108.5509 C   0  0  0  0  0  0
   19.9237   14.5918  108.3955 C   0  0  0  0  0  0
   21.6829   16.3847  105.4637 C   0  0  0  0  0  0
   22.5193   15.8685  104.5647 F   0  0  0  0  0  0
   20.7261   17.0117  104.7900 F   0  0  0  0  0  0
   22.3586   17.2989  106.1532 F   0  0  0  0  0  0
   14.5865   14.4909  102.7541 C   0  0  0  0  0  0
   13.4227   14.1550  102.9592 O   0  0  0  0  0  0
   15.1578   14.3892  101.5205 O   0  0  0  0  0  0
   18.3179   12.3622  113.3697 S   0  0  0  0  0  0
   16.9435   12.4534  114.5398 C   0  0  0  0  0  0
   17.1240   15.4752  102.5281 H   0  0  0  0  0  0
   18.6348   16.3053  104.2755 H   0  0  0  0  0  0
   14.0187   14.7533  105.4209 H   0  0  0  0  0  0
   17.2852   17.3444  109.5864 H   0  0  0  0  0  0
   18.3794   16.8020  111.4518 H   0  0  0  0  0  0
   19.0229   15.0955  113.1003 H   0  0  0  0  0  0
   16.7308   12.1515  110.9781 H   0  0  0  0  0  0
   16.0787   13.8469  109.3219 H   0  0  0  0  0  0
   19.2060   17.1873  108.2981 H   0  0  0  0  0  0
   19.5171   17.4555  106.6220 H   0  0  0  0  0  0
   22.7420   13.9199  105.8741 H   0  0  0  0  0  0
   22.3195   12.3619  107.6793 H   0  0  0  0  0  0
   20.5594   12.7903  109.3633 H   0  0  0  0  0  0
   19.1488   14.7352  109.1143 H   0  0  0  0  0  0
   14.5036   14.0488  100.9079 H   0  0  0  0  0  0
   17.2064   11.9621  115.4710 H   0  0  0  0  0  0
   16.7179   13.4950  114.7637 H   0  0  0  0  0  0
   16.0560   11.9680  114.1311 H   0  0  0  0  0  0
  1  4  1  0  0  0
  1 28  1  0  0  0
  1  2  2  0  0  0
  2  3  1  0  0  0
  2 33  1  0  0  0
  3  7  2  0  0  0
  3 34  1  0  0  0
  4  6  2  0  0  0
  4 35  1  0  0  0
  5  6  1  0  0  0
  5  9  2  0  0  0
  6  7  1  0  0  0
  7  8  1  0  0  0
  8 17  1  0  0  0
  8  9  1  0  0  0
  9 10  1  0  0  0
 10 11  1  0  0  0
 10 36  1  0  0  0
 11 16  1  0  0  0
 11 12  2  0  0  0
 12 13  1  0  0  0
 12 37  1  0  0  0
 13 14  2  0  0  0
 13 38  1  0  0  0
 14 31  1  0  0  0
 14 15  1  0  0  0
 15 16  2  0  0  0
 15 39  1  0  0  0
 16 40  1  0  0  0
 17 18  1  0  0  0
 17 41  1  0  0  0
 17 42  1  0  0  0
 18 19  2  0  0  0
 18 23  1  0  0  0
 19 20  1  0  0  0
 19 24  1  0  0  0
 20 21  2  0  0  0
 20 43  1  0  0  0
 21 22  1  0  0  0
 21 44  1  0  0  0
 22 23  2  0  0  0
 22 45  1  0  0  0
 23 46  1  0  0  0
 24 25  1  0  0  0
 24 26  1  0  0  0
 24 27  1  0  0  0
 28 29  2  0  0  0
 28 30  1  0  0  0
 30 47  1  0  0  0
 31 32  1  0  0  0
 32 48  1  0  0  0
 32 49  1  0  0  0
 32 50  1  0  0  0
M  END
> <s_m_entry_id>
407

> <s_m_entry_name>
dock_pv.406

> <s_m_Source_Path>
/home/csk/Desktop/cluster/DUD-E-result/kif11

> <s_m_Source_File>
dock_pv.maegz

> <i_m_Source_File_Index>
406

> <chembl_id>
CHEMBL564468

> <chembl_pref_name>
None

> <i_lp_mmshare_version>
53161

> <i_f3d_flags>
0

> <r_lp_tautomer_probability>
1

> <s_lp_Force_Field>
OPLS_2005

> <r_lp_Energy>
22.178578

> <b_lp_Chiralities_Consistent>
1

> <s_lp_Variant>
CHEMBL4581_lig283-1

> <s_i_glide_gridfile>
glide-grid_3cjo

> <i_i_glide_lignum>
409

> <i_i_glide_rotatable_bonds>
8

> <r_i_docking_score>
-7.37945032092749

> <r_i_glide_ligand_efficiency>
-0.230607822528984

> <r_i_glide_ligand_efficiency_sa>
-0.732134199303416

> <r_i_glide_ligand_efficiency_ln>
-1.65246008307411

> <r_i_glide_gscore>
-7.37945032092749

> <r_i_glide_lipo>
-4.00579712305186

> <r_i_glide_hbond>
0

> <r_i_glide_metal>
0

> <r_i_glide_rewards>
-1.69094146951504

> <r_i_glide_evdw>
-40.669376373291

> <r_i_glide_ecoul>
-0.862171113491058

> <r_i_glide_erotb>
0.480345220752644

> <r_i_glide_esite>
-0.00026246342503118

> <r_i_glide_emodel>
-50.3608200127649

> <r_i_glide_energy>
-41.5315474867821

> <r_i_glide_einternal>
12.9547920227051

> <i_i_glide_confnum>
12

> <i_i_glide_posenum>
206

> <r_i_glide_eff_state_penalty>
0

> <s_user_duplicate_titles>
CHEMBL4581_lig283

> <s_m_subgroup_title>
dock_pv

> <s_m_subgroupid>
dock_pv

> <b_m_subgroup_collapsed>
1

$$$$
CHEMBL4581_lig282
                    3D
 Schrodinger Suite 2021-1.
 50 53  0  0  1  0            999 V2000
   17.8499   13.1297  112.5389 C   0  0  0  0  0  0
   17.0762   12.3612  111.6650 C   0  0  0  0  0  0
   16.8958   12.6953  110.3267 C   0  0  0  0  0  0
   18.5046   14.2810  112.0853 C   0  0  0  0  0  0
   18.8482   15.7199  110.0751 N   0  0  0  0  0  0
   18.3369   14.6449  110.7423 C   0  0  0  0  0  0
   17.5383   13.8472  109.8836 C   0  0  0  0  0  0
   17.5906   14.4794  108.6597 N   0  0  0  0  0  0
   18.4240   15.5672  108.8485 C   0  0  0  0  0  0
   18.8480   16.3498  107.8147 N   0  0  0  0  0  0
   19.9180   15.9781  106.9889 C   0  0  0  0  0  0
   20.3826   16.9012  106.0562 C   0  0  0  0  0  0
   21.4804   16.6135  105.2609 C   0  0  0  0  0  0
   22.1107   15.3755  105.3548 C   0  0  0  0  0  0
   21.6497   14.4337  106.2859 C   0  0  0  0  0  0
   20.5610   14.7375  107.0963 C   0  0  0  0  0  0
   16.9264   14.0460  107.4192 C   0  0  0  0  0  0
   15.3851   14.0198  107.4169 C   0  0  0  0  0  0
   14.6700   13.4697  106.3259 C   0  0  0  0  0  0
   13.2677   13.4252  106.3797 C   0  0  0  0  0  0
   12.5727   13.9409  107.4695 C   0  0  0  0  0  0
   13.2702   14.5167  108.5237 C   0  0  0  0  0  0
   14.6615   14.5566  108.4958 C   0  0  0  0  0  0
   15.3781   12.9483  105.0646 C   0  0  0  0  0  0
   14.5208   12.4740  104.1575 F   0  0  0  0  0  0
   16.0493   13.9466  104.4903 F   0  0  0  0  0  0
   16.2289   11.9679  105.3589 F   0  0  0  0  0  0
   17.8874   12.7422  113.9837 C   0  0  0  0  0  0
   16.8797   12.3621  114.5693 O   0  0  0  0  0  0
   19.1179   12.7537  114.5582 O   0  0  0  0  0  0
   23.1227   15.1544  104.4530 O   0  0  0  0  0  0
   23.8809   13.9660  104.5378 C   0  0  0  0  0  0
   21.9136   17.5280  104.3633 F   0  0  0  0  0  0
   16.5679   11.4818  112.0364 H   0  0  0  0  0  0
   16.2912   12.0865  109.6700 H   0  0  0  0  0  0
   19.1007   14.8914  112.7479 H   0  0  0  0  0  0
   18.7384   17.3521  107.8774 H   0  0  0  0  0  0
   19.9177   17.8686  105.9534 H   0  0  0  0  0  0
   22.1068   13.4606  106.3759 H   0  0  0  0  0  0
   20.2298   13.9968  107.8086 H   0  0  0  0  0  0
   17.3054   13.0445  107.2121 H   0  0  0  0  0  0
   17.2638   14.6769  106.5964 H   0  0  0  0  0  0
   12.6962   12.9997  105.5673 H   0  0  0  0  0  0
   11.4926   13.9043  107.4879 H   0  0  0  0  0  0
   12.7303   14.9363  109.3589 H   0  0  0  0  0  0
   15.1662   15.0177  109.3317 H   0  0  0  0  0  0
   19.0520   12.4544  115.4782 H   0  0  0  0  0  0
   24.6624   13.9597  103.7669 H   0  0  0  0  0  0
   24.3190   13.9617  105.5327 H   0  0  0  0  0  0
   23.2667   13.0784  104.4153 H   0  0  0  0  0  0
  1  4  1  0  0  0
  1 28  1  0  0  0
  1  2  2  0  0  0
  2  3  1  0  0  0
  2 34  1  0  0  0
  3  7  2  0  0  0
  3 35  1  0  0  0
  4  6  2  0  0  0
  4 36  1  0  0  0
  5  6  1  0  0  0
  5  9  2  0  0  0
  6  7  1  0  0  0
  7  8  1  0  0  0
  8 17  1  0  0  0
  8  9  1  0  0  0
  9 10  1  0  0  0
 10 11  1  0  0  0
 10 37  1  0  0  0
 11 16  1  0  0  0
 11 12  2  0  0  0
 12 13  1  0  0  0
 12 38  1  0  0  0
 13 14  2  0  0  0
 13 33  1  0  0  0
 14 31  1  0  0  0
 14 15  1  0  0  0
 15 16  2  0  0  0
 15 39  1  0  0  0
 16 40  1  0  0  0
 17 18  1  0  0  0
 17 41  1  0  0  0
 17 42  1  0  0  0
 18 19  2  0  0  0
 18 23  1  0  0  0
 19 20  1  0  0  0
 19 24  1  0  0  0
 20 21  2  0  0  0
 20 43  1  0  0  0
 21 22  1  0  0  0
 21 44  1  0  0  0
 22 23  2  0  0  0
 22 45  1  0  0  0
 23 46  1  0  0  0
 24 25  1  0  0  0
 24 26  1  0  0  0
 24 27  1  0  0  0
 28 29  2  0  0  0
 28 30  1  0  0  0
 30 47  1  0  0  0
 31 32  1  0  0  0
 32 48  1  0  0  0
 32 49  1  0  0  0
 32 50  1  0  0  0
M  END
> <s_m_entry_id>
408

> <s_m_entry_name>
dock_pv.407

> <s_m_Source_Path>
/home/csk/Desktop/cluster/DUD-E-result/kif11

> <s_m_Source_File>
dock_pv.maegz

> <i_m_Source_File_Index>
407

> <chembl_id>
CHEMBL558476

> <chembl_pref_name>
None

> <i_lp_mmshare_version>
53161

> <i_f3d_flags>
0

> <r_lp_tautomer_probability>
1

> <s_lp_Force_Field>
OPLS_2005

> <r_lp_Energy>
26.154144

> <b_lp_Chiralities_Consistent>
1

> <s_lp_Variant>
CHEMBL4581_lig282-1

> <s_i_glide_gridfile>
glide-grid_3cjo

> <i_i_glide_lignum>
408

> <i_i_glide_rotatable_bonds>
8

> <r_i_docking_score>
-7.37504576955485

> <r_i_glide_ligand_efficiency>
-0.223486235441056

> <r_i_glide_ligand_efficiency_sa>
-0.716839771623239

> <r_i_glide_ligand_efficiency_ln>
-1.64017199320567

> <r_i_glide_gscore>
-7.37504576955485

> <r_i_glide_lipo>
-3.41750551265607

> <r_i_glide_hbond>
-0.00246512391601695

> <r_i_glide_metal>
0

> <r_i_glide_rewards>
-1.55142312164541

> <r_i_glide_evdw>
-45.2406959533691

> <r_i_glide_ecoul>
-3.90367412567139

> <r_i_glide_erotb>
0.476688529448212

> <r_i_glide_esite>
-0.0327546242663941

> <r_i_glide_emodel>
-55.0094724425884

> <r_i_glide_energy>
-49.1443700790405

> <r_i_glide_einternal>
13.5149412155151

> <i_i_glide_confnum>
17

> <i_i_glide_posenum>
363

> <r_i_glide_eff_state_penalty>
0

> <s_user_duplicate_titles>
CHEMBL4581_lig282

> <s_m_subgroup_title>
dock_pv

> <s_m_subgroupid>
dock_pv

> <b_m_subgroup_collapsed>
1

$$$$
CHEMBL4581_lig872
                    3D
 Schrodinger Suite 2021-1.
 52 54  0  0  1  0            999 V2000
   18.3412   14.4962  108.7577 C   0  0  0  0  0  0
   17.0467   14.1815  107.9345 C   0  0  0  0  0  0
   19.5894   14.6825  107.8299 C   0  0  0  0  0  0
   15.7737   14.3745  108.4969 C   0  0  0  0  0  0
   14.6173   14.0714  107.7844 C   0  0  0  0  0  0
   14.7175   13.5604  106.4959 C   0  0  0  0  0  0
   15.9646   13.3504  105.9174 C   0  0  0  0  0  0
   17.1169   13.6557  106.6338 C   0  0  0  0  0  0
   20.7181   13.8495  107.8877 C   0  0  0  0  0  0
   21.7507   13.9578  106.9595 C   0  0  0  0  0  0
   21.7450   14.9891  106.0350 C   0  0  0  0  0  0
   20.6800   15.8949  106.0014 C   0  0  0  0  0  0
   19.6046   15.7186  106.8779 C   0  0  0  0  0  0
   18.2665   15.8222  109.5638 C   0  0  0  0  0  0
   17.4295   16.8788  109.1629 C   0  0  0  0  0  0
   17.4109   18.0761  109.8682 C   0  0  0  0  0  0
   18.2543   18.2360  110.9589 C   0  0  0  0  0  0
   19.1142   17.2183  111.3513 C   0  0  0  0  0  0
   19.1093   16.0117  110.6699 C   0  0  0  0  0  0
   18.5159   13.2665  109.7350 C   0  0  0  0  0  0
   17.4362   13.0447  110.8310 C   0  0  0  0  0  0
   17.9176   12.1359  111.9733 C   0  0  0  0  0  0
   16.8689   11.9621  112.9581 N   0  0  0  0  0  0
   20.6437   17.0639  105.0254 C   0  0  0  0  0  0
   21.9179   17.2717  104.1870 C   0  0  0  0  0  0
   15.6725   14.7617  109.5001 H   0  0  0  0  0  0
   13.6490   14.2294  108.2332 H   0  0  0  0  0  0
   13.8218   13.3166  105.9443 H   0  0  0  0  0  0
   16.0456   12.9447  104.9201 H   0  0  0  0  0  0
   18.0663   13.4692  106.1592 H   0  0  0  0  0  0
   20.7881   13.0327  108.5875 H   0  0  0  0  0  0
   22.5753   13.2639  106.9833 H   0  0  0  0  0  0
   22.5825   15.0601  105.3588 H   0  0  0  0  0  0
   18.7674   16.3957  106.8115 H   0  0  0  0  0  0
   16.7968   16.7944  108.2915 H   0  0  0  0  0  0
   16.7598   18.8810  109.5613 H   0  0  0  0  0  0
   18.2535   19.1619  111.5062 H   0  0  0  0  0  0
   19.8065   17.3775  112.1590 H   0  0  0  0  0  0
   19.8124   15.2574  110.9847 H   0  0  0  0  0  0
   18.5626   12.3644  109.1252 H   0  0  0  0  0  0
   19.4790   13.3144  110.2400 H   0  0  0  0  0  0
   17.1297   14.0013  111.2555 H   0  0  0  0  0  0
   16.5490   12.6003  110.3784 H   0  0  0  0  0  0
   18.2190   11.1620  111.5938 H   0  0  0  0  0  0
   18.7802   12.5799  112.4692 H   0  0  0  0  0  0
   16.0798   11.4619  112.5586 H   0  0  0  0  0  0
   17.1930   11.4046  113.7339 H   0  0  0  0  0  0
   19.7870   16.9310  104.3666 H   0  0  0  0  0  0
   20.4458   17.9620  105.6078 H   0  0  0  0  0  0
   21.7810   18.0384  103.4281 H   0  0  0  0  0  0
   22.7532   17.5626  104.8229 H   0  0  0  0  0  0
   22.2031   16.3622  103.6644 H   0  0  0  0  0  0
  1  2  1  0  0  0
  1  3  1  0  0  0
  1 14  1  0  0  0
  1 20  1  0  0  0
  2  4  2  0  0  0
  2  8  1  0  0  0
  3  9  2  0  0  0
  3 13  1  0  0  0
  4  5  1  0  0  0
  4 26  1  0  0  0
  5  6  2  0  0  0
  5 27  1  0  0  0
  6  7  1  0  0  0
  6 28  1  0  0  0
  7  8  2  0  0  0
  7 29  1  0  0  0
  8 30  1  0  0  0
  9 10  1  0  0  0
  9 31  1  0  0  0
 10 11  2  0  0  0
 10 32  1  0  0  0
 11 12  1  0  0  0
 11 33  1  0  0  0
 12 13  2  0  0  0
 12 24  1  0  0  0
 13 34  1  0  0  0
 14 15  2  0  0  0
 14 19  1  0  0  0
 15 16  1  0  0  0
 15 35  1  0  0  0
 16 17  2  0  0  0
 16 36  1  0  0  0
 17 18  1  0  0  0
 17 37  1  0  0  0
 18 19  2  0  0  0
 18 38  1  0  0  0
 19 39  1  0  0  0
 20 21  1  0  0  0
 20 40  1  0  0  0
 20 41  1  0  0  0
 21 22  1  0  0  0
 21 42  1  0  0  0
 21 43  1  0  0  0
 22 23  1  0  0  0
 22 44  1  0  0  0
 22 45  1  0  0  0
 23 46  1  0  0  0
 23 47  1  0  0  0
 24 25  1  0  0  0
 24 48  1  0  0  0
 24 49  1  0  0  0
 25 50  1  0  0  0
 25 51  1  0  0  0
 25 52  1  0  0  0
M  END
> <s_m_entry_id>
409

> <s_m_entry_name>
dock_pv.408

> <s_m_Source_Path>
/home/csk/Desktop/cluster/DUD-E-result/kif11

> <s_m_Source_File>
dock_pv.maegz

> <i_m_Source_File_Index>
408

> <chembl_id>
CHEMBL2325432

> <chembl_pref_name>
None

> <i_lp_mmshare_version>
53161

> <i_f3d_flags>
0

> <r_lp_tautomer_probability>
1

> <s_lp_Force_Field>
OPLS_2005

> <r_lp_Energy>
29.376493

> <b_lp_Chiralities_Consistent>
1

> <s_lp_Variant>
CHEMBL4581_lig872-1

> <s_i_glide_gridfile>
glide-grid_3cjo

> <i_i_glide_lignum>
1263

> <i_i_glide_rotatable_bonds>
7

> <r_i_docking_score>
-7.3740213229698

> <r_i_glide_ligand_efficiency>
-0.294960852918792

> <r_i_glide_ligand_efficiency_sa>
-0.862470765087548

> <r_i_glide_ligand_efficiency_ln>
-1.74786403513077

> <r_i_glide_gscore>
-7.3740213229698

> <r_i_glide_lipo>
-4.87139955460112

> <r_i_glide_hbond>
-0.32

> <r_i_glide_metal>
0

> <r_i_glide_rewards>
-1.16265081818182

> <r_i_glide_evdw>
-32.9673614501953

> <r_i_glide_ecoul>
-1.58204054832458

> <r_i_glide_erotb>
0.8657032045716

> <r_i_glide_esite>
0

> <r_i_glide_emodel>
-50.9191945503048

> <r_i_glide_energy>
-34.5494019985199

> <r_i_glide_einternal>
1.91159212589264

> <i_i_glide_confnum>
32

> <i_i_glide_posenum>
297

> <r_i_glide_eff_state_penalty>
0

> <s_user_duplicate_titles>
CHEMBL4581_lig872

> <s_m_subgroup_title>
dock_pv

> <s_m_subgroupid>
dock_pv

> <b_m_subgroup_collapsed>
1

$$$$
CHEMBL4581_lig374
                    3D
 Schrodinger Suite 2021-1.
 63 66  0  0  1  0            999 V2000
   21.2059   15.8637  105.8032 C   0  0  0  0  0  0
   21.7244   14.6222  106.1593 C   0  0  0  0  0  0
   21.2348   13.9620  107.2904 C   0  0  0  0  0  0
   20.1784   16.4221  106.5480 C   0  0  0  0  0  0
   19.6877   15.8058  107.6996 C   0  0  0  0  0  0
   20.2132   14.5463  108.0603 C   0  0  0  0  0  0
   19.7679   13.8858  109.2243 N   0  0  0  0  0  0
   18.5166   14.3112  109.8604 C   0  0  2  0  0  0
   18.5994   16.4915  108.5153 C   0  0  2  0  0  0
   18.4538   15.8668  109.9221 C   0  0  1  0  0  0
   17.1764   16.4276  110.5997 C   0  0  0  0  0  0
   15.9414   16.3447  109.6866 C   0  0  0  0  0  0
   16.2383   16.9739  108.3090 C   0  0  1  0  0  0
   17.4047   16.3612  107.7583 O   0  0  0  0  0  0
   18.3241   13.6742  111.2336 C   0  0  0  0  0  0
   19.1179   14.0848  112.3112 C   0  0  0  0  0  0
   18.9034   13.5616  113.5795 C   0  0  0  0  0  0
   17.8952   12.6256  113.7740 C   0  0  0  0  0  0
   17.1180   12.1887  112.7040 C   0  0  0  0  0  0
   17.3276   12.7157  111.4323 C   0  0  0  0  0  0
   15.0507   16.8550  107.3220 C   0  0  0  0  0  0
   14.9650   15.5639  106.6270 N   0  0  0  0  0  0
   19.3081   16.2260  110.4989 H   0  0  0  0  0  0
   18.8322   17.5536  108.6220 H   0  0  0  0  0  0
   21.8060   12.7920  107.6642 F   0  0  0  0  0  0
   21.9180   16.8506  104.3421 Br  0  0  0  0  0  0
   15.6212   15.2891  105.4851 C   0  0  0  0  0  0
   16.3288   16.1166  104.9061 O   0  0  0  0  0  0
   15.4476   13.8766  104.9083 C   0  0  0  0  0  0
   15.3513   13.8586  103.3664 C   0  0  0  0  0  0
   16.7091   14.0373  102.6335 C   0  0  0  0  0  0
   16.6457   14.7623  101.3596 N   0  0  0  0  0  0
   15.7147   14.1766  100.3970 C   0  0  0  0  0  0
   16.3642   16.1858  101.5500 C   0  0  0  0  0  0
   22.5226   14.1803  105.5807 H   0  0  0  0  0  0
   19.7872   17.3840  106.2527 H   0  0  0  0  0  0
   19.9518   12.8970  109.3260 H   0  0  0  0  0  0
   17.6998   13.9567  109.2274 H   0  0  0  0  0  0
   17.3486   17.4746  110.8588 H   0  0  0  0  0  0
   16.9750   15.9337  111.5493 H   0  0  0  0  0  0
   15.1023   16.8568  110.1597 H   0  0  0  0  0  0
   15.6271   15.3078  109.5648 H   0  0  0  0  0  0
   16.4187   18.0430  108.4448 H   0  0  0  0  0  0
   19.9024   14.8125  112.1689 H   0  0  0  0  0  0
   19.5182   13.8783  114.4074 H   0  0  0  0  0  0
   17.7219   12.2289  114.7637 H   0  0  0  0  0  0
   16.3365   11.4592  112.8669 H   0  0  0  0  0  0
   16.7084   12.3855  110.6106 H   0  0  0  0  0  0
   15.1306   17.6539  106.5815 H   0  0  0  0  0  0
   14.1082   17.0436  107.8386 H   0  0  0  0  0  0
   14.4018   14.8441  107.0504 H   0  0  0  0  0  0
   14.5377   13.4388  105.3245 H   0  0  0  0  0  0
   16.2750   13.2520  105.2476 H   0  0  0  0  0  0
   14.5835   14.5442  103.0080 H   0  0  0  0  0  0
   14.9676   12.8761  103.0864 H   0  0  0  0  0  0
   17.1196   13.0503  102.4220 H   0  0  0  0  0  0
   17.4483   14.5097  103.2810 H   0  0  0  0  0  0
   15.8168   14.6616   99.4246 H   0  0  0  0  0  0
   15.9173   13.1154  100.2532 H   0  0  0  0  0  0
   14.6758   14.2830  100.7132 H   0  0  0  0  0  0
   16.4383   16.7241  100.6044 H   0  0  0  0  0  0
   15.3664   16.3606  101.9553 H   0  0  0  0  0  0
   17.0855   16.6343  102.2345 H   0  0  0  0  0  0
  1  4  1  0  0  0
  1 26  1  0  0  0
  1  2  2  0  0  0
  2  3  1  0  0  0
  2 35  1  0  0  0
  3 25  1  0  0  0
  3  6  2  0  0  0
  4  5  2  0  0  0
  4 36  1  0  0  0
  5  6  1  0  0  0
  5  9  1  0  0  0
  6  7  1  0  0  0
  7  8  1  0  0  0
  7 37  1  0  0  0
  8 10  1  0  0  0
  8 15  1  0  0  0
  8 38  1  0  0  0
  9 10  1  0  0  0
  9 24  1  0  0  0
  9 14  1  0  0  0
 10 23  1  0  0  0
 10 11  1  0  0  0
 11 12  1  0  0  0
 11 39  1  0  0  0
 11 40  1  0  0  0
 12 13  1  0  0  0
 12 41  1  0  0  0
 12 42  1  0  0  0
 13 21  1  0  0  0
 13 14  1  0  0  0
 13 43  1  0  0  0
 15 20  1  0  0  0
 15 16  2  0  0  0
 16 17  1  0  0  0
 16 44  1  0  0  0
 17 18  2  0  0  0
 17 45  1  0  0  0
 18 19  1  0  0  0
 18 46  1  0  0  0
 19 20  2  0  0  0
 19 47  1  0  0  0
 20 48  1  0  0  0
 21 22  1  0  0  0
 21 49  1  0  0  0
 21 50  1  0  0  0
 22 27  1  0  0  0
 22 51  1  0  0  0
 27 28  2  0  0  0
 27 29  1  0  0  0
 29 30  1  0  0  0
 29 52  1  0  0  0
 29 53  1  0  0  0
 30 31  1  0  0  0
 30 54  1  0  0  0
 30 55  1  0  0  0
 31 32  1  0  0  0
 31 56  1  0  0  0
 31 57  1  0  0  0
 32 33  1  0  0  0
 32 34  1  0  0  0
 33 58  1  0  0  0
 33 59  1  0  0  0
 33 60  1  0  0  0
 34 61  1  0  0  0
 34 62  1  0  0  0
 34 63  1  0  0  0
M  END
> <s_m_entry_id>
410

> <s_m_entry_name>
dock_pv.409

> <s_m_Source_Path>
/home/csk/Desktop/cluster/DUD-E-result/kif11

> <s_m_Source_File>
dock_pv.maegz

> <i_m_Source_File_Index>
409

> <chembl_id>
CHEMBL1085692

> <chembl_pref_name>
None

> <i_lp_mmshare_version>
53161

> <i_f3d_flags>
0

> <r_lp_tautomer_probability>
1

> <s_lp_Force_Field>
OPLS_2005

> <r_lp_Energy>
28.36681

> <b_lp_Chiralities_Consistent>
1

> <s_lp_Variant>
CHEMBL4581_lig374-1

> <s_i_glide_gridfile>
glide-grid_3cjo

> <i_i_glide_lignum>
527

> <i_i_glide_rotatable_bonds>
8

> <r_i_docking_score>
-7.37048211097931

> <r_i_glide_ligand_efficiency>
-0.230327565968104

> <r_i_glide_ligand_efficiency_sa>
-0.731244440185318

> <r_i_glide_ligand_efficiency_ln>
-1.65045185640255

> <r_i_glide_gscore>
-7.37048211097931

> <r_i_glide_lipo>
-4.72734549772303

> <r_i_glide_hbond>
-0.32

> <r_i_glide_metal>
0

> <r_i_glide_rewards>
-0.0916615885588803

> <r_i_glide_evdw>
-41.9017944335938

> <r_i_glide_ecoul>
-4.65912199020386

> <r_i_glide_erotb>
0.562482995512869

> <r_i_glide_esite>
0

> <r_i_glide_emodel>
-63.9140197292349

> <r_i_glide_energy>
-46.5609164237976

> <r_i_glide_einternal>
7.90527391433716

> <i_i_glide_confnum>
18

> <i_i_glide_posenum>
57

> <r_i_glide_eff_state_penalty>
0

> <s_user_duplicate_titles>
CHEMBL4581_lig374,615944

> <s_m_subgroup_title>
dock_pv

> <s_m_subgroupid>
dock_pv

> <b_m_subgroup_collapsed>
1

$$$$
CHEMBL4581_lig73
                    3D
 Schrodinger Suite 2021-1.
 48 50  0  0  1  0            999 V2000
   18.9561   15.0910  107.2201 C   0  0  0  0  0  0
   17.5464   15.7009  107.1557 C   0  0  0  0  0  0
   20.5288   13.5631  108.2527 C   0  0  0  0  0  0
   21.5162   13.9550  107.3592 C   0  0  0  0  0  0
   21.2633   14.9491  106.4199 C   0  0  0  0  0  0
   19.9819   15.5260  106.3530 C   0  0  0  0  0  0
   17.9179   12.9901  111.5851 C   0  0  0  0  0  0
   18.2770   13.1990  112.9180 C   0  0  0  0  0  0
   19.1176   14.2559  113.2550 C   0  0  0  0  0  0
   19.5181   15.1615  112.2817 C   0  0  0  0  0  0
   17.8222   12.3621  113.8956 O   0  0  0  0  0  0
   19.6736   16.6195  105.3329 C   0  0  0  0  0  0
   16.7958   15.4347  108.3922 N   0  0  0  0  0  0
   16.6999   14.0041  108.6931 C   0  0  0  0  0  0
   18.1193   13.5522  109.1103 C   0  0  1  0  0  0
   19.2287   14.0745  108.1655 C   0  0  0  0  0  0
   18.3887   13.8534  110.5869 C   0  0  0  0  0  0
   19.1509   14.9654  110.9586 C   0  0  0  0  0  0
   22.4183   15.3996  105.5316 C   0  0  0  0  0  0
   16.1309   16.3659  109.1331 C   0  0  0  0  0  0
   16.6193   17.6378  109.1666 N   0  0  0  0  0  0
   18.0467   17.9724  109.2135 C   0  0  0  0  0  0
   15.7604   18.7793  109.4891 C   0  0  0  0  0  0
   15.1169   16.0603  109.7689 O   0  0  0  0  0  0
   17.0145   15.2419  106.3213 H   0  0  0  0  0  0
   17.5911   16.7631  106.9383 H   0  0  0  0  0  0
   20.7488   12.8005  108.9848 H   0  0  0  0  0  0
   22.4953   13.5038  107.4269 H   0  0  0  0  0  0
   17.3045   12.1390  111.3254 H   0  0  0  0  0  0
   19.4946   14.3748  114.2548 H   0  0  0  0  0  0
   20.1633   15.9862  112.5423 H   0  0  0  0  0  0
   18.1892   12.5494  114.7637 H   0  0  0  0  0  0
   20.4409   16.7597  104.5725 H   0  0  0  0  0  0
   18.7499   16.3897  104.8020 H   0  0  0  0  0  0
   19.5270   17.5620  105.8516 H   0  0  0  0  0  0
   16.3866   13.4829  107.7867 H   0  0  0  0  0  0
   15.9257   13.7633  109.4238 H   0  0  0  0  0  0
   18.1379   12.4649  109.0304 H   0  0  0  0  0  0
   19.5238   15.6523  110.2169 H   0  0  0  0  0  0
   22.2735   15.0589  104.5077 H   0  0  0  0  0  0
   22.4948   16.4873  105.5223 H   0  0  0  0  0  0
   23.3798   15.0257  105.8869 H   0  0  0  0  0  0
   18.6973   17.1336  108.9813 H   0  0  0  0  0  0
   18.2840   18.7623  108.5036 H   0  0  0  0  0  0
   18.3156   18.3296  110.2087 H   0  0  0  0  0  0
   14.6994   18.5362  109.4180 H   0  0  0  0  0  0
   15.9580   19.1301  110.5022 H   0  0  0  0  0  0
   15.9550   19.6019  108.8017 H   0  0  0  0  0  0
  1  2  1  0  0  0
  1  6  1  0  0  0
  1 16  2  0  0  0
  2 13  1  0  0  0
  2 25  1  0  0  0
  2 26  1  0  0  0
  3  4  2  0  0  0
  3 16  1  0  0  0
  3 27  1  0  0  0
  4  5  1  0  0  0
  4 28  1  0  0  0
  5  6  2  0  0  0
  5 19  1  0  0  0
  6 12  1  0  0  0
  7  8  1  0  0  0
  7 17  2  0  0  0
  7 29  1  0  0  0
  8  9  2  0  0  0
  8 11  1  0  0  0
  9 10  1  0  0  0
  9 30  1  0  0  0
 10 18  2  0  0  0
 10 31  1  0  0  0
 11 32  1  0  0  0
 12 33  1  0  0  0
 12 34  1  0  0  0
 12 35  1  0  0  0
 13 14  1  0  0  0
 13 20  1  0  0  0
 14 15  1  0  0  0
 14 36  1  0  0  0
 14 37  1  0  0  0
 15 16  1  0  0  0
 15 17  1  0  0  0
 15 38  1  0  0  0
 17 18  1  0  0  0
 18 39  1  0  0  0
 19 40  1  0  0  0
 19 41  1  0  0  0
 19 42  1  0  0  0
 20 21  1  0  0  0
 20 24  2  0  0  0
 21 22  1  0  0  0
 21 23  1  0  0  0
 22 43  1  0  0  0
 22 44  1  0  0  0
 22 45  1  0  0  0
 23 46  1  0  0  0
 23 47  1  0  0  0
 23 48  1  0  0  0
M  END
> <s_m_entry_id>
411

> <s_m_entry_name>
dock_pv.410

> <s_m_Source_Path>
/home/csk/Desktop/cluster/DUD-E-result/kif11

> <s_m_Source_File>
dock_pv.maegz

> <i_m_Source_File_Index>
410

> <chembl_id>
CHEMBL205786

> <chembl_pref_name>
None

> <i_lp_mmshare_version>
53161

> <i_f3d_flags>
0

> <r_lp_tautomer_probability>
0.999999999997365

> <s_lp_Force_Field>
OPLS_2005

> <r_lp_Energy>
48.192041

> <b_lp_Chiralities_Consistent>
1

> <s_lp_Variant>
CHEMBL4581_lig73-1

> <s_i_glide_gridfile>
glide-grid_3cjo

> <i_i_glide_lignum>
112

> <i_i_glide_rotatable_bonds>
4

> <r_i_docking_score>
-7.36659849537749

> <r_i_glide_ligand_efficiency>
-0.306941603974062

> <r_i_glide_ligand_efficiency_sa>
-0.885372791944195

> <r_i_glide_ligand_efficiency_ln>
-1.76316505112238

> <r_i_glide_gscore>
-7.36659849537749

> <r_i_glide_lipo>
-4.22766263581656

> <r_i_glide_hbond>
0

> <r_i_glide_metal>
0

> <r_i_glide_rewards>
-1.47875011258131

> <r_i_glide_evdw>
-33.8881797790527

> <r_i_glide_ecoul>
-2.14436030387878

> <r_i_glide_erotb>
0.355877287554827

> <r_i_glide_esite>
0

> <r_i_glide_emodel>
-51.9265842047362

> <r_i_glide_energy>
-36.0325400829315

> <r_i_glide_einternal>
1.4038952589035

> <i_i_glide_confnum>
38

> <i_i_glide_posenum>
79

> <r_i_glide_eff_state_penalty>
0

> <s_user_duplicate_titles>
CHEMBL4581_lig73,CHEMBL4581_lig65,345184

> <s_m_subgroup_title>
dock_pv

> <s_m_subgroupid>
dock_pv

> <b_m_subgroup_collapsed>
1

$$$$
CHEMBL4581_lig737
                    3D
 Schrodinger Suite 2021-1.
 52 56  0  0  1  0            999 V2000
   17.7056   13.4683  110.5972 C   0  0  0  0  0  0
   18.4739   13.2168  113.2752 C   0  0  0  0  0  0
   18.7006   14.3191  111.1742 C   0  0  0  0  0  0
   17.5169   12.3634  112.7319 C   0  0  0  0  0  0
   17.1186   12.4772  111.3990 C   0  0  0  0  0  0
   19.0961   14.2090  112.5131 C   0  0  0  0  0  0
   19.1181   15.1720  110.1725 N   0  0  0  0  0  0
   17.5376   13.8867  109.2340 C   0  0  0  0  0  0
   18.4478   14.9016  109.0060 C   0  0  0  0  0  0
   18.6523   15.6207  107.6660 C   0  0  1  0  0  0
   16.6317   13.4034  108.1214 C   0  0  0  0  0  0
   20.0526   15.4191  107.0689 C   0  0  0  0  0  0
   20.7566   14.2244  107.2524 C   0  0  0  0  0  0
   21.9488   13.9822  106.5696 C   0  0  0  0  0  0
   22.4899   14.9748  105.7569 C   0  0  0  0  0  0
   21.8280   16.1953  105.6230 C   0  0  0  0  0  0
   20.6323   16.4248  106.2934 C   0  0  0  0  0  0
   16.3425   14.6194  107.1911 C   0  0  1  0  0  0
   17.5917   15.1868  106.7008 N   0  0  0  0  0  0
   17.4754   15.5360  105.3984 C   0  0  0  0  0  0
   16.3898   14.8686  104.9338 N   0  0  0  0  0  0
   15.6609   14.2660  105.8934 C   0  0  0  0  0  0
   14.6596   13.5581  105.7701 O   0  0  0  0  0  0
   16.1820   14.5895  103.5015 C   0  0  0  0  0  0
   15.3550   15.6526  102.7389 C   0  0  0  0  0  0
   16.0353   17.0316  102.5927 C   0  0  0  0  0  0
   15.2927   17.9824  101.6449 C   0  0  0  0  0  0
   15.7461   15.3736  107.7086 H   0  0  0  0  0  0
   22.3180   17.1620  104.7983 O   0  0  0  0  0  0
   18.1441   16.3615  104.7734 O   0  0  0  0  0  0
   18.7486   13.0961  114.3156 H   0  0  0  0  0  0
   17.0628   11.6062  113.3556 H   0  0  0  0  0  0
   16.3684   11.8118  110.9942 H   0  0  0  0  0  0
   19.8463   14.8540  112.9469 H   0  0  0  0  0  0
   19.8182   15.8969  110.2349 H   0  0  0  0  0  0
   18.4732   16.6877  107.8151 H   0  0  0  0  0  0
   15.6923   13.0151  108.5194 H   0  0  0  0  0  0
   17.0976   12.5785  107.5756 H   0  0  0  0  0  0
   20.3501   13.4552  107.8874 H   0  0  0  0  0  0
   22.4528   13.0340  106.6813 H   0  0  0  0  0  0
   23.4127   14.7904  105.2283 H   0  0  0  0  0  0
   20.1187   17.3657  106.1517 H   0  0  0  0  0  0
   15.7159   13.6107  103.3810 H   0  0  0  0  0  0
   17.1610   14.4928  103.0295 H   0  0  0  0  0  0
   14.3716   15.7612  103.2030 H   0  0  0  0  0  0
   15.1637   15.2617  101.7378 H   0  0  0  0  0  0
   17.0585   16.9020  102.2345 H   0  0  0  0  0  0
   16.1092   17.5156  103.5685 H   0  0  0  0  0  0
   15.8090   18.9434  101.5796 H   0  0  0  0  0  0
   14.2769   18.1803  101.9946 H   0  0  0  0  0  0
   15.2293   17.5730  100.6349 H   0  0  0  0  0  0
   23.0789   16.8645  104.2954 H   0  0  0  0  0  0
  1  3  1  0  0  0
  1  5  2  0  0  0
  1  8  1  0  0  0
  2  4  2  0  0  0
  2  6  1  0  0  0
  2 31  1  0  0  0
  3  7  1  0  0  0
  3  6  2  0  0  0
  4  5  1  0  0  0
  4 32  1  0  0  0
  5 33  1  0  0  0
  6 34  1  0  0  0
  7  9  1  0  0  0
  7 35  1  0  0  0
  8  9  2  0  0  0
  8 11  1  0  0  0
  9 10  1  0  0  0
 10 19  1  0  0  0
 10 12  1  0  0  0
 10 36  1  0  0  0
 11 18  1  0  0  0
 11 37  1  0  0  0
 11 38  1  0  0  0
 12 13  2  0  0  0
 12 17  1  0  0  0
 13 14  1  0  0  0
 13 39  1  0  0  0
 14 15  2  0  0  0
 14 40  1  0  0  0
 15 16  1  0  0  0
 15 41  1  0  0  0
 16 17  2  0  0  0
 16 29  1  0  0  0
 17 42  1  0  0  0
 18 19  1  0  0  0
 18 22  1  0  0  0
 18 28  1  0  0  0
 19 20  1  0  0  0
 20 21  1  0  0  0
 20 30  2  0  0  0
 21 22  1  0  0  0
 21 24  1  0  0  0
 22 23  2  0  0  0
 24 25  1  0  0  0
 24 43  1  0  0  0
 24 44  1  0  0  0
 25 26  1  0  0  0
 25 45  1  0  0  0
 25 46  1  0  0  0
 26 27  1  0  0  0
 26 47  1  0  0  0
 26 48  1  0  0  0
 27 49  1  0  0  0
 27 50  1  0  0  0
 27 51  1  0  0  0
 29 52  1  0  0  0
M  END
> <s_m_entry_id>
412

> <s_m_entry_name>
dock_pv.411

> <s_m_Source_Path>
/home/csk/Desktop/cluster/DUD-E-result/kif11

> <s_m_Source_File>
dock_pv.maegz

> <i_m_Source_File_Index>
411

> <chembl_id>
CHEMBL4089675

> <chembl_pref_name>
None

> <i_lp_mmshare_version>
53161

> <i_f3d_flags>
0

> <r_lp_tautomer_probability>
0.999999999997365

> <s_lp_Force_Field>
OPLS_2005

> <r_lp_Energy>
30.439799

> <b_lp_Chiralities_Consistent>
1

> <s_lp_Variant>
CHEMBL4581_lig737-1

> <s_i_glide_gridfile>
glide-grid_3cjo

> <i_i_glide_lignum>
1084

> <i_i_glide_rotatable_bonds>
5

> <r_i_docking_score>
-7.36583133853583

> <r_i_glide_ligand_efficiency>
-0.253994184087442

> <r_i_glide_ligand_efficiency_sa>
-0.780350604522307

> <r_i_glide_ligand_efficiency_ln>
-1.6865885951579

> <r_i_glide_gscore>
-7.36583133853583

> <r_i_glide_lipo>
-4.37232997704437

> <r_i_glide_hbond>
0

> <r_i_glide_metal>
0

> <r_i_glide_rewards>
-0.823406923218861

> <r_i_glide_evdw>
-47.1048393249512

> <r_i_glide_ecoul>
-1.08658671379089

> <r_i_glide_erotb>
0.385596661761266

> <r_i_glide_esite>
-0.0374611267176698

> <r_i_glide_emodel>
-66.5034941613597

> <r_i_glide_energy>
-48.1914260387421

> <r_i_glide_einternal>
2.13771271705627

> <i_i_glide_confnum>
5

> <i_i_glide_posenum>
139

> <r_i_glide_eff_state_penalty>
0

> <s_user_duplicate_titles>
CHEMBL4581_lig737

> <s_m_subgroup_title>
dock_pv

> <s_m_subgroupid>
dock_pv

> <b_m_subgroup_collapsed>
1

$$$$
CHEMBL4581_lig613
                    3D
 Schrodinger Suite 2021-1.
 46 48  0  0  1  0            999 V2000
   20.5748   15.2911  106.7681 C   0  0  0  0  0  0
   19.4550   15.4153  107.5888 C   0  0  0  0  0  0
   19.2579   14.5041  108.6442 C   0  0  0  0  0  0
   20.2732   13.5616  108.8814 C   0  0  0  0  0  0
   21.3781   13.5208  108.0298 C   0  0  0  0  0  0
   21.5181   14.3395  106.9585 N   0  0  0  0  0  0
   17.9213   14.4682  109.4430 C   0  0  0  0  0  0
   18.1026   13.9106  110.8936 C   0  0  0  0  0  0
   18.9913   14.5603  111.7662 C   0  0  0  0  0  0
   19.1244   14.1577  113.0919 C   0  0  0  0  0  0
   18.3860   13.0797  113.5638 C   0  0  0  0  0  0
   17.5227   12.3981  112.7152 C   0  0  0  0  0  0
   17.3809   12.8085  111.3923 C   0  0  0  0  0  0
   17.2474   15.8641  109.6311 C   0  0  0  0  0  0
   15.8493   15.9938  109.6862 C   0  0  0  0  0  0
   15.2544   17.2347  109.8965 C   0  0  0  0  0  0
   16.0508   18.3639  110.0669 C   0  0  0  0  0  0
   17.4371   18.2613  110.0233 C   0  0  0  0  0  0
   18.0291   17.0218  109.8025 C   0  0  0  0  0  0
   16.8492   13.3332  108.4311 S   0  0  0  0  0  0
   16.8245   14.0044  106.7318 C   0  0  0  0  0  0
   15.7403   13.3475  105.8524 C   0  0  1  0  0  0
   14.3176   13.7724  106.2840 C   0  0  0  0  0  0
   13.8454   14.8897  106.0726 O   0  0  0  0  0  0
   13.6873   12.7619  106.9458 O   0  0  0  0  0  0
   15.9188   13.6850  104.4278 N   0  0  0  0  0  0
   20.7201   15.9472  105.9230 H   0  0  0  0  0  0
   18.7163   16.1657  107.3520 H   0  0  0  0  0  0
   20.1805   12.8305  109.6717 H   0  0  0  0  0  0
   22.1545   12.7819  108.1669 H   0  0  0  0  0  0
   19.5723   15.4030  111.4246 H   0  0  0  0  0  0
   19.7993   14.6788  113.7529 H   0  0  0  0  0  0
   18.4886   12.7619  114.5919 H   0  0  0  0  0  0
   16.9450   11.5648  113.0855 H   0  0  0  0  0  0
   16.6805   12.2557  110.7864 H   0  0  0  0  0  0
   15.2068   15.1319  109.5835 H   0  0  0  0  0  0
   14.1781   17.3197  109.9365 H   0  0  0  0  0  0
   15.5919   19.3266  110.2423 H   0  0  0  0  0  0
   18.0530   19.1366  110.1695 H   0  0  0  0  0  0
   19.1085   16.9705  109.7921 H   0  0  0  0  0  0
   16.6986   15.0878  106.7630 H   0  0  0  0  0  0
   17.7990   13.8036  106.2852 H   0  0  0  0  0  0
   15.8415   12.2656  105.9594 H   0  0  0  0  0  0
   14.2395   11.9778  107.0229 H   0  0  0  0  0  0
   16.8833   13.5078  104.1572 H   0  0  0  0  0  0
   15.3391   13.1082  103.8376 H   0  0  0  0  0  0
  1  2  1  0  0  0
  1  6  2  0  0  0
  1 27  1  0  0  0
  2  3  2  0  0  0
  2 28  1  0  0  0
  3  4  1  0  0  0
  3  7  1  0  0  0
  4  5  2  0  0  0
  4 29  1  0  0  0
  5  6  1  0  0  0
  5 30  1  0  0  0
  7  8  1  0  0  0
  7 14  1  0  0  0
  7 20  1  0  0  0
  8  9  1  0  0  0
  8 13  2  0  0  0
  9 10  2  0  0  0
  9 31  1  0  0  0
 10 11  1  0  0  0
 10 32  1  0  0  0
 11 12  2  0  0  0
 11 33  1  0  0  0
 12 13  1  0  0  0
 12 34  1  0  0  0
 13 35  1  0  0  0
 14 15  1  0  0  0
 14 19  2  0  0  0
 15 16  2  0  0  0
 15 36  1  0  0  0
 16 17  1  0  0  0
 16 37  1  0  0  0
 17 18  2  0  0  0
 17 38  1  0  0  0
 18 19  1  0  0  0
 18 39  1  0  0  0
 19 40  1  0  0  0
 20 21  1  0  0  0
 21 22  1  0  0  0
 21 41  1  0  0  0
 21 42  1  0  0  0
 22 23  1  0  0  0
 22 26  1  0  0  0
 22 43  1  0  0  0
 23 24  2  0  0  0
 23 25  1  0  0  0
 25 44  1  0  0  0
 26 45  1  0  0  0
 26 46  1  0  0  0
M  END
> <s_m_entry_id>
413

> <s_m_entry_name>
dock_pv.412

> <s_m_Source_Path>
/home/csk/Desktop/cluster/DUD-E-result/kif11

> <s_m_Source_File>
dock_pv.maegz

> <i_m_Source_File_Index>
412

> <chembl_id>
CHEMBL2043420

> <chembl_pref_name>
None

> <i_lp_mmshare_version>
53161

> <i_f3d_flags>
0

> <r_lp_tautomer_probability>
1

> <s_lp_Force_Field>
OPLS_2005

> <r_lp_Energy>
20.061816

> <b_lp_Chiralities_Consistent>
1

> <s_lp_Variant>
CHEMBL4581_lig613-1

> <s_i_glide_gridfile>
glide-grid_3cjo

> <i_i_glide_lignum>
944

> <i_i_glide_rotatable_bonds>
8

> <r_i_docking_score>
-7.36056299340864

> <r_i_glide_ligand_efficiency>
-0.283098576669563

> <r_i_glide_ligand_efficiency_sa>
-0.838678419444472

> <r_i_glide_ligand_efficiency_ln>
-1.72860406702491

> <r_i_glide_gscore>
-7.36056299340864

> <r_i_glide_lipo>
-4.37928677620543

> <r_i_glide_hbond>
-0.0747136219470468

> <r_i_glide_metal>
0

> <r_i_glide_rewards>
-1.04079143939394

> <r_i_glide_evdw>
-42.9104156494141

> <r_i_glide_ecoul>
-4.85635280609131

> <r_i_glide_erotb>
1.0131233394852

> <r_i_glide_esite>
-0.00492079196303709

> <r_i_glide_emodel>
-66.2747047630601

> <r_i_glide_energy>
-47.7667684555054

> <r_i_glide_einternal>
6.72400903701782

> <i_i_glide_confnum>
4

> <i_i_glide_posenum>
304

> <r_i_glide_eff_state_penalty>
0

> <s_user_duplicate_titles>
CHEMBL4581_lig613

> <s_m_subgroup_title>
dock_pv

> <s_m_subgroupid>
dock_pv

> <b_m_subgroup_collapsed>
1

$$$$
CHEMBL4581_lig43
                    3D
 Schrodinger Suite 2021-1.
 61 63  0  0  1  0            999 V2000
   22.7003   15.3774  105.2955 C   0  0  0  0  0  0
   21.6556   16.2889  105.3594 C   0  0  0  0  0  0
   20.5887   16.0576  106.2213 C   0  0  0  0  0  0
   20.5455   14.9176  107.0419 C   0  0  0  0  0  0
   21.6119   13.9985  106.9588 C   0  0  0  0  0  0
   22.6812   14.2395  106.0930 C   0  0  0  0  0  0
   19.4047   14.7650  107.9818 C   0  0  0  0  0  0
   18.4688   15.9000  108.3241 C   0  0  0  0  0  0
   17.4547   15.3063  109.1813 N   0  0  0  0  0  0
   17.8236   13.9300  109.5142 C   0  0  1  0  0  0
   19.0411   13.6605  108.6570 C   0  0  0  0  0  0
   18.0511   13.6524  111.0013 C   0  0  0  0  0  0
   17.3474   12.6123  111.6141 C   0  0  0  0  0  0
   17.5181   12.3628  112.9720 C   0  0  0  0  0  0
   18.4026   13.1417  113.7137 C   0  0  0  0  0  0
   19.1162   14.1748  113.1087 C   0  0  0  0  0  0
   18.9342   14.4357  111.7526 C   0  0  0  0  0  0
   16.2810   15.8850  109.5342 C   0  0  0  0  0  0
   15.5181   15.3684  110.3482 O   0  0  0  0  0  0
   21.6780   12.9126  107.7591 F   0  0  0  0  0  0
   21.6700   17.3906  104.5784 F   0  0  0  0  0  0
   15.8111   17.1697  108.7686 C   0  0  2  0  0  0
   14.7536   18.1108  109.4680 C   0  0  0  0  0  0
   15.5813   16.9793  107.3091 N   0  0  0  0  0  0
   14.8943   15.8842  106.7639 C   0  0  0  0  0  0
   14.2666   15.0407  107.4015 O   0  0  0  0  0  0
   14.9227   15.8436  105.3963 O   0  0  0  0  0  0
   15.8518   16.5418  104.5605 C   0  0  0  0  0  0
   17.2018   15.8037  104.4561 C   0  0  0  0  0  0
   17.1180   14.7621  103.5038 O   0  0  0  0  0  0
   14.6907   19.4598  108.7006 C   0  0  0  0  0  0
   15.1196   18.4508  110.9377 C   0  0  0  0  0  0
   13.3280   17.5007  109.4173 C   0  0  0  0  0  0
   23.5181   15.5517  104.6172 H   0  0  0  0  0  0
   19.8067   16.8005  106.2488 H   0  0  0  0  0  0
   23.5170   13.5620  106.0477 H   0  0  0  0  0  0
   18.0239   16.3384  107.4349 H   0  0  0  0  0  0
   18.9883   16.7073  108.8415 H   0  0  0  0  0  0
   17.0111   13.2832  109.1779 H   0  0  0  0  0  0
   19.4942   12.6842  108.6173 H   0  0  0  0  0  0
   16.6564   12.0055  111.0454 H   0  0  0  0  0  0
   16.9600   11.5699  113.4469 H   0  0  0  0  0  0
   18.5392   12.9382  114.7655 H   0  0  0  0  0  0
   19.8046   14.7700  113.6891 H   0  0  0  0  0  0
   19.4794   15.2414  111.2829 H   0  0  0  0  0  0
   16.7176   17.7754  108.8017 H   0  0  0  0  0  0
   15.9751   17.6613  106.6809 H   0  0  0  0  0  0
   15.9956   17.5602  104.9122 H   0  0  0  0  0  0
   15.4151   16.6433  103.5669 H   0  0  0  0  0  0
   17.5081   15.3917  105.4175 H   0  0  0  0  0  0
   17.9837   16.4940  104.1396 H   0  0  0  0  0  0
   17.7273   14.0473  103.7591 H   0  0  0  0  0  0
   14.3387   19.3376  107.6771 H   0  0  0  0  0  0
   14.0034   20.1590  109.1794 H   0  0  0  0  0  0
   15.6654   19.9495  108.6628 H   0  0  0  0  0  0
   15.1353   17.5733  111.5831 H   0  0  0  0  0  0
   16.0960   18.9330  111.0120 H   0  0  0  0  0  0
   14.3951   19.1351  111.3802 H   0  0  0  0  0  0
   13.3017   16.4703  109.7683 H   0  0  0  0  0  0
   12.6266   18.0703  110.0273 H   0  0  0  0  0  0
   12.9237   17.4980  108.4053 H   0  0  0  0  0  0
  1  2  2  0  0  0
  1  6  1  0  0  0
  1 34  1  0  0  0
  2 21  1  0  0  0
  2  3  1  0  0  0
  3  4  2  0  0  0
  3 35  1  0  0  0
  4  5  1  0  0  0
  4  7  1  0  0  0
  5 20  1  0  0  0
  5  6  2  0  0  0
  6 36  1  0  0  0
  7 11  2  0  0  0
  7  8  1  0  0  0
  8  9  1  0  0  0
  8 37  1  0  0  0
  8 38  1  0  0  0
  9 18  1  0  0  0
  9 10  1  0  0  0
 10 12  1  0  0  0
 10 11  1  0  0  0
 10 39  1  0  0  0
 11 40  1  0  0  0
 12 13  2  0  0  0
 12 17  1  0  0  0
 13 14  1  0  0  0
 13 41  1  0  0  0
 14 15  2  0  0  0
 14 42  1  0  0  0
 15 16  1  0  0  0
 15 43  1  0  0  0
 16 17  2  0  0  0
 16 44  1  0  0  0
 17 45  1  0  0  0
 18 19  2  0  0  0
 18 22  1  0  0  0
 22 23  1  0  0  0
 22 24  1  0  0  0
 22 46  1  0  0  0
 23 31  1  0  0  0
 23 32  1  0  0  0
 23 33  1  0  0  0
 24 25  1  0  0  0
 24 47  1  0  0  0
 25 26  2  0  0  0
 25 27  1  0  0  0
 27 28  1  0  0  0
 28 29  1  0  0  0
 28 48  1  0  0  0
 28 49  1  0  0  0
 29 30  1  0  0  0
 29 50  1  0  0  0
 29 51  1  0  0  0
 30 52  1  0  0  0
 31 53  1  0  0  0
 31 54  1  0  0  0
 31 55  1  0  0  0
 32 56  1  0  0  0
 32 57  1  0  0  0
 32 58  1  0  0  0
 33 59  1  0  0  0
 33 60  1  0  0  0
 33 61  1  0  0  0
M  END
> <s_m_entry_id>
414

> <s_m_entry_name>
dock_pv.413

> <s_m_Source_Path>
/home/csk/Desktop/cluster/DUD-E-result/kif11

> <s_m_Source_File>
dock_pv.maegz

> <i_m_Source_File_Index>
413

> <chembl_id>
CHEMBL202788

> <chembl_pref_name>
None

> <i_lp_mmshare_version>
53161

> <i_f3d_flags>
0

> <r_lp_tautomer_probability>
1

> <s_lp_Force_Field>
OPLS_2005

> <r_lp_Energy>
31.276377

> <b_lp_Chiralities_Consistent>
1

> <s_lp_Variant>
CHEMBL4581_lig43-1

> <s_i_glide_gridfile>
glide-grid_3cjo

> <i_i_glide_lignum>
69

> <i_i_glide_rotatable_bonds>
11

> <r_i_docking_score>
-7.35878029346173

> <r_i_glide_ligand_efficiency>
-0.222993342226113

> <r_i_glide_ligand_efficiency_sa>
-0.715258799717129

> <r_i_glide_ligand_efficiency_ln>
-1.63655463554069

> <r_i_glide_gscore>
-7.35878029346173

> <r_i_glide_lipo>
-4.58135438936494

> <r_i_glide_hbond>
0

> <r_i_glide_metal>
0

> <r_i_glide_rewards>
-0.605977994768525

> <r_i_glide_evdw>
-43.069164276123

> <r_i_glide_ecoul>
-5.86055278778076

> <r_i_glide_erotb>
0.861093222645006

> <r_i_glide_esite>
0

> <r_i_glide_emodel>
-62.4875005343998

> <r_i_glide_energy>
-48.9297170639038

> <r_i_glide_einternal>
12.0627517700195

> <i_i_glide_confnum>
169

> <i_i_glide_posenum>
227

> <r_i_glide_eff_state_penalty>
0

> <s_user_duplicate_titles>
CHEMBL4581_lig43,343453

> <s_m_subgroup_title>
dock_pv

> <s_m_subgroupid>
dock_pv

> <b_m_subgroup_collapsed>
1

$$$$
CHEMBL4581_lig326
                    3D
 Schrodinger Suite 2021-1.
 43 46  0  0  1  0            999 V2000
   21.0790   15.2792  106.2576 C   0  0  0  0  0  0
   21.6300   14.0958  106.7356 C   0  0  0  0  0  0
   21.1869   13.5620  107.9408 C   0  0  0  0  0  0
   20.0121   15.8604  106.9641 C   0  0  0  0  0  0
   19.5403   15.3319  108.1583 C   0  0  0  0  0  0
   20.1603   14.1751  108.6542 C   0  0  0  0  0  0
   19.7096   13.5610  109.8286 N   0  0  0  0  0  0
   18.3978   13.9273  110.3539 C   0  0  2  0  0  0
   18.3621   15.9819  108.8638 C   0  0  2  0  0  0
   18.2410   15.4769  110.3201 C   0  0  1  0  0  0
   16.9220   16.0216  110.9180 C   0  0  0  0  0  0
   15.7137   15.7531  110.0056 C   0  0  0  0  0  0
   15.9979   16.2303  108.5718 C   0  0  0  0  0  0
   17.2026   15.6326  108.1040 O   0  0  0  0  0  0
   18.1638   13.3263  111.7304 C   0  0  0  0  0  0
   17.1192   12.4226  111.9159 C   0  0  0  0  0  0
   16.8222   11.9626  113.1946 C   0  0  0  0  0  0
   17.6062   12.3620  114.2668 C   0  0  0  0  0  0
   18.7182   13.1636  114.0686 C   0  0  0  0  0  0
   18.9781   13.6853  112.8080 C   0  0  0  0  0  0
   21.6439   15.8262  105.1241 O   0  0  0  0  0  0
   21.2420   17.1386  104.7639 C   0  0  0  0  0  0
   21.5180   17.9614  105.7592 F   0  0  0  0  0  0
   21.9155   17.5452  103.7005 F   0  0  0  0  0  0
   19.9439   17.1638  104.4627 F   0  0  0  0  0  0
   18.4946   17.0671  108.8648 H   0  0  0  0  0  0
   19.0624   15.9228  110.8854 H   0  0  0  0  0  0
   22.4320   13.6161  106.1936 H   0  0  0  0  0  0
   21.6417   12.6545  108.3045 H   0  0  0  0  0  0
   19.5287   16.7651  106.6335 H   0  0  0  0  0  0
   19.9557   12.5975  110.0058 H   0  0  0  0  0  0
   17.6539   13.4866  109.6858 H   0  0  0  0  0  0
   17.0163   17.0974  111.0784 H   0  0  0  0  0  0
   16.7456   15.5917  111.8991 H   0  0  0  0  0  0
   14.8273   16.2535  110.3968 H   0  0  0  0  0  0
   15.4893   14.6855  109.9949 H   0  0  0  0  0  0
   16.0707   17.3188  108.5257 H   0  0  0  0  0  0
   15.1816   15.9426  107.9087 H   0  0  0  0  0  0
   16.4965   12.1163  111.0869 H   0  0  0  0  0  0
   15.9848   11.2979  113.3591 H   0  0  0  0  0  0
   17.3854   11.9952  115.2592 H   0  0  0  0  0  0
   19.3537   13.4050  114.9024 H   0  0  0  0  0  0
   19.8115   14.3577  112.6646 H   0  0  0  0  0  0
  1  2  2  0  0  0
  1 21  1  0  0  0
  1  4  1  0  0  0
  2  3  1  0  0  0
  2 28  1  0  0  0
  3  6  2  0  0  0
  3 29  1  0  0  0
  4  5  2  0  0  0
  4 30  1  0  0  0
  5  9  1  0  0  0
  5  6  1  0  0  0
  6  7  1  0  0  0
  7  8  1  0  0  0
  7 31  1  0  0  0
  8 10  1  0  0  0
  8 15  1  0  0  0
  8 32  1  0  0  0
  9 10  1  0  0  0
  9 26  1  0  0  0
  9 14  1  0  0  0
 10 11  1  0  0  0
 10 27  1  0  0  0
 11 12  1  0  0  0
 11 33  1  0  0  0
 11 34  1  0  0  0
 12 13  1  0  0  0
 12 35  1  0  0  0
 12 36  1  0  0  0
 13 14  1  0  0  0
 13 37  1  0  0  0
 13 38  1  0  0  0
 15 16  2  0  0  0
 15 20  1  0  0  0
 16 17  1  0  0  0
 16 39  1  0  0  0
 17 18  2  0  0  0
 17 40  1  0  0  0
 18 19  1  0  0  0
 18 41  1  0  0  0
 19 20  2  0  0  0
 19 42  1  0  0  0
 20 43  1  0  0  0
 21 22  1  0  0  0
 22 23  1  0  0  0
 22 24  1  0  0  0
 22 25  1  0  0  0
M  END
> <s_m_entry_id>
416

> <s_m_entry_name>
dock_pv.415

> <s_m_Source_Path>
/home/csk/Desktop/cluster/DUD-E-result/kif11

> <s_m_Source_File>
dock_pv.maegz

> <i_m_Source_File_Index>
415

> <chembl_id>
CHEMBL1083829

> <chembl_pref_name>
None

> <i_lp_mmshare_version>
53161

> <i_f3d_flags>
0

> <r_lp_tautomer_probability>
1

> <s_lp_Force_Field>
OPLS_2005

> <r_lp_Energy>
25.036697

> <b_lp_Chiralities_Consistent>
1

> <s_lp_Variant>
CHEMBL4581_lig326-1

> <s_i_glide_gridfile>
glide-grid_3cjo

> <i_i_glide_lignum>
479

> <i_i_glide_rotatable_bonds>
3

> <r_i_docking_score>
-7.35432152423614

> <r_i_glide_ligand_efficiency>
-0.294172860969446

> <r_i_glide_ligand_efficiency_sa>
-0.860166662652563

> <r_i_glide_ligand_efficiency_ln>
-1.74319459247557

> <r_i_glide_gscore>
-7.35432152423614

> <r_i_glide_lipo>
-4.68788808633881

> <r_i_glide_hbond>
0

> <r_i_glide_metal>
0

> <r_i_glide_rewards>
-1.49969080734293

> <r_i_glide_evdw>
-27.8227157592773

> <r_i_glide_ecoul>
-0.585017025470734

> <r_i_glide_erotb>
0.312145711230075

> <r_i_glide_esite>
0

> <r_i_glide_emodel>
-39.0881327300833

> <r_i_glide_energy>
-28.4077327847481

> <r_i_glide_einternal>
5.46981716156006

> <i_i_glide_confnum>
3

> <i_i_glide_posenum>
180

> <r_i_glide_eff_state_penalty>
0

> <s_user_duplicate_titles>
CHEMBL4581_lig326

> <s_m_subgroup_title>
dock_pv

> <s_m_subgroupid>
dock_pv

> <b_m_subgroup_collapsed>
1

$$$$
CHEMBL4581_lig168
                    3D
 Schrodinger Suite 2021-1.
 30 31  0  0  1  0            999 V2000
   17.7186   13.4326  111.6753 C   0  0  0  0  0  0
   17.5179   12.7621  110.4723 C   0  0  0  0  0  0
   18.0816   13.2532  109.3003 C   0  0  0  0  0  0
   18.8288   14.4322  109.3261 C   0  0  0  0  0  0
   18.9423   15.1585  110.5121 C   0  0  0  0  0  0
   18.3884   14.6640  111.6834 C   0  0  0  0  0  0
   19.5714   14.8809  108.1357 C   0  0  0  0  0  0
   20.6354   14.1103  107.6635 C   0  0  0  0  0  0
   21.4178   14.5676  106.6114 C   0  0  0  0  0  0
   21.1765   15.8344  106.0754 C   0  0  0  0  0  0
   20.0814   16.5805  106.5062 C   0  0  0  0  0  0
   19.2753   16.1034  107.5319 C   0  0  0  0  0  0
   22.1377   16.4234  105.0619 C   0  0  0  0  0  0
   23.0714   17.1165  105.7160 F   0  0  0  0  0  0
   22.7197   15.4439  104.3810 F   0  0  0  0  0  0
   21.5211   17.2320  104.1999 F   0  0  0  0  0  0
   17.2236   12.8377  112.8135 O   0  0  0  0  0  0
   17.9274   12.8164  113.9651 C   0  0  0  0  0  0
   17.1181   12.3620  114.9589 N   0  0  0  0  0  0
   19.0972   13.1571  114.1323 O   0  0  0  0  0  0
   16.9773   11.8271  110.4534 H   0  0  0  0  0  0
   17.9730   12.6923  108.3826 H   0  0  0  0  0  0
   19.5112   16.0766  110.5414 H   0  0  0  0  0  0
   18.5250   15.2124  112.6033 H   0  0  0  0  0  0
   20.8718   13.1655  108.1322 H   0  0  0  0  0  0
   22.2542   13.9699  106.2766 H   0  0  0  0  0  0
   19.8968   17.5604  106.0901 H   0  0  0  0  0  0
   18.4592   16.7113  107.8958 H   0  0  0  0  0  0
   17.5376   12.2496  115.8760 H   0  0  0  0  0  0
   16.1890   12.0417  114.7366 H   0  0  0  0  0  0
  1  6  1  0  0  0
  1  2  2  0  0  0
  1 17  1  0  0  0
  2  3  1  0  0  0
  2 21  1  0  0  0
  3  4  2  0  0  0
  3 22  1  0  0  0
  4  7  1  0  0  0
  4  5  1  0  0  0
  5  6  2  0  0  0
  5 23  1  0  0  0
  6 24  1  0  0  0
  7 12  1  0  0  0
  7  8  2  0  0  0
  8  9  1  0  0  0
  8 25  1  0  0  0
  9 10  2  0  0  0
  9 26  1  0  0  0
 10 11  1  0  0  0
 10 13  1  0  0  0
 11 12  2  0  0  0
 11 27  1  0  0  0
 12 28  1  0  0  0
 13 14  1  0  0  0
 13 15  1  0  0  0
 13 16  1  0  0  0
 17 18  1  0  0  0
 18 19  1  0  0  0
 18 20  2  0  0  0
 19 29  1  0  0  0
 19 30  1  0  0  0
M  END
> <s_m_entry_id>
417

> <s_m_entry_name>
dock_pv.416

> <s_m_Source_Path>
/home/csk/Desktop/cluster/DUD-E-result/kif11

> <s_m_Source_File>
dock_pv.maegz

> <i_m_Source_File_Index>
416

> <chembl_id>
CHEMBL394512

> <chembl_pref_name>
None

> <i_lp_mmshare_version>
53161

> <i_f3d_flags>
0

> <r_lp_tautomer_probability>
1

> <s_lp_Force_Field>
OPLS_2005

> <r_lp_Energy>
15.212004

> <b_lp_Chiralities_Consistent>
1

> <s_lp_Variant>
CHEMBL4581_lig168-1

> <s_i_glide_gridfile>
glide-grid_3cjo

> <i_i_glide_lignum>
264

> <i_i_glide_rotatable_bonds>
4

> <r_i_docking_score>
-7.35346689511326

> <r_i_glide_ligand_efficiency>
-0.367673344755663

> <r_i_glide_ligand_efficiency_sa>
-0.998019003160544

> <r_i_glide_ligand_efficiency_ln>
-1.8403302302766

> <r_i_glide_gscore>
-7.35346689511326

> <r_i_glide_lipo>
-3.06380034551253

> <r_i_glide_hbond>
-0.32

> <r_i_glide_metal>
0

> <r_i_glide_rewards>
-2.55185108030393

> <r_i_glide_evdw>
-29.6248321533203

> <r_i_glide_ecoul>
-2.62404608726501

> <r_i_glide_erotb>
0.457033051458973

> <r_i_glide_esite>
0

> <r_i_glide_emodel>
-44.1475524864102

> <r_i_glide_energy>
-32.2488782405853

> <r_i_glide_einternal>
2.98859715461731

> <i_i_glide_confnum>
12

> <i_i_glide_posenum>
327

> <r_i_glide_eff_state_penalty>
0

> <s_user_duplicate_titles>
CHEMBL4581_lig168,389200

> <s_m_subgroup_title>
dock_pv

> <s_m_subgroupid>
dock_pv

> <b_m_subgroup_collapsed>
1

$$$$
CHEMBL4581_lig403
                    3D
 Schrodinger Suite 2021-1.
 48 51  0  0  1  0            999 V2000
   22.0632   15.4323  105.6832 C   0  0  0  0  0  0
   22.5646   14.2247  106.1588 C   0  0  0  0  0  0
   21.9179   13.4996  107.1635 C   0  0  0  0  0  0
   20.8679   15.9545  106.1721 C   0  0  0  0  0  0
   20.1689   15.2446  107.1621 C   0  0  0  0  0  0
   20.7182   14.0231  107.6622 C   0  0  0  0  0  0
   19.8443   13.5673  108.6331 N   0  0  0  0  0  0
   18.9334   15.4651  107.8508 C   0  0  0  0  0  0
   18.7746   14.4261  108.7459 C   0  0  0  0  0  0
   17.5628   14.2546  109.6681 C   0  0  2  0  0  0
   16.7994   15.5082  109.7521 N   0  0  1  0  0  0
   16.5899   16.1771  108.4557 C   0  0  2  0  0  0
   17.9187   16.5877  107.7508 C   0  0  0  0  0  0
   17.9331   13.7895  111.0668 C   0  0  0  0  0  0
   17.2626   12.7184  111.6655 C   0  0  0  0  0  0
   17.5507   12.3621  112.9829 C   0  0  0  0  0  0
   18.5314   13.0513  113.6961 C   0  0  0  0  0  0
   19.2155   14.1059  113.0929 C   0  0  0  0  0  0
   18.9078   14.4831  111.7906 C   0  0  0  0  0  0
   20.2124   14.7610  113.7588 O   0  0  0  0  0  0
   15.7148   17.4463  108.6486 C   0  0  0  0  0  0
   14.9075   17.7650  107.7752 O   0  0  0  0  0  0
   15.8910   18.1710  109.7712 N   0  0  0  0  0  0
   15.1968   19.4118  110.1232 C   0  0  0  0  0  0
   15.5929   20.6020  109.2273 C   0  0  0  0  0  0
   15.0882   21.8580  109.7595 N   0  0  0  0  0  0
   22.6042   15.9614  104.9122 H   0  0  0  0  0  0
   23.4842   13.8430  105.7409 H   0  0  0  0  0  0
   22.3171   12.5638  107.5187 H   0  0  0  0  0  0
   20.4792   16.8862  105.7896 H   0  0  0  0  0  0
   19.9123   12.7216  109.1812 H   0  0  0  0  0  0
   16.9060   13.4976  109.2354 H   0  0  0  0  0  0
   15.8996   15.2938  110.1586 H   0  0  0  0  0  0
   15.9903   15.5292  107.8111 H   0  0  0  0  0  0
   17.7098   16.7619  106.6949 H   0  0  0  0  0  0
   18.3350   17.5114  108.1601 H   0  0  0  0  0  0
   16.4949   12.1798  111.1277 H   0  0  0  0  0  0
   17.0043   11.5618  113.4539 H   0  0  0  0  0  0
   18.7677   12.7605  114.7084 H   0  0  0  0  0  0
   19.4182   15.3174  111.3319 H   0  0  0  0  0  0
   20.6564   15.4161  113.2169 H   0  0  0  0  0  0
   16.5714   17.8226  110.4315 H   0  0  0  0  0  0
   15.4472   19.6338  111.1630 H   0  0  0  0  0  0
   14.1166   19.2560  110.0904 H   0  0  0  0  0  0
   15.2020   20.4557  108.2194 H   0  0  0  0  0  0
   16.6750   20.6595  109.1432 H   0  0  0  0  0  0
   15.5311   22.0915  110.6434 H   0  0  0  0  0  0
   15.3217   22.6186  109.1364 H   0  0  0  0  0  0
  1  2  2  0  0  0
  1  4  1  0  0  0
  1 27  1  0  0  0
  2  3  1  0  0  0
  2 28  1  0  0  0
  3  6  2  0  0  0
  3 29  1  0  0  0
  4  5  2  0  0  0
  4 30  1  0  0  0
  5  8  1  0  0  0
  5  6  1  0  0  0
  6  7  1  0  0  0
  7  9  1  0  0  0
  7 31  1  0  0  0
  8  9  2  0  0  0
  8 13  1  0  0  0
  9 10  1  0  0  0
 10 11  1  0  0  0
 10 14  1  0  0  0
 10 32  1  0  0  0
 11 12  1  0  0  0
 11 33  1  0  0  0
 12 13  1  0  0  0
 12 21  1  0  0  0
 12 34  1  0  0  0
 13 35  1  0  0  0
 13 36  1  0  0  0
 14 15  2  0  0  0
 14 19  1  0  0  0
 15 16  1  0  0  0
 15 37  1  0  0  0
 16 17  2  0  0  0
 16 38  1  0  0  0
 17 18  1  0  0  0
 17 39  1  0  0  0
 18 19  2  0  0  0
 18 20  1  0  0  0
 19 40  1  0  0  0
 20 41  1  0  0  0
 21 22  2  0  0  0
 21 23  1  0  0  0
 23 24  1  0  0  0
 23 42  1  0  0  0
 24 25  1  0  0  0
 24 43  1  0  0  0
 24 44  1  0  0  0
 25 26  1  0  0  0
 25 45  1  0  0  0
 25 46  1  0  0  0
 26 47  1  0  0  0
 26 48  1  0  0  0
M  END
> <s_m_entry_id>
418

> <s_m_entry_name>
dock_pv.417

> <s_m_Source_Path>
/home/csk/Desktop/cluster/DUD-E-result/kif11

> <s_m_Source_File>
dock_pv.maegz

> <i_m_Source_File_Index>
417

> <chembl_id>
CHEMBL1163528

> <chembl_pref_name>
None

> <i_lp_mmshare_version>
53161

> <i_f3d_flags>
0

> <r_lp_tautomer_probability>
0.999999999997365

> <s_lp_Force_Field>
OPLS_2005

> <r_lp_Energy>
20.82172

> <b_lp_Chiralities_Consistent>
1

> <s_lp_Variant>
CHEMBL4581_lig403-1

> <s_i_glide_gridfile>
glide-grid_3cjo

> <i_i_glide_lignum>
584

> <i_i_glide_rotatable_bonds>
6

> <r_i_docking_score>
-7.3475646740329

> <r_i_glide_ligand_efficiency>
-0.282598641308958

> <r_i_glide_ligand_efficiency_sa>
-0.837197362905829

> <r_i_glide_ligand_efficiency_ln>
-1.72555145437049

> <r_i_glide_gscore>
-7.3475646740329

> <r_i_glide_lipo>
-4.58859269640519

> <r_i_glide_hbond>
-0.0224807700100481

> <r_i_glide_metal>
0

> <r_i_glide_rewards>
-1.19685382796914

> <r_i_glide_evdw>
-38.2397155761719

> <r_i_glide_ecoul>
-1.65711045265198

> <r_i_glide_erotb>
0.62091496705787

> <r_i_glide_esite>
0

> <r_i_glide_emodel>
-52.8686701624052

> <r_i_glide_energy>
-39.8968260288239

> <r_i_glide_einternal>
5.53855609893799

> <i_i_glide_confnum>
3

> <i_i_glide_posenum>
70

> <r_i_glide_eff_state_penalty>
0

> <s_user_duplicate_titles>
CHEMBL4581_lig403

> <s_m_subgroup_title>
dock_pv

> <s_m_subgroupid>
dock_pv

> <b_m_subgroup_collapsed>
1

$$$$
CHEMBL4581_lig217
                    3D
 Schrodinger Suite 2021-1.
 53 55  0  0  1  0            999 V2000
   13.2532   13.3348  105.3733 C   0  0  0  0  0  0
   14.6173   13.3594  105.0977 C   0  0  0  0  0  0
   15.5310   13.5973  106.1214 C   0  0  0  0  0  0
   15.0951   13.8133  107.4381 C   0  0  0  0  0  0
   13.7152   13.7820  107.7027 C   0  0  0  0  0  0
   12.8018   13.5497  106.6740 C   0  0  0  0  0  0
   15.0545   13.1605  103.8350 F   0  0  0  0  0  0
   13.2459   13.9625  108.9588 F   0  0  0  0  0  0
   16.0154   14.0604  108.4665 N   0  0  0  0  0  0
   16.1373   15.3972  108.8842 N   0  0  0  0  0  0
   17.2610   15.5838  109.4596 C   0  0  0  0  0  0
   18.1374   14.3139  109.5611 C   0  0  2  0  0  0
   17.3142   13.4293  108.6038 C   0  0  0  0  0  0
   17.6406   16.9038  109.9879 C   0  0  0  0  0  0
   18.7177   17.1262  110.5381 O   0  0  0  0  0  0
   16.6530   18.0635  109.8356 C   0  0  0  0  0  0
   18.1978   13.7967  111.0305 C   0  0  0  0  0  0
   19.5788   14.4241  108.9335 C   0  0  0  0  0  0
   19.7268   15.3583  107.7040 C   0  0  0  0  0  0
   20.8966   15.0073  106.7617 C   0  0  0  0  0  0
   21.5056   16.1990  106.1614 N   0  0  0  0  0  0
   19.0790   14.3814  111.9575 C   0  0  0  0  0  0
   19.1180   13.9598  113.2828 C   0  0  0  0  0  0
   18.2738   12.9418  113.7071 C   0  0  0  0  0  0
   17.3882   12.3519  112.8125 C   0  0  0  0  0  0
   17.3491   12.7741  111.4862 C   0  0  0  0  0  0
   22.6605   15.8194  105.3580 C   0  0  0  0  0  0
   20.5703   16.9709  105.3458 C   0  0  0  0  0  0
   12.5462   13.1493  104.5780 H   0  0  0  0  0  0
   16.5807   13.6167  105.8707 H   0  0  0  0  0  0
   11.7440   13.5235  106.8919 H   0  0  0  0  0  0
   17.7815   13.4682  107.6215 H   0  0  0  0  0  0
   17.2622   12.3624  108.8169 H   0  0  0  0  0  0
   16.4738   18.2728  108.7814 H   0  0  0  0  0  0
   15.7014   17.8242  110.3107 H   0  0  0  0  0  0
   17.0500   18.9655  110.3035 H   0  0  0  0  0  0
   20.3172   14.7529  109.6603 H   0  0  0  0  0  0
   19.9133   13.4190  108.6725 H   0  0  0  0  0  0
   18.8249   15.2933  107.0944 H   0  0  0  0  0  0
   19.7557   16.4032  108.0105 H   0  0  0  0  0  0
   21.6433   14.4199  107.2991 H   0  0  0  0  0  0
   20.5305   14.3596  105.9626 H   0  0  0  0  0  0
   19.7399   15.1844  111.6715 H   0  0  0  0  0  0
   19.8032   14.4218  113.9769 H   0  0  0  0  0  0
   18.3016   12.6133  114.7371 H   0  0  0  0  0  0
   16.7202   11.5693  113.1468 H   0  0  0  0  0  0
   16.6298   12.3058  110.8344 H   0  0  0  0  0  0
   23.1181   16.7215  104.9576 H   0  0  0  0  0  0
   23.4121   15.3100  105.9636 H   0  0  0  0  0  0
   22.3877   15.1685  104.5249 H   0  0  0  0  0  0
   21.0714   17.8190  104.8799 H   0  0  0  0  0  0
   20.1280   16.3627  104.5589 H   0  0  0  0  0  0
   19.7614   17.3758  105.9521 H   0  0  0  0  0  0
  1  2  2  0  0  0
  1  6  1  0  0  0
  1 29  1  0  0  0
  2  7  1  0  0  0
  2  3  1  0  0  0
  3  4  2  0  0  0
  3 30  1  0  0  0
  4  9  1  0  0  0
  4  5  1  0  0  0
  5  8  1  0  0  0
  5  6  2  0  0  0
  6 31  1  0  0  0
  9 10  1  0  0  0
  9 13  1  0  0  0
 10 11  2  0  0  0
 11 14  1  0  0  0
 11 12  1  0  0  0
 12 17  1  0  0  0
 12 18  1  0  0  0
 12 13  1  0  0  0
 13 32  1  0  0  0
 13 33  1  0  0  0
 14 15  2  0  0  0
 14 16  1  0  0  0
 16 34  1  0  0  0
 16 35  1  0  0  0
 16 36  1  0  0  0
 17 22  2  0  0  0
 17 26  1  0  0  0
 18 19  1  0  0  0
 18 37  1  0  0  0
 18 38  1  0  0  0
 19 20  1  0  0  0
 19 39  1  0  0  0
 19 40  1  0  0  0
 20 21  1  0  0  0
 20 41  1  0  0  0
 20 42  1  0  0  0
 21 27  1  0  0  0
 21 28  1  0  0  0
 22 23  1  0  0  0
 22 43  1  0  0  0
 23 24  2  0  0  0
 23 44  1  0  0  0
 24 25  1  0  0  0
 24 45  1  0  0  0
 25 26  2  0  0  0
 25 46  1  0  0  0
 26 47  1  0  0  0
 27 48  1  0  0  0
 27 49  1  0  0  0
 27 50  1  0  0  0
 28 51  1  0  0  0
 28 52  1  0  0  0
 28 53  1  0  0  0
M  END
> <s_m_entry_id>
419

> <s_m_entry_name>
dock_pv.418

> <s_m_Source_Path>
/home/csk/Desktop/cluster/DUD-E-result/kif11

> <s_m_Source_File>
dock_pv.maegz

> <i_m_Source_File_Index>
418

> <chembl_id>
CHEMBL246604

> <chembl_pref_name>
None

> <i_lp_mmshare_version>
53161

> <i_f3d_flags>
0

> <r_lp_tautomer_probability>
1

> <s_lp_Force_Field>
OPLS_2005

> <r_lp_Energy>
39.014655

> <b_lp_Chiralities_Consistent>
1

> <s_lp_Variant>
CHEMBL4581_lig217-2

> <s_i_glide_gridfile>
glide-grid_3cjo

> <i_i_glide_lignum>
327

> <i_i_glide_rotatable_bonds>
7

> <r_i_docking_score>
-7.34125472622366

> <r_i_glide_ligand_efficiency>
-0.262187668793702

> <r_i_glide_ligand_efficiency_sa>
-0.796156182736426

> <r_i_glide_ligand_efficiency_ln>
-1.69457713941735

> <r_i_glide_gscore>
-7.34125472622366

> <r_i_glide_lipo>
-3.89832245114267

> <r_i_glide_hbond>
0

> <r_i_glide_metal>
0

> <r_i_glide_rewards>
-1.53003723440176

> <r_i_glide_evdw>
-43.6899795532227

> <r_i_glide_ecoul>
-2.5537805557251

> <r_i_glide_erotb>
0.654671020340666

> <r_i_glide_esite>
0

> <r_i_glide_emodel>
-63.5920767646446

> <r_i_glide_energy>
-46.2437601089478

> <r_i_glide_einternal>
6.90475034713745

> <i_i_glide_confnum>
148

> <i_i_glide_posenum>
392

> <r_i_glide_eff_state_penalty>
0

> <s_user_duplicate_titles>
CHEMBL4581_lig217

> <s_m_subgroup_title>
dock_pv

> <s_m_subgroupid>
dock_pv

> <b_m_subgroup_collapsed>
1

$$$$
CHEMBL4581_lig82
                    3D
 Schrodinger Suite 2021-1.
 42 44  0  0  1  0            999 V2000
   19.9562   15.9566  105.9129 C   0  0  0  0  0  0
   21.0734   15.2259  106.2952 C   0  0  0  0  0  0
   20.9978   14.3675  107.3865 C   0  0  0  0  0  0
   18.7670   15.8156  106.6246 C   0  0  0  0  0  0
   18.6868   14.9821  107.7478 C   0  0  0  0  0  0
   19.8351   14.2745  108.1568 C   0  0  0  0  0  0
   19.8211   13.3746  109.3890 C   0  0  0  0  0  0
   18.5754   13.4757  110.1705 N   0  0  0  0  0  0
   17.3363   13.5545  109.3769 C   0  0  0  0  0  0
   17.3864   14.8690  108.5541 C   0  0  1  0  0  0
   17.0833   16.1045  109.4137 C   0  0  0  0  0  0
   15.7639   16.3594  109.8049 C   0  0  0  0  0  0
   15.4604   17.4792  110.5778 C   0  0  0  0  0  0
   16.4688   18.3611  110.9588 C   0  0  0  0  0  0
   17.7851   18.1226  110.5698 C   0  0  0  0  0  0
   18.0907   16.9985  109.8093 C   0  0  0  0  0  0
   18.6299   13.6791  111.5162 C   0  0  0  0  0  0
   19.5190   14.3761  112.0049 O   0  0  0  0  0  0
   17.7320   13.0391  112.3176 N   0  0  0  0  0  0
   17.6870   13.2886  113.7642 C   0  0  0  0  0  0
   16.8910   11.9152  111.9051 C   0  0  0  0  0  0
   14.1695   17.7134  110.9624 O   0  0  0  0  0  0
   22.7182   15.4076  105.3587 Br  0  0  0  0  0  0
   20.0086   16.6283  105.0680 H   0  0  0  0  0  0
   21.8708   13.7992  107.6696 H   0  0  0  0  0  0
   17.8958   16.3693  106.3135 H   0  0  0  0  0  0
   19.9124   12.3516  109.0370 H   0  0  0  0  0  0
   20.7069   13.5610  109.9975 H   0  0  0  0  0  0
   17.3143   12.6892  108.7109 H   0  0  0  0  0  0
   16.4271   13.4709  109.9732 H   0  0  0  0  0  0
   16.5735   14.8270  107.8280 H   0  0  0  0  0  0
   14.9686   15.6881  109.5134 H   0  0  0  0  0  0
   16.2406   19.2258  111.5622 H   0  0  0  0  0  0
   18.5701   18.8033  110.8717 H   0  0  0  0  0  0
   19.1177   16.8292  109.5318 H   0  0  0  0  0  0
   18.1942   14.2099  114.0454 H   0  0  0  0  0  0
   16.6654   13.3624  114.1236 H   0  0  0  0  0  0
   18.1676   12.4670  114.2971 H   0  0  0  0  0  0
   17.2957   11.3831  111.0434 H   0  0  0  0  0  0
   16.7427   11.1816  112.7026 H   0  0  0  0  0  0
   15.9172   12.3001  111.6276 H   0  0  0  0  0  0
   14.0902   18.5235  111.4705 H   0  0  0  0  0  0
  1  2  2  0  0  0
  1  4  1  0  0  0
  1 24  1  0  0  0
  2  3  1  0  0  0
  2 23  1  0  0  0
  3  6  2  0  0  0
  3 25  1  0  0  0
  4  5  2  0  0  0
  4 26  1  0  0  0
  5 10  1  0  0  0
  5  6  1  0  0  0
  6  7  1  0  0  0
  7  8  1  0  0  0
  7 27  1  0  0  0
  7 28  1  0  0  0
  8 17  1  0  0  0
  8  9  1  0  0  0
  9 10  1  0  0  0
  9 29  1  0  0  0
  9 30  1  0  0  0
 10 11  1  0  0  0
 10 31  1  0  0  0
 11 12  2  0  0  0
 11 16  1  0  0  0
 12 13  1  0  0  0
 12 32  1  0  0  0
 13 14  2  0  0  0
 13 22  1  0  0  0
 14 15  1  0  0  0
 14 33  1  0  0  0
 15 16  2  0  0  0
 15 34  1  0  0  0
 16 35  1  0  0  0
 17 18  2  0  0  0
 17 19  1  0  0  0
 19 20  1  0  0  0
 19 21  1  0  0  0
 20 36  1  0  0  0
 20 37  1  0  0  0
 20 38  1  0  0  0
 21 39  1  0  0  0
 21 40  1  0  0  0
 21 41  1  0  0  0
 22 42  1  0  0  0
M  END
> <s_m_entry_id>
420

> <s_m_entry_name>
dock_pv.419

> <s_m_Source_Path>
/home/csk/Desktop/cluster/DUD-E-result/kif11

> <s_m_Source_File>
dock_pv.maegz

> <i_m_Source_File_Index>
419

> <chembl_id>
CHEMBL438800

> <chembl_pref_name>
None

> <i_lp_mmshare_version>
53161

> <i_f3d_flags>
0

> <r_lp_tautomer_probability>
0.999999999997365

> <s_lp_Force_Field>
OPLS_2005

> <r_lp_Energy>
45.950984

> <b_lp_Chiralities_Consistent>
1

> <s_lp_Variant>
CHEMBL4581_lig82-2

> <s_i_glide_gridfile>
glide-grid_3cjo

> <i_i_glide_lignum>
130

> <i_i_glide_rotatable_bonds>
4

> <r_i_docking_score>
-7.33867831311522

> <r_i_glide_ligand_efficiency>
-0.319072970135444

> <r_i_glide_ligand_efficiency_sa>
-0.907401082982971

> <r_i_glide_ligand_efficiency_ln>
-1.77455895956715

> <r_i_glide_gscore>
-7.33867831311522

> <r_i_glide_lipo>
-3.90378255696765

> <r_i_glide_hbond>
0

> <r_i_glide_metal>
0

> <r_i_glide_rewards>
-1.38167276692947

> <r_i_glide_evdw>
-40.494312286377

> <r_i_glide_ecoul>
-2.02169704437256

> <r_i_glide_erotb>
0.274747181756639

> <r_i_glide_esite>
0

> <r_i_glide_emodel>
-59.6048922383142

> <r_i_glide_energy>
-42.5160093307495

> <r_i_glide_einternal>
2.85245513916016

> <i_i_glide_confnum>
18

> <i_i_glide_posenum>
45

> <r_i_glide_eff_state_penalty>
0

> <s_user_duplicate_titles>
CHEMBL4581_lig82,344805

> <s_m_subgroup_title>
dock_pv

> <s_m_subgroupid>
dock_pv

> <b_m_subgroup_collapsed>
1

$$$$
CHEMBL4581_lig392
                    3D
 Schrodinger Suite 2021-1.
 53 56  0  0  1  0            999 V2000
   22.1835   15.0174  105.8131 C   0  0  0  0  0  0
   22.5947   13.8640  106.4630 C   0  0  0  0  0  0
   21.8864   13.3144  107.5224 C   0  0  0  0  0  0
   20.9788   15.6374  106.1324 C   0  0  0  0  0  0
   20.1980   15.0811  107.1515 C   0  0  0  0  0  0
   20.6957   13.9538  107.8659 C   0  0  0  0  0  0
   19.7620   13.6349  108.8247 N   0  0  0  0  0  0
   18.9128   15.3709  107.6934 C   0  0  0  0  0  0
   18.6920   14.4848  108.7246 C   0  0  0  0  0  0
   17.4344   14.4503  109.5911 C   0  0  2  0  0  0
   16.6700   15.7061  109.3853 N   0  0  1  0  0  0
   16.5233   16.0263  107.9556 C   0  0  0  0  0  0
   17.8925   16.4235  107.3541 C   0  0  0  0  0  0
   17.8064   14.1445  111.0436 C   0  0  0  0  0  0
   18.8383   14.8437  111.6873 C   0  0  0  0  0  0
   19.2335   14.4883  112.9765 C   0  0  0  0  0  0
   18.5597   13.4750  113.6565 C   0  0  0  0  0  0
   17.4915   12.8293  113.0445 C   0  0  0  0  0  0
   17.1420   13.1268  111.7293 C   0  0  0  0  0  0
   16.7180   11.9620  113.7587 O   0  0  0  0  0  0
   15.3658   15.7554  110.0501 C   0  0  0  0  0  0
   23.1061   15.6085  104.7952 C   0  0  0  0  0  0
   15.3055   16.9196  111.0647 C   0  0  0  0  0  0
   15.3937   18.3728  110.5334 C   0  0  0  0  0  0
   16.7353   18.8352  109.9323 C   0  0  0  0  0  0
   17.8717   18.4711  110.7646 N   0  0  0  0  0  0
   23.5180   13.4074  106.1590 H   0  0  0  0  0  0
   22.2330   12.4335  108.0358 H   0  0  0  0  0  0
   20.6469   16.5204  105.6071 H   0  0  0  0  0  0
   19.7887   12.8793  109.4939 H   0  0  0  0  0  0
   16.8158   13.6253  109.2317 H   0  0  0  0  0  0
   15.8674   16.8882  107.8251 H   0  0  0  0  0  0
   16.0374   15.2116  107.4152 H   0  0  0  0  0  0
   18.2203   17.3813  107.7589 H   0  0  0  0  0  0
   17.7901   16.5635  106.2787 H   0  0  0  0  0  0
   19.3512   15.6443  111.1722 H   0  0  0  0  0  0
   20.0510   15.0088  113.4531 H   0  0  0  0  0  0
   18.8383   13.2033  114.6647 H   0  0  0  0  0  0
   16.3279   12.5965  111.2552 H   0  0  0  0  0  0
   16.0143   11.5593  113.2392 H   0  0  0  0  0  0
   15.1603   14.8141  110.5585 H   0  0  0  0  0  0
   14.5513   15.8665  109.3310 H   0  0  0  0  0  0
   22.6057   16.3473  104.1684 H   0  0  0  0  0  0
   23.9176   16.0748  105.3590 H   0  0  0  0  0  0
   23.5176   14.8351  104.1451 H   0  0  0  0  0  0
   16.0503   16.7618  111.8420 H   0  0  0  0  0  0
   14.3452   16.8465  111.5721 H   0  0  0  0  0  0
   15.1563   19.0445  111.3593 H   0  0  0  0  0  0
   14.6059   18.5344  109.7975 H   0  0  0  0  0  0
   16.7175   19.9123  109.7623 H   0  0  0  0  0  0
   16.8654   18.4132  108.9450 H   0  0  0  0  0  0
   18.7226   18.8423  110.3657 H   0  0  0  0  0  0
   17.7765   18.8989  111.6759 H   0  0  0  0  0  0
  1  2  2  0  0  0
  1 22  1  0  0  0
  1  4  1  0  0  0
  2  3  1  0  0  0
  2 27  1  0  0  0
  3  6  2  0  0  0
  3 28  1  0  0  0
  4  5  2  0  0  0
  4 29  1  0  0  0
  5  8  1  0  0  0
  5  6  1  0  0  0
  6  7  1  0  0  0
  7  9  1  0  0  0
  7 30  1  0  0  0
  8  9  2  0  0  0
  8 13  1  0  0  0
  9 10  1  0  0  0
 10 11  1  0  0  0
 10 14  1  0  0  0
 10 31  1  0  0  0
 11 12  1  0  0  0
 11 21  1  0  0  0
 12 13  1  0  0  0
 12 32  1  0  0  0
 12 33  1  0  0  0
 13 34  1  0  0  0
 13 35  1  0  0  0
 14 15  2  0  0  0
 14 19  1  0  0  0
 15 16  1  0  0  0
 15 36  1  0  0  0
 16 17  2  0  0  0
 16 37  1  0  0  0
 17 18  1  0  0  0
 17 38  1  0  0  0
 18 19  2  0  0  0
 18 20  1  0  0  0
 19 39  1  0  0  0
 20 40  1  0  0  0
 21 23  1  0  0  0
 21 41  1  0  0  0
 21 42  1  0  0  0
 22 43  1  0  0  0
 22 44  1  0  0  0
 22 45  1  0  0  0
 23 24  1  0  0  0
 23 46  1  0  0  0
 23 47  1  0  0  0
 24 25  1  0  0  0
 24 48  1  0  0  0
 24 49  1  0  0  0
 25 26  1  0  0  0
 25 50  1  0  0  0
 25 51  1  0  0  0
 26 52  1  0  0  0
 26 53  1  0  0  0
M  END
> <s_m_entry_id>
421

> <s_m_entry_name>
dock_pv.420

> <s_m_Source_Path>
/home/csk/Desktop/cluster/DUD-E-result/kif11

> <s_m_Source_File>
dock_pv.maegz

> <i_m_Source_File_Index>
420

> <chembl_id>
CHEMBL1163629

> <chembl_pref_name>
None

> <i_lp_mmshare_version>
53161

> <i_f3d_flags>
0

> <r_lp_tautomer_probability>
0.999999999997365

> <s_lp_Force_Field>
OPLS_2005

> <r_lp_Energy>
29.718833

> <b_lp_Chiralities_Consistent>
1

> <s_lp_Variant>
CHEMBL4581_lig392-1

> <s_i_glide_gridfile>
glide-grid_3cjo

> <i_i_glide_lignum>
560

> <i_i_glide_rotatable_bonds>
6

> <r_i_docking_score>
-7.33607960019654

> <r_i_glide_ligand_efficiency>
-0.282156907699867

> <r_i_glide_ligand_efficiency_sa>
-0.835888728827035

> <r_i_glide_ligand_efficiency_ln>
-1.72285422246562

> <r_i_glide_gscore>
-7.33607960019654

> <r_i_glide_lipo>
-4.77818823870265

> <r_i_glide_hbond>
-0.184607348548482

> <r_i_glide_metal>
0

> <r_i_glide_rewards>
-1.02634581818182

> <r_i_glide_evdw>
-34.6498069763184

> <r_i_glide_ecoul>
-1.58900547027588

> <r_i_glide_erotb>
0.623902974593709

> <r_i_glide_esite>
0

> <r_i_glide_emodel>
-50.6225160650186

> <r_i_glide_energy>
-36.2388124465942

> <r_i_glide_einternal>
2.00591087341309

> <i_i_glide_confnum>
16

> <i_i_glide_posenum>
28

> <r_i_glide_eff_state_penalty>
0

> <s_user_duplicate_titles>
CHEMBL4581_lig392

> <s_m_subgroup_title>
dock_pv

> <s_m_subgroupid>
dock_pv

> <b_m_subgroup_collapsed>
1

$$$$
CHEMBL4581_lig301
                    3D
 Schrodinger Suite 2021-1.
 50 53  0  0  1  0            999 V2000
   19.8488   13.3623  108.9590 N   0  0  0  0  0  0
   18.8885   15.1909  108.0511 C   0  0  0  0  0  0
   18.7438   14.1731  108.9645 C   0  0  0  0  0  0
   17.5214   13.9481  109.8242 C   0  0  2  0  0  0
   16.5157   14.9976  109.4909 N   0  0  0  0  0  0
   17.0340   16.3558  109.2243 C   0  0  0  0  0  0
   17.8540   16.2966  107.9097 C   0  0  0  0  0  0
   20.7155   13.7920  107.9817 C   0  0  0  0  0  0
   20.1043   14.9240  107.3674 C   0  0  0  0  0  0
   20.7497   15.5468  106.3100 C   0  0  0  0  0  0
   22.0497   15.1468  105.9946 C   0  0  0  0  0  0
   22.5588   13.9620  106.5081 C   0  0  0  0  0  0
   21.9136   13.2553  107.5183 C   0  0  0  0  0  0
   17.8960   13.8044  111.2888 C   0  0  0  0  0  0
   18.9599   14.5221  111.8594 C   0  0  0  0  0  0
   19.3422   14.2784  113.1757 C   0  0  0  0  0  0
   18.6345   13.3504  113.9356 C   0  0  0  0  0  0
   17.5180   12.7238  113.3990 C   0  0  0  0  0  0
   17.1723   12.9092  112.0695 C   0  0  0  0  0  0
   15.2043   14.6730  109.3590 C   0  0  0  0  0  0
   14.7939   13.5620  109.6800 O   0  0  0  0  0  0
   14.2133   15.6796  108.7276 C   0  0  0  0  0  0
   12.9850   15.0513  108.0235 C   0  0  0  0  0  0
   11.9662   14.6029  108.9590 N   0  0  0  0  0  0
   16.7180   11.9620  114.1875 O   0  0  0  0  0  0
   22.9256   15.9190  105.2766 O   0  0  0  0  0  0
   22.7180   17.3303  105.2105 C   0  0  0  0  0  0
   23.8866   17.9620  105.3590 F   0  0  0  0  0  0
   22.1420   17.5851  104.0417 F   0  0  0  0  0  0
   21.9498   17.8459  106.1590 F   0  0  0  0  0  0
   19.9214   12.5450  109.5486 H   0  0  0  0  0  0
   17.1089   12.9733  109.5520 H   0  0  0  0  0  0
   17.6904   16.6195  110.0553 H   0  0  0  0  0  0
   16.2739   17.1366  109.2593 H   0  0  0  0  0  0
   18.3494   17.2552  107.7590 H   0  0  0  0  0  0
   17.2075   16.1414  107.0452 H   0  0  0  0  0  0
   20.2802   16.3993  105.8459 H   0  0  0  0  0  0
   23.5197   13.6271  106.1590 H   0  0  0  0  0  0
   22.3180   12.3620  107.9471 H   0  0  0  0  0  0
   19.5180   15.2399  111.2753 H   0  0  0  0  0  0
   20.1868   14.7985  113.6031 H   0  0  0  0  0  0
   18.9218   13.1620  114.9590 H   0  0  0  0  0  0
   16.3252   12.3745  111.6595 H   0  0  0  0  0  0
   14.7387   16.2534  107.9651 H   0  0  0  0  0  0
   13.8940   16.3876  109.4925 H   0  0  0  0  0  0
   13.2927   14.2115  107.3971 H   0  0  0  0  0  0
   12.5322   15.7844  107.3538 H   0  0  0  0  0  0
   11.5766   15.3933  109.4531 H   0  0  0  0  0  0
   11.1999   14.1764  108.4561 H   0  0  0  0  0  0
   17.0366   11.9191  115.0923 H   0  0  0  0  0  0
  1  8  1  0  0  0
  1  3  1  0  0  0
  1 31  1  0  0  0
  2  9  1  0  0  0
  2  3  2  0  0  0
  2  7  1  0  0  0
  3  4  1  0  0  0
  4  5  1  0  0  0
  4 14  1  0  0  0
  4 32  1  0  0  0
  5  6  1  0  0  0
  5 20  1  0  0  0
  6  7  1  0  0  0
  6 33  1  0  0  0
  6 34  1  0  0  0
  7 35  1  0  0  0
  7 36  1  0  0  0
  8  9  2  0  0  0
  8 13  1  0  0  0
  9 10  1  0  0  0
 10 11  2  0  0  0
 10 37  1  0  0  0
 11 12  1  0  0  0
 11 26  1  0  0  0
 12 13  2  0  0  0
 12 38  1  0  0  0
 13 39  1  0  0  0
 14 15  2  0  0  0
 14 19  1  0  0  0
 15 16  1  0  0  0
 15 40  1  0  0  0
 16 17  2  0  0  0
 16 41  1  0  0  0
 17 18  1  0  0  0
 17 42  1  0  0  0
 18 19  2  0  0  0
 18 25  1  0  0  0
 19 43  1  0  0  0
 20 21  2  0  0  0
 20 22  1  0  0  0
 22 23  1  0  0  0
 22 44  1  0  0  0
 22 45  1  0  0  0
 23 24  1  0  0  0
 23 46  1  0  0  0
 23 47  1  0  0  0
 24 48  1  0  0  0
 24 49  1  0  0  0
 25 50  1  0  0  0
 26 27  1  0  0  0
 27 28  1  0  0  0
 27 29  1  0  0  0
 27 30  1  0  0  0
M  END
> <s_m_entry_id>
422

> <s_m_entry_name>
dock_pv.421

> <s_m_Source_Path>
/home/csk/Desktop/cluster/DUD-E-result/kif11

> <s_m_Source_File>
dock_pv.maegz

> <i_m_Source_File_Index>
421

> <chembl_id>
CHEMBL592519

> <chembl_pref_name>
None

> <i_lp_mmshare_version>
53161

> <i_f3d_flags>
0

> <r_lp_tautomer_probability>
0.999999999997365

> <s_lp_Force_Field>
OPLS_2005

> <r_lp_Energy>
23.620421

> <b_lp_Chiralities_Consistent>
1

> <s_lp_Variant>
CHEMBL4581_lig301-1

> <s_i_glide_gridfile>
glide-grid_3cjo

> <i_i_glide_lignum>
440

> <i_i_glide_rotatable_bonds>
7

> <r_i_docking_score>
-7.33486381996573

> <r_i_glide_ligand_efficiency>
-0.244495460665524

> <r_i_glide_ligand_efficiency_sa>
-0.759704242076779

> <r_i_glide_ligand_efficiency_ln>
-1.6665609796386

> <r_i_glide_gscore>
-7.33486381996573

> <r_i_glide_lipo>
-4.62866303500821

> <r_i_glide_hbond>
-0.00775075744991884

> <r_i_glide_metal>
0

> <r_i_glide_rewards>
-1.42477675278599

> <r_i_glide_evdw>
-27.7818298339844

> <r_i_glide_ecoul>
-2.22977709770203

> <r_i_glide_erotb>
0.449884781632909

> <r_i_glide_esite>
0

> <r_i_glide_emodel>
-40.7101580935697

> <r_i_glide_energy>
-30.0116069316864

> <r_i_glide_einternal>
8.47257804870605

> <i_i_glide_confnum>
31

> <i_i_glide_posenum>
2

> <r_i_glide_eff_state_penalty>
0

> <s_user_duplicate_titles>
CHEMBL4581_lig301

> <s_m_subgroup_title>
dock_pv

> <s_m_subgroupid>
dock_pv

> <b_m_subgroup_collapsed>
1

$$$$
CHEMBL4581_lig403
                    3D
 Schrodinger Suite 2021-1.
 48 51  0  0  1  0            999 V2000
   17.5288   12.5084  112.6803 C   0  0  0  0  0  0
   18.4975   13.3314  113.2509 C   0  0  0  0  0  0
   19.1064   14.3622  112.5320 C   0  0  0  0  0  0
   17.1180   12.6879  111.3604 C   0  0  0  0  0  0
   17.6843   13.7271  110.6069 C   0  0  0  0  0  0
   18.6861   14.5495  111.2081 C   0  0  0  0  0  0
   19.0791   15.4608  110.2473 N   0  0  0  0  0  0
   17.4901   14.2103  109.2713 C   0  0  0  0  0  0
   18.3468   15.2858  109.0953 C   0  0  0  0  0  0
   18.5121   16.0637  107.7797 C   0  0  2  0  0  0
   17.3490   15.7937  106.9205 N   0  0  1  0  0  0
   17.0316   14.3564  106.7951 C   0  0  1  0  0  0
   16.5620   13.7518  108.1610 C   0  0  0  0  0  0
   19.8390   15.8090  107.0506 C   0  0  0  0  0  0
   20.3494   16.7620  106.1582 C   0  0  0  0  0  0
   21.5362   16.5319  105.4635 C   0  0  0  0  0  0
   22.2113   15.3241  105.6279 C   0  0  0  0  0  0
   21.6939   14.3607  106.4906 C   0  0  0  0  0  0
   20.5322   14.6050  107.2109 C   0  0  0  0  0  0
   22.3180   13.1588  106.6244 O   0  0  0  0  0  0
   15.9607   14.1169  105.6929 C   0  0  0  0  0  0
   15.5185   15.0374  104.9989 O   0  0  0  0  0  0
   15.5349   12.8500  105.5443 N   0  0  0  0  0  0
   14.4924   12.4143  104.6217 C   0  0  0  0  0  0
   13.9200   11.0609  105.0688 C   0  0  0  0  0  0
   12.8887   10.5856  104.1607 N   0  0  0  0  0  0
   17.0852   11.7178  113.2706 H   0  0  0  0  0  0
   18.7881   13.1584  114.2785 H   0  0  0  0  0  0
   19.8637   14.9856  112.9844 H   0  0  0  0  0  0
   16.3687   12.0398  110.9306 H   0  0  0  0  0  0
   19.7856   16.1772  110.3323 H   0  0  0  0  0  0
   18.4964   17.1312  108.0057 H   0  0  0  0  0  0
   16.5279   16.2449  107.2987 H   0  0  0  0  0  0
   17.8985   13.8169  106.4060 H   0  0  0  0  0  0
   15.5363   14.0458  108.3889 H   0  0  0  0  0  0
   16.5707   12.6625  108.1123 H   0  0  0  0  0  0
   19.8283   17.6903  105.9981 H   0  0  0  0  0  0
   21.9196   17.2783  104.7834 H   0  0  0  0  0  0
   23.1167   15.1356  105.0708 H   0  0  0  0  0  0
   20.1553   13.8328  107.8645 H   0  0  0  0  0  0
   22.9767   13.0184  105.9421 H   0  0  0  0  0  0
   15.9465   12.1294  106.1216 H   0  0  0  0  0  0
   14.9145   12.3608  103.6187 H   0  0  0  0  0  0
   13.6907   13.1550  104.5933 H   0  0  0  0  0  0
   13.5181   11.1620  106.0742 H   0  0  0  0  0  0
   14.7102   10.3116  105.1378 H   0  0  0  0  0  0
   12.4503    9.7623  104.5684 H   0  0  0  0  0  0
   12.1432   11.2657  104.0995 H   0  0  0  0  0  0
  1  2  2  0  0  0
  1  4  1  0  0  0
  1 27  1  0  0  0
  2  3  1  0  0  0
  2 28  1  0  0  0
  3  6  2  0  0  0
  3 29  1  0  0  0
  4  5  2  0  0  0
  4 30  1  0  0  0
  5  8  1  0  0  0
  5  6  1  0  0  0
  6  7  1  0  0  0
  7  9  1  0  0  0
  7 31  1  0  0  0
  8  9  2  0  0  0
  8 13  1  0  0  0
  9 10  1  0  0  0
 10 11  1  0  0  0
 10 14  1  0  0  0
 10 32  1  0  0  0
 11 12  1  0  0  0
 11 33  1  0  0  0
 12 13  1  0  0  0
 12 21  1  0  0  0
 12 34  1  0  0  0
 13 35  1  0  0  0
 13 36  1  0  0  0
 14 15  2  0  0  0
 14 19  1  0  0  0
 15 16  1  0  0  0
 15 37  1  0  0  0
 16 17  2  0  0  0
 16 38  1  0  0  0
 17 18  1  0  0  0
 17 39  1  0  0  0
 18 19  2  0  0  0
 18 20  1  0  0  0
 19 40  1  0  0  0
 20 41  1  0  0  0
 21 22  2  0  0  0
 21 23  1  0  0  0
 23 24  1  0  0  0
 23 42  1  0  0  0
 24 25  1  0  0  0
 24 43  1  0  0  0
 24 44  1  0  0  0
 25 26  1  0  0  0
 25 45  1  0  0  0
 25 46  1  0  0  0
 26 47  1  0  0  0
 26 48  1  0  0  0
M  END
> <s_m_entry_id>
423

> <s_m_entry_name>
dock_pv.422

> <s_m_Source_Path>
/home/csk/Desktop/cluster/DUD-E-result/kif11

> <s_m_Source_File>
dock_pv.maegz

> <i_m_Source_File_Index>
422

> <chembl_id>
CHEMBL1163528

> <chembl_pref_name>
None

> <i_lp_mmshare_version>
53161

> <i_f3d_flags>
0

> <r_lp_tautomer_probability>
0.999999999997365

> <s_lp_Force_Field>
OPLS_2005

> <r_lp_Energy>
15.046531

> <b_lp_Chiralities_Consistent>
1

> <s_lp_Variant>
CHEMBL4581_lig403-3

> <s_i_glide_gridfile>
glide-grid_3cjo

> <i_i_glide_lignum>
586

> <i_i_glide_rotatable_bonds>
6

> <r_i_docking_score>
-7.33184016351909

> <r_i_glide_ligand_efficiency>
-0.281993852443042

> <r_i_glide_ligand_efficiency_sa>
-0.835405678270282

> <r_i_glide_ligand_efficiency_ln>
-1.72185860467264

> <r_i_glide_gscore>
-7.33184016351909

> <r_i_glide_lipo>
-3.88432961402885

> <r_i_glide_hbond>
-0.178850354338705

> <r_i_glide_metal>
0

> <r_i_glide_rewards>
-1.11154353295292

> <r_i_glide_evdw>
-42.6366996765137

> <r_i_glide_ecoul>
-4.14017915725708

> <r_i_glide_erotb>
0.62091496705787

> <r_i_glide_esite>
-0.0251697718422416

> <r_i_glide_emodel>
-67.4250383452571

> <r_i_glide_energy>
-46.7768788337708

> <r_i_glide_einternal>
2.21792006492615

> <i_i_glide_confnum>
16

> <i_i_glide_posenum>
307

> <r_i_glide_eff_state_penalty>
0

> <s_user_duplicate_titles>
CHEMBL4581_lig403,644786

> <s_m_subgroup_title>
dock_pv

> <s_m_subgroupid>
dock_pv

> <b_m_subgroup_collapsed>
1

$$$$
CHEMBL4581_lig75
                    3D
 Schrodinger Suite 2021-1.
 42 44  0  0  1  0            999 V2000
   21.5181   13.9618  107.2412 C   0  0  0  0  0  0
   21.3158   15.0429  106.3938 C   0  0  0  0  0  0
   20.1135   15.7558  106.4533 C   0  0  0  0  0  0
   20.5453   13.6021  108.1595 C   0  0  0  0  0  0
   19.2949   14.2283  108.1613 C   0  0  0  0  0  0
   19.0832   15.3520  107.3268 C   0  0  0  0  0  0
   17.7340   16.0885  107.3670 C   0  0  0  0  0  0
   16.9065   15.6504  108.5083 N   0  0  0  0  0  0
   16.7703   14.1940  108.5936 C   0  0  0  0  0  0
   18.1556   13.6686  109.0353 C   0  0  2  0  0  0
   18.3680   13.8053  110.5469 C   0  0  0  0  0  0
   17.6412   12.9775  111.4112 C   0  0  0  0  0  0
   17.8543   13.0370  112.7870 C   0  0  0  0  0  0
   18.8127   13.9016  113.3071 C   0  0  0  0  0  0
   19.5171   14.7565  112.4630 C   0  0  0  0  0  0
   19.2870   14.7139  111.0896 C   0  0  0  0  0  0
   16.1492   16.4680  109.2933 C   0  0  0  0  0  0
   15.0767   16.0809  109.7663 O   0  0  0  0  0  0
   16.6169   17.7168  109.5606 N   0  0  0  0  0  0
   18.0331   18.0492  109.7271 C   0  0  0  0  0  0
   15.7205   18.8182  109.9171 C   0  0  0  0  0  0
   17.1178   12.2546  113.6314 O   0  0  0  0  0  0
   19.9029   17.1344  105.4217 Cl  0  0  0  0  0  0
   22.5891   15.4858  105.3073 Cl  0  0  0  0  0  0
   22.4506   13.4173  107.2073 H   0  0  0  0  0  0
   20.7202   12.7607  108.8137 H   0  0  0  0  0  0
   17.8916   17.1620  107.3643 H   0  0  0  0  0  0
   17.1938   15.8579  106.4479 H   0  0  0  0  0  0
   16.5108   13.8103  107.6055 H   0  0  0  0  0  0
   15.9543   13.8670  109.2406 H   0  0  0  0  0  0
   18.1481   12.5918  108.8577 H   0  0  0  0  0  0
   16.9168   12.2830  111.0096 H   0  0  0  0  0  0
   19.0183   13.8980  114.3632 H   0  0  0  0  0  0
   20.2556   15.4322  112.8677 H   0  0  0  0  0  0
   19.8549   15.3735  110.4506 H   0  0  0  0  0  0
   18.6895   17.1842  109.6409 H   0  0  0  0  0  0
   18.3181   18.7620  108.9584 H   0  0  0  0  0  0
   18.2133   18.4999  110.7041 H   0  0  0  0  0  0
   14.6712   18.5784  109.7371 H   0  0  0  0  0  0
   15.8322   19.0718  110.9725 H   0  0  0  0  0  0
   15.9612   19.7052  109.3300 H   0  0  0  0  0  0
   16.4683   11.7083  113.1798 H   0  0  0  0  0  0
  1  2  2  0  0  0
  1  4  1  0  0  0
  1 25  1  0  0  0
  2  3  1  0  0  0
  2 24  1  0  0  0
  3  6  2  0  0  0
  3 23  1  0  0  0
  4  5  2  0  0  0
  4 26  1  0  0  0
  5 10  1  0  0  0
  5  6  1  0  0  0
  6  7  1  0  0  0
  7  8  1  0  0  0
  7 27  1  0  0  0
  7 28  1  0  0  0
  8 17  1  0  0  0
  8  9  1  0  0  0
  9 10  1  0  0  0
  9 29  1  0  0  0
  9 30  1  0  0  0
 10 11  1  0  0  0
 10 31  1  0  0  0
 11 12  2  0  0  0
 11 16  1  0  0  0
 12 13  1  0  0  0
 12 32  1  0  0  0
 13 14  2  0  0  0
 13 22  1  0  0  0
 14 15  1  0  0  0
 14 33  1  0  0  0
 15 16  2  0  0  0
 15 34  1  0  0  0
 16 35  1  0  0  0
 17 18  2  0  0  0
 17 19  1  0  0  0
 19 20  1  0  0  0
 19 21  1  0  0  0
 20 36  1  0  0  0
 20 37  1  0  0  0
 20 38  1  0  0  0
 21 39  1  0  0  0
 21 40  1  0  0  0
 21 41  1  0  0  0
 22 42  1  0  0  0
M  END
> <s_m_entry_id>
424

> <s_m_entry_name>
dock_pv.423

> <s_m_Source_Path>
/home/csk/Desktop/cluster/DUD-E-result/kif11

> <s_m_Source_File>
dock_pv.maegz

> <i_m_Source_File_Index>
423

> <chembl_id>
CHEMBL377073

> <chembl_pref_name>
None

> <i_lp_mmshare_version>
53161

> <i_f3d_flags>
0

> <r_lp_tautomer_probability>
0.999999999997365

> <s_lp_Force_Field>
OPLS_2005

> <r_lp_Energy>
48.971786

> <b_lp_Chiralities_Consistent>
1

> <s_lp_Variant>
CHEMBL4581_lig75-1

> <s_i_glide_gridfile>
glide-grid_3cjo

> <i_i_glide_lignum>
115

> <i_i_glide_rotatable_bonds>
4

> <r_i_docking_score>
-7.32800597490683

> <r_i_glide_ligand_efficiency>
-0.305333582287784

> <r_i_glide_ligand_efficiency_sa>
-0.88073445477695

> <r_i_glide_ligand_efficiency_ln>
-1.75392809007838

> <r_i_glide_gscore>
-7.32800597490683

> <r_i_glide_lipo>
-4.48322854457724

> <r_i_glide_hbond>
0

> <r_i_glide_metal>
0

> <r_i_glide_rewards>
-1.18478490223597

> <r_i_glide_evdw>
-35.6660537719727

> <r_i_glide_ecoul>
-1.10023415088654

> <r_i_glide_erotb>
0.288345283138005

> <r_i_glide_esite>
0

> <r_i_glide_emodel>
-50.5043187040048

> <r_i_glide_energy>
-36.7662879228592

> <r_i_glide_einternal>
2.9805383682251

> <i_i_glide_confnum>
29

> <i_i_glide_posenum>
314

> <r_i_glide_eff_state_penalty>
0

> <s_user_duplicate_titles>
CHEMBL4581_lig75

> <s_m_subgroup_title>
dock_pv

> <s_m_subgroupid>
dock_pv

> <b_m_subgroup_collapsed>
1

$$$$
CHEMBL4581_lig589
                    3D
 Schrodinger Suite 2021-1.
 50 52  0  0  1  0            999 V2000
   15.6906   13.4423  104.4613 C   0  0  0  0  0  0
   16.4560   14.5884  105.1813 C   0  0  2  0  0  0
   16.1572   14.6834  106.6967 C   0  0  0  0  0  0
   15.1736   13.5640  103.3496 O   0  0  0  0  0  0
   15.7162   12.2811  105.1761 O   0  0  0  0  0  0
   17.2055   13.5629  107.6935 S   0  0  0  0  0  0
   18.4324   14.6641  108.5242 C   0  0  0  0  0  0
   19.2263   13.8103  109.5764 C   0  0  0  0  0  0
   18.6005   13.5680  110.9462 C   0  0  0  0  0  0
   19.1184   14.2529  112.0458 C   0  0  0  0  0  0
   18.6632   13.9588  113.3221 C   0  0  0  0  0  0
   17.6663   13.0033  113.4999 C   0  0  0  0  0  0
   17.1183   12.3406  112.4017 C   0  0  0  0  0  0
   17.5834   12.6246  111.1214 C   0  0  0  0  0  0
   19.4166   15.1327  107.3976 C   0  0  0  0  0  0
   19.1176   16.2559  106.6151 C   0  0  0  0  0  0
   20.0252   16.7614  105.6874 C   0  0  0  0  0  0
   21.5319   14.9565  106.1889 C   0  0  0  0  0  0
   20.6301   14.4668  107.1312 C   0  0  0  0  0  0
   17.7093   15.8348  109.2796 C   0  0  0  0  0  0
   18.3171   17.0904  109.4360 C   0  0  0  0  0  0
   17.6582   18.1423  110.0649 C   0  0  0  0  0  0
   15.7646   16.7104  110.4648 C   0  0  0  0  0  0
   16.4287   15.6572  109.8414 C   0  0  0  0  0  0
   16.1662   15.8699  104.5008 N   0  0  0  0  0  0
   16.3736   17.9538  110.5554 C   0  0  0  0  0  0
   15.7080   18.9895  111.1090 F   0  0  0  0  0  0
   21.2433   16.1256  105.4978 C   0  0  0  0  0  0
   22.1355   16.6317  104.6172 F   0  0  0  0  0  0
   17.5153   14.3622  105.0497 H   0  0  0  0  0  0
   15.1123   14.4485  106.9063 H   0  0  0  0  0  0
   16.2818   15.7047  107.0457 H   0  0  0  0  0  0
   16.1941   12.3523  106.0087 H   0  0  0  0  0  0
   19.4644   12.8295  109.1647 H   0  0  0  0  0  0
   20.1982   14.2741  109.7572 H   0  0  0  0  0  0
   19.9048   14.9826  111.9238 H   0  0  0  0  0  0
   19.1127   14.4670  114.1539 H   0  0  0  0  0  0
   17.3173   12.7701  114.4968 H   0  0  0  0  0  0
   16.3462   11.5971  112.5462 H   0  0  0  0  0  0
   17.1848   12.0845  110.2744 H   0  0  0  0  0  0
   18.1781   16.7618  106.7498 H   0  0  0  0  0  0
   19.7913   17.6476  105.1202 H   0  0  0  0  0  0
   22.4658   14.4432  106.0097 H   0  0  0  0  0  0
   20.9086   13.5632  107.6518 H   0  0  0  0  0  0
   19.2971   17.2847  109.0353 H   0  0  0  0  0  0
   18.1328   19.1073  110.1574 H   0  0  0  0  0  0
   14.7726   16.5723  110.8632 H   0  0  0  0  0  0
   15.9267   14.7035  109.7854 H   0  0  0  0  0  0
   16.8184   16.5912  104.7709 H   0  0  0  0  0  0
   16.2387   15.7556  103.4982 H   0  0  0  0  0  0
  1  2  1  0  0  0
  1  4  2  0  0  0
  1  5  1  0  0  0
  2  3  1  0  0  0
  2 25  1  0  0  0
  2 30  1  0  0  0
  3  6  1  0  0  0
  3 31  1  0  0  0
  3 32  1  0  0  0
  5 33  1  0  0  0
  6  7  1  0  0  0
  7  8  1  0  0  0
  7 15  1  0  0  0
  7 20  1  0  0  0
  8  9  1  0  0  0
  8 34  1  0  0  0
  8 35  1  0  0  0
  9 10  1  0  0  0
  9 14  2  0  0  0
 10 11  2  0  0  0
 10 36  1  0  0  0
 11 12  1  0  0  0
 11 37  1  0  0  0
 12 13  2  0  0  0
 12 38  1  0  0  0
 13 14  1  0  0  0
 13 39  1  0  0  0
 14 40  1  0  0  0
 15 16  1  0  0  0
 15 19  2  0  0  0
 16 17  2  0  0  0
 16 41  1  0  0  0
 17 28  1  0  0  0
 17 42  1  0  0  0
 18 28  2  0  0  0
 18 19  1  0  0  0
 18 43  1  0  0  0
 19 44  1  0  0  0
 20 21  1  0  0  0
 20 24  2  0  0  0
 21 22  2  0  0  0
 21 45  1  0  0  0
 22 26  1  0  0  0
 22 46  1  0  0  0
 23 26  2  0  0  0
 23 24  1  0  0  0
 23 47  1  0  0  0
 24 48  1  0  0  0
 25 49  1  0  0  0
 25 50  1  0  0  0
 26 27  1  0  0  0
 28 29  1  0  0  0
M  END
> <s_m_entry_id>
425

> <s_m_entry_name>
dock_pv.424

> <s_m_Source_Path>
/home/csk/Desktop/cluster/DUD-E-result/kif11

> <s_m_Source_File>
dock_pv.maegz

> <i_m_Source_File_Index>
424

> <chembl_id>
CHEMBL2043413

> <chembl_pref_name>
None

> <i_lp_mmshare_version>
53161

> <i_f3d_flags>
0

> <r_lp_tautomer_probability>
1

> <s_lp_Force_Field>
OPLS_2005

> <r_lp_Energy>
25.561922

> <b_lp_Chiralities_Consistent>
1

> <s_lp_Variant>
CHEMBL4581_lig589-1

> <s_i_glide_gridfile>
glide-grid_3cjo

> <i_i_glide_lignum>
903

> <i_i_glide_rotatable_bonds>
9

> <r_i_docking_score>
-7.32761400277587

> <r_i_glide_ligand_efficiency>
-0.252676344923306

> <r_i_glide_ligand_efficiency_sa>
-0.776301785089328

> <r_i_glide_ligand_efficiency_ln>
-1.67783779437689

> <r_i_glide_gscore>
-7.32761400277587

> <r_i_glide_lipo>
-4.75288487099372

> <r_i_glide_hbond>
0

> <r_i_glide_metal>
0

> <r_i_glide_rewards>
-1.13142434116779

> <r_i_glide_evdw>
-43.3912887573242

> <r_i_glide_ecoul>
-1.14580738544464

> <r_i_glide_erotb>
0.92315761880253

> <r_i_glide_esite>
-0.0250268637339815

> <r_i_glide_emodel>
-60.3352904176104

> <r_i_glide_energy>
-44.5370961427689

> <r_i_glide_einternal>
6.23104906082153

> <i_i_glide_confnum>
197

> <i_i_glide_posenum>
314

> <r_i_glide_eff_state_penalty>
0

> <s_user_duplicate_titles>
CHEMBL4581_lig589

> <s_m_subgroup_title>
dock_pv

> <s_m_subgroupid>
dock_pv

> <b_m_subgroup_collapsed>
1

$$$$
CHEMBL4581_lig383
                    3D
 Schrodinger Suite 2021-1.
 50 54  0  0  1  0            999 V2000
   22.1259   14.9794  105.7502 C   0  0  0  0  0  0
   21.6228   16.2146  105.3590 C   0  0  0  0  0  0
   20.4914   16.7620  105.9557 C   0  0  0  0  0  0
   21.5180   14.2338  106.7561 C   0  0  0  0  0  0
   20.4162   14.7825  107.4282 C   0  0  0  0  0  0
   19.9180   16.0524  107.0125 C   0  0  0  0  0  0
   18.8607   16.3620  107.8437 N   0  0  0  0  0  0
   19.5964   14.3547  108.5186 C   0  0  0  0  0  0
   18.6803   15.3628  108.7661 C   0  0  0  0  0  0
   17.6026   15.3178  109.8571 C   0  0  2  0  0  0
   17.8047   14.0717  110.6560 N   0  0  0  0  0  0
   18.1248   12.8867  109.8427 C   0  0  0  0  0  0
   19.5903   13.0897  109.3506 C   0  0  0  0  0  0
   16.1890   15.4099  109.3064 C   0  0  0  0  0  0
   23.5179   14.3620  104.9590 Cl  0  0  0  0  0  0
   14.3177   15.0829  108.0742 N   0  0  0  0  0  0
   15.6149   14.6872  108.2714 C   0  0  0  0  0  0
   13.9993   16.0877  108.9591 C   0  0  0  0  0  0
   15.1671   16.3195  109.7520 C   0  0  0  0  0  0
   15.1180   17.3128  110.7439 C   0  0  0  0  0  0
   13.9381   18.0313  110.9269 C   0  0  0  0  0  0
   12.8138   17.7801  110.1447 C   0  0  0  0  0  0
   12.8136   16.8072  109.1440 C   0  0  0  0  0  0
   18.1692   14.1015  111.9707 C   0  0  0  0  0  0
   18.3472   15.1620  112.5590 O   0  0  0  0  0  0
   16.8286   12.1947  113.0368 C   0  0  0  0  0  0
   18.2188   12.7797  112.7984 C   0  0  0  0  0  0
   19.0103   12.8674  114.1260 C   0  0  0  0  0  0
   22.1113   16.7540  104.5600 H   0  0  0  0  0  0
   20.1053   17.7115  105.6358 H   0  0  0  0  0  0
   21.9179   13.2714  107.0388 H   0  0  0  0  0  0
   18.2911   17.1955  107.8326 H   0  0  0  0  0  0
   17.7648   16.1892  110.4932 H   0  0  0  0  0  0
   17.8985   11.9620  110.3583 H   0  0  0  0  0  0
   17.4383   12.8337  108.9989 H   0  0  0  0  0  0
   19.9183   12.2505  108.7488 H   0  0  0  0  0  0
   20.2951   13.1619  110.1795 H   0  0  0  0  0  0
   13.7237   14.6760  107.3657 H   0  0  0  0  0  0
   16.0334   13.9089  107.6474 H   0  0  0  0  0  0
   15.9811   17.5218  111.3590 H   0  0  0  0  0  0
   13.8950   18.7977  111.6880 H   0  0  0  0  0  0
   11.9176   18.3591  110.3175 H   0  0  0  0  0  0
   11.9341   16.6263  108.5437 H   0  0  0  0  0  0
   16.2474   12.1926  112.1165 H   0  0  0  0  0  0
   16.8759   11.1620  113.3591 H   0  0  0  0  0  0
   16.3180   12.7519  113.8182 H   0  0  0  0  0  0
   18.7180   12.0470  112.1914 H   0  0  0  0  0  0
   19.8539   13.5576  114.0689 H   0  0  0  0  0  0
   18.3748   13.1620  114.9590 H   0  0  0  0  0  0
   19.4132   11.8948  114.4042 H   0  0  0  0  0  0
  1 15  1  0  0  0
  1  2  2  0  0  0
  1  4  1  0  0  0
  2  3  1  0  0  0
  2 29  1  0  0  0
  3  6  2  0  0  0
  3 30  1  0  0  0
  4  5  2  0  0  0
  4 31  1  0  0  0
  5  8  1  0  0  0
  5  6  1  0  0  0
  6  7  1  0  0  0
  7  9  1  0  0  0
  7 32  1  0  0  0
  8  9  2  0  0  0
  8 13  1  0  0  0
  9 10  1  0  0  0
 10 14  1  0  0  0
 10 11  1  0  0  0
 10 33  1  0  0  0
 11 24  1  0  0  0
 11 12  1  0  0  0
 12 13  1  0  0  0
 12 34  1  0  0  0
 12 35  1  0  0  0
 13 36  1  0  0  0
 13 37  1  0  0  0
 14 19  1  0  0  0
 14 17  2  0  0  0
 16 18  1  0  0  0
 16 17  1  0  0  0
 16 38  1  0  0  0
 17 39  1  0  0  0
 18 19  2  0  0  0
 18 23  1  0  0  0
 19 20  1  0  0  0
 20 21  2  0  0  0
 20 40  1  0  0  0
 21 22  1  0  0  0
 21 41  1  0  0  0
 22 23  2  0  0  0
 22 42  1  0  0  0
 23 43  1  0  0  0
 24 25  2  0  0  0
 24 27  1  0  0  0
 26 27  1  0  0  0
 26 44  1  0  0  0
 26 45  1  0  0  0
 26 46  1  0  0  0
 27 28  1  0  0  0
 27 47  1  0  0  0
 28 48  1  0  0  0
 28 49  1  0  0  0
 28 50  1  0  0  0
M  END
> <s_m_entry_id>
426

> <s_m_entry_name>
dock_pv.425

> <s_m_Source_Path>
/home/csk/Desktop/cluster/DUD-E-result/kif11

> <s_m_Source_File>
dock_pv.maegz

> <i_m_Source_File_Index>
425

> <chembl_id>
CHEMBL1165639

> <chembl_pref_name>
None

> <i_lp_mmshare_version>
53161

> <i_f3d_flags>
0

> <r_lp_tautomer_probability>
1

> <s_lp_Force_Field>
OPLS_2005

> <r_lp_Energy>
26.568892

> <b_lp_Chiralities_Consistent>
1

> <s_lp_Variant>
CHEMBL4581_lig383-1

> <s_i_glide_gridfile>
glide-grid_3cjo

> <i_i_glide_lignum>
542

> <i_i_glide_rotatable_bonds>
3

> <r_i_docking_score>
-7.32597712897481

> <r_i_glide_ligand_efficiency>
-0.261642040320529

> <r_i_glide_ligand_efficiency_sa>
-0.794499333333888

> <r_i_glide_ligand_efficiency_ln>
-1.69105062140257

> <r_i_glide_gscore>
-7.32597712897481

> <r_i_glide_lipo>
-4.11485194581835

> <r_i_glide_hbond>
0

> <r_i_glide_metal>
0

> <r_i_glide_rewards>
-1.26113053125385

> <r_i_glide_evdw>
-36.2309989929199

> <r_i_glide_ecoul>
-2.61756277084351

> <r_i_glide_erotb>
0.25418971336992

> <r_i_glide_esite>
0

> <r_i_glide_emodel>
-46.5812393978322

> <r_i_glide_energy>
-38.8485617637634

> <r_i_glide_einternal>
8.3235969543457

> <i_i_glide_confnum>
7

> <i_i_glide_posenum>
196

> <r_i_glide_eff_state_penalty>
0

> <s_user_duplicate_titles>
CHEMBL4581_lig383

> <s_m_subgroup_title>
dock_pv

> <s_m_subgroupid>
dock_pv

> <b_m_subgroup_collapsed>
1

$$$$
CHEMBL4581_lig409
                    3D
 Schrodinger Suite 2021-1.
 53 56  0  0  1  0            999 V2000
   14.1353   19.4456  109.5132 C   0  0  0  0  0  0
   13.2027   18.5050  109.9424 C   0  0  0  0  0  0
   13.5379   17.1622  110.1207 C   0  0  0  0  0  0
   15.4498   19.0793  109.2336 C   0  0  0  0  0  0
   15.8300   17.7396  109.4066 C   0  0  0  0  0  0
   14.8648   16.7957  109.8627 C   0  0  0  0  0  0
   15.5180   15.5806  109.9633 N   0  0  0  0  0  0
   17.0426   17.0109  109.2049 C   0  0  0  0  0  0
   16.8362   15.7153  109.6008 C   0  0  0  0  0  0
   17.8929   14.6083  109.5644 C   0  0  1  0  0  0
   19.0774   15.0265  108.7219 N   0  0  0  0  0  0
   18.9854   16.2366  107.8395 C   0  0  2  0  0  0
   18.3857   17.4114  108.6848 C   0  0  0  0  0  0
   18.1537   14.1201  110.9886 C   0  0  0  0  0  0
   19.0846   14.7627  111.8134 C   0  0  0  0  0  0
   19.2496   14.3528  113.1359 C   0  0  0  0  0  0
   18.4675   13.3168  113.6466 C   0  0  0  0  0  0
   17.5193   12.6963  112.8371 C   0  0  0  0  0  0
   17.3683   13.0877  111.5084 C   0  0  0  0  0  0
   16.7180   11.7225  113.3587 O   0  0  0  0  0  0
   18.2519   15.9239  106.5005 C   0  0  0  0  0  0
   17.1984   15.0837  106.6278 O   0  0  0  0  0  0
   18.6767   16.3620  105.4304 O   0  0  0  0  0  0
   20.0817   14.1173  108.5120 C   0  0  0  0  0  0
   21.0537   14.2940  107.3181 C   0  0  0  0  0  0
   20.2311   13.1298  109.2282 O   0  0  0  0  0  0
   16.4724   14.6402  105.4921 C   0  0  0  0  0  0
   15.6265   13.4283  105.8964 C   0  0  0  0  0  0
   22.1710   13.2402  107.2250 C   0  0  0  0  0  0
   13.8309   20.4760  109.3908 H   0  0  0  0  0  0
   12.1906   18.8260  110.1397 H   0  0  0  0  0  0
   12.7931   16.4503  110.4437 H   0  0  0  0  0  0
   16.1624   19.8159  108.8920 H   0  0  0  0  0  0
   15.1291   14.6943  110.2455 H   0  0  0  0  0  0
   17.4739   13.7736  108.9988 H   0  0  0  0  0  0
   19.9743   16.5818  107.5489 H   0  0  0  0  0  0
   19.0491   17.6203  109.5259 H   0  0  0  0  0  0
   18.3146   18.3554  108.1589 H   0  0  0  0  0  0
   19.6807   15.5773  111.4262 H   0  0  0  0  0  0
   19.9806   14.8362  113.7659 H   0  0  0  0  0  0
   18.5865   13.0044  114.6737 H   0  0  0  0  0  0
   16.6327   12.6018  110.8852 H   0  0  0  0  0  0
   16.0469   11.3757  112.7578 H   0  0  0  0  0  0
   21.5180   15.2753  107.3576 H   0  0  0  0  0  0
   20.4822   14.2450  106.3919 H   0  0  0  0  0  0
   17.1495   14.3615  104.6829 H   0  0  0  0  0  0
   15.8342   15.4469  105.1278 H   0  0  0  0  0  0
   15.0379   13.0667  105.0536 H   0  0  0  0  0  0
   16.2576   12.6043  106.2337 H   0  0  0  0  0  0
   14.9373   13.6756  106.7043 H   0  0  0  0  0  0
   22.8817   13.5081  106.4433 H   0  0  0  0  0  0
   22.7113   13.1622  108.1643 H   0  0  0  0  0  0
   21.7894   12.2547  106.9600 H   0  0  0  0  0  0
  1  2  2  0  0  0
  1  4  1  0  0  0
  1 30  1  0  0  0
  2  3  1  0  0  0
  2 31  1  0  0  0
  3  6  2  0  0  0
  3 32  1  0  0  0
  4  5  2  0  0  0
  4 33  1  0  0  0
  5  8  1  0  0  0
  5  6  1  0  0  0
  6  7  1  0  0  0
  7  9  1  0  0  0
  7 34  1  0  0  0
  8  9  2  0  0  0
  8 13  1  0  0  0
  9 10  1  0  0  0
 10 14  1  0  0  0
 10 11  1  0  0  0
 10 35  1  0  0  0
 11 24  1  0  0  0
 11 12  1  0  0  0
 12 21  1  0  0  0
 12 13  1  0  0  0
 12 36  1  0  0  0
 13 37  1  0  0  0
 13 38  1  0  0  0
 14 15  2  0  0  0
 14 19  1  0  0  0
 15 16  1  0  0  0
 15 39  1  0  0  0
 16 17  2  0  0  0
 16 40  1  0  0  0
 17 18  1  0  0  0
 17 41  1  0  0  0
 18 19  2  0  0  0
 18 20  1  0  0  0
 19 42  1  0  0  0
 20 43  1  0  0  0
 21 22  1  0  0  0
 21 23  2  0  0  0
 22 27  1  0  0  0
 24 25  1  0  0  0
 24 26  2  0  0  0
 25 29  1  0  0  0
 25 44  1  0  0  0
 25 45  1  0  0  0
 27 28  1  0  0  0
 27 46  1  0  0  0
 27 47  1  0  0  0
 28 48  1  0  0  0
 28 49  1  0  0  0
 28 50  1  0  0  0
 29 51  1  0  0  0
 29 52  1  0  0  0
 29 53  1  0  0  0
M  END
> <s_m_entry_id>
427

> <s_m_entry_name>
dock_pv.426

> <s_m_Source_Path>
/home/csk/Desktop/cluster/DUD-E-result/kif11

> <s_m_Source_File>
dock_pv.maegz

> <i_m_Source_File_Index>
426

> <chembl_id>
CHEMBL1164258

> <chembl_pref_name>
None

> <i_lp_mmshare_version>
53161

> <i_f3d_flags>
0

> <r_lp_tautomer_probability>
0.999999999997365

> <s_lp_Force_Field>
OPLS_2005

> <r_lp_Energy>
23.050409

> <b_lp_Chiralities_Consistent>
1

> <s_lp_Variant>
CHEMBL4581_lig409-2

> <s_i_glide_gridfile>
glide-grid_3cjo

> <i_i_glide_lignum>
609

> <i_i_glide_rotatable_bonds>
7

> <r_i_docking_score>
-7.32477490114856

> <r_i_glide_ligand_efficiency>
-0.252578444867192

> <r_i_glide_ligand_efficiency_sa>
-0.77600100510003

> <r_i_glide_ligand_efficiency_ln>
-1.67718771209764

> <r_i_glide_gscore>
-7.32477490114856

> <r_i_glide_lipo>
-3.41512305603815

> <r_i_glide_hbond>
-0.32

> <r_i_glide_metal>
0

> <r_i_glide_rewards>
-1.69785398880027

> <r_i_glide_evdw>
-39.7421989440918

> <r_i_glide_ecoul>
-2.7451798915863

> <r_i_glide_erotb>
0.507089074632398

> <r_i_glide_esite>
0

> <r_i_glide_emodel>
-55.6503806954363

> <r_i_glide_energy>
-42.4873788356781

> <r_i_glide_einternal>
8.8640661239624

> <i_i_glide_confnum>
4

> <i_i_glide_posenum>
377

> <r_i_glide_eff_state_penalty>
0

> <s_user_duplicate_titles>
CHEMBL4581_lig409

> <s_m_subgroup_title>
dock_pv

> <s_m_subgroupid>
dock_pv

> <b_m_subgroup_collapsed>
1

$$$$
CHEMBL4581_lig208
                    3D
 Schrodinger Suite 2021-1.
 57 60  0  0  1  0            999 V2000
   18.3077   13.0436  113.7773 C   0  0  0  0  0  0
   19.1180   14.0747  113.3164 C   0  0  0  0  0  0
   19.1228   14.4121  111.9717 C   0  0  0  0  0  0
   18.3328   13.7146  111.0464 C   0  0  0  0  0  0
   17.5145   12.6721  111.5197 C   0  0  0  0  0  0
   17.5010   12.3531  112.8781 C   0  0  0  0  0  0
   19.9181   14.7556  114.1587 F   0  0  0  0  0  0
   16.7180   11.9621  110.6892 F   0  0  0  0  0  0
   18.3770   14.1149  109.6276 C   0  0  0  0  0  0
   17.7706   13.5644  108.6562 N   0  0  0  0  0  0
   17.9596   14.2593  107.4976 N   0  0  0  0  0  0
   18.8713   15.4171  107.7026 C   0  0  1  0  0  0
   19.2037   15.2863  109.1852 C   0  0  0  0  0  0
   17.1585   14.0416  106.4087 C   0  0  0  0  0  0
   17.1566   14.7620  105.4088 O   0  0  0  0  0  0
   20.1871   15.3539  106.8577 C   0  0  0  0  0  0
   18.0920   16.7468  107.4581 C   0  0  0  0  0  0
   20.6300   16.4276  106.0619 C   0  0  0  0  0  0
   21.8298   16.3565  105.3590 C   0  0  0  0  0  0
   22.5995   15.2002  105.4204 C   0  0  0  0  0  0
   22.1917   14.1289  106.2066 C   0  0  0  0  0  0
   21.0081   14.2201  106.9369 C   0  0  0  0  0  0
   16.6566   16.9837  107.9996 C   0  0  0  0  0  0
   16.5175   17.2443  109.5121 C   0  0  0  0  0  0
   16.1690   12.8804  106.4154 C   0  0  0  0  0  0
   15.2738   17.9528  109.8130 N   0  0  2  0  0  0
   15.0963   18.2401  111.2271 C   0  0  0  0  0  0
   13.6366   18.6838  111.3593 C   0  0  0  0  0  0
   12.9319   18.0252  110.1681 C   0  0  1  0  0  0
   14.0427   17.2607  109.4458 C   0  0  0  0  0  0
   12.0035   17.1618  110.5798 F   0  0  0  0  0  0
   18.3057   12.7806  114.8259 H   0  0  0  0  0  0
   19.7733   15.2221  111.6776 H   0  0  0  0  0  0
   16.8566   11.5618  113.2317 H   0  0  0  0  0  0
   18.9590   16.1853  109.7484 H   0  0  0  0  0  0
   20.2596   15.0789  109.3633 H   0  0  0  0  0  0
   18.7180   17.5828  107.7593 H   0  0  0  0  0  0
   17.9899   16.7620  106.3759 H   0  0  0  0  0  0
   20.0718   17.3466  105.9781 H   0  0  0  0  0  0
   22.1528   17.1893  104.7516 H   0  0  0  0  0  0
   23.5181   15.1336  104.8575 H   0  0  0  0  0  0
   22.7924   13.2333  106.2599 H   0  0  0  0  0  0
   20.7275   13.4000  107.5787 H   0  0  0  0  0  0
   16.1805   17.7887  107.4367 H   0  0  0  0  0  0
   16.0506   16.1103  107.7674 H   0  0  0  0  0  0
   16.5359   16.2983  110.0557 H   0  0  0  0  0  0
   17.3676   17.8274  109.8700 H   0  0  0  0  0  0
   15.4433   12.9861  107.2218 H   0  0  0  0  0  0
   15.6327   12.8126  105.4691 H   0  0  0  0  0  0
   16.7180   11.9612  106.5582 H   0  0  0  0  0  0
   15.3415   17.3845  111.8593 H   0  0  0  0  0  0
   15.8018   19.0217  111.5154 H   0  0  0  0  0  0
   13.2198   18.3621  112.3141 H   0  0  0  0  0  0
   13.5478   19.7702  111.3224 H   0  0  0  0  0  0
   12.4578   18.7643  109.5209 H   0  0  0  0  0  0
   13.9055   17.2290  108.3644 H   0  0  0  0  0  0
   14.0993   16.2153  109.7565 H   0  0  0  0  0  0
  1  6  1  0  0  0
  1  2  2  0  0  0
  1 32  1  0  0  0
  2  3  1  0  0  0
  2  7  1  0  0  0
  3  4  2  0  0  0
  3 33  1  0  0  0
  4  9  1  0  0  0
  4  5  1  0  0  0
  5  8  1  0  0  0
  5  6  2  0  0  0
  6 34  1  0  0  0
  9 10  2  0  0  0
  9 13  1  0  0  0
 10 11  1  0  0  0
 11 12  1  0  0  0
 11 14  1  0  0  0
 12 16  1  0  0  0
 12 17  1  0  0  0
 12 13  1  0  0  0
 13 35  1  0  0  0
 13 36  1  0  0  0
 14 15  2  0  0  0
 14 25  1  0  0  0
 16 18  2  0  0  0
 16 22  1  0  0  0
 17 23  1  0  0  0
 17 37  1  0  0  0
 17 38  1  0  0  0
 18 19  1  0  0  0
 18 39  1  0  0  0
 19 20  2  0  0  0
 19 40  1  0  0  0
 20 21  1  0  0  0
 20 41  1  0  0  0
 21 22  2  0  0  0
 21 42  1  0  0  0
 22 43  1  0  0  0
 23 24  1  0  0  0
 23 44  1  0  0  0
 23 45  1  0  0  0
 24 26  1  0  0  0
 24 46  1  0  0  0
 24 47  1  0  0  0
 25 48  1  0  0  0
 25 49  1  0  0  0
 25 50  1  0  0  0
 26 27  1  0  0  0
 26 30  1  0  0  0
 27 28  1  0  0  0
 27 51  1  0  0  0
 27 52  1  0  0  0
 28 29  1  0  0  0
 28 53  1  0  0  0
 28 54  1  0  0  0
 29 30  1  0  0  0
 29 31  1  0  0  0
 29 55  1  0  0  0
 30 56  1  0  0  0
 30 57  1  0  0  0
M  END
> <s_m_entry_id>
428

> <s_m_entry_name>
dock_pv.427

> <s_m_Source_Path>
/home/csk/Desktop/cluster/DUD-E-result/kif11

> <s_m_Source_File>
dock_pv.maegz

> <i_m_Source_File_Index>
427

> <chembl_id>
CHEMBL240704

> <chembl_pref_name>
None

> <i_lp_mmshare_version>
53161

> <i_f3d_flags>
0

> <r_lp_tautomer_probability>
1

> <s_lp_Force_Field>
OPLS_2005

> <r_lp_Energy>
51.236438

> <b_lp_Chiralities_Consistent>
1

> <s_lp_Variant>
CHEMBL4581_lig208-1

> <s_i_glide_gridfile>
glide-grid_3cjo

> <i_i_glide_lignum>
315

> <i_i_glide_rotatable_bonds>
7

> <r_i_docking_score>
-7.3243223757519

> <r_i_glide_ligand_efficiency>
-0.236268463733932

> <r_i_glide_ligand_efficiency_sa>
-0.742209179894433

> <r_i_glide_ligand_efficiency_ln>
-1.65185915925582

> <r_i_glide_gscore>
-7.3243223757519

> <r_i_glide_lipo>
-4.50192382087661

> <r_i_glide_hbond>
0

> <r_i_glide_metal>
0

> <r_i_glide_rewards>
-1.13523782597844

> <r_i_glide_evdw>
-41.165111541748

> <r_i_glide_ecoul>
-0.967816770076752

> <r_i_glide_erotb>
0.538700452521297

> <r_i_glide_esite>
-0.0224330888192307

> <r_i_glide_emodel>
-58.4613678425766

> <r_i_glide_energy>
-42.1329283118248

> <r_i_glide_einternal>
5.68419170379639

> <i_i_glide_confnum>
6

> <i_i_glide_posenum>
74

> <r_i_glide_eff_state_penalty>
0

> <s_user_duplicate_titles>
CHEMBL4581_lig208,402127

> <s_m_subgroup_title>
dock_pv

> <s_m_subgroupid>
dock_pv

> <b_m_subgroup_collapsed>
1

$$$$
CHEMBL4581_lig884
                    3D
 Schrodinger Suite 2021-1.
 50 52  0  0  1  0            999 V2000
   17.8593   15.0464  109.2797 C   0  0  0  0  0  0
   17.9744   14.3714  110.6918 C   0  0  0  0  0  0
   19.1785   14.7655  108.4674 C   0  0  0  0  0  0
   17.3886   13.1193  110.9566 C   0  0  0  0  0  0
   17.5181   12.5154  112.2046 C   0  0  0  0  0  0
   18.2536   13.1409  113.2048 C   0  0  0  0  0  0
   18.8710   14.3623  112.9581 C   0  0  0  0  0  0
   18.7330   14.9715  111.7132 C   0  0  0  0  0  0
   20.1101   13.8008  108.8983 C   0  0  0  0  0  0
   21.2528   13.5136  108.1586 C   0  0  0  0  0  0
   21.5181   14.1664  106.9586 C   0  0  0  0  0  0
   20.6275   15.1552  106.5313 C   0  0  0  0  0  0
   19.4779   15.4440  107.2629 C   0  0  0  0  0  0
   16.5921   14.5341  108.5051 C   0  0  0  0  0  0
   16.6604   13.9856  107.2106 C   0  0  0  0  0  0
   15.5163   13.5602  106.5427 C   0  0  0  0  0  0
   14.2769   13.6514  107.1675 C   0  0  0  0  0  0
   14.1803   14.1583  108.4579 C   0  0  0  0  0  0
   15.3285   14.5788  109.1208 C   0  0  0  0  0  0
   17.7224   16.6207  109.4400 C   0  0  0  0  0  0
   16.6988   17.2244  110.4393 C   0  0  0  0  0  0
   16.7483   18.7610  110.5364 C   0  0  0  0  0  0
   16.2322   19.3600  109.3185 N   0  0  0  0  0  0
   18.6377   16.3618  106.7376 F   0  0  0  0  0  0
   22.6673   13.7979  106.2886 O   0  0  0  0  0  0
   23.0890   14.5459  105.1531 C   0  0  0  0  0  0
   16.8394   12.5888  110.1926 H   0  0  0  0  0  0
   17.0443   11.5620  112.3904 H   0  0  0  0  0  0
   18.3586   12.6699  114.1720 H   0  0  0  0  0  0
   19.4559   14.8368  113.7321 H   0  0  0  0  0  0
   19.2336   15.9109  111.5459 H   0  0  0  0  0  0
   19.9652   13.2245  109.7981 H   0  0  0  0  0  0
   21.9434   12.7620  108.5093 H   0  0  0  0  0  0
   20.7906   15.6947  105.6125 H   0  0  0  0  0  0
   17.5949   13.8679  106.6832 H   0  0  0  0  0  0
   15.5943   13.1456  105.5471 H   0  0  0  0  0  0
   13.3903   13.3110  106.6525 H   0  0  0  0  0  0
   13.2173   14.2085  108.9487 H   0  0  0  0  0  0
   15.2274   14.9186  110.1371 H   0  0  0  0  0  0
   18.7016   17.0396  109.6799 H   0  0  0  0  0  0
   17.4614   17.0577  108.4796 H   0  0  0  0  0  0
   15.6809   16.9618  110.1621 H   0  0  0  0  0  0
   16.8491   16.8150  111.4344 H   0  0  0  0  0  0
   16.1299   19.0963  111.3691 H   0  0  0  0  0  0
   17.7597   19.1300  110.7277 H   0  0  0  0  0  0
   16.2329   20.3677  109.4069 H   0  0  0  0  0  0
   16.8391   19.1365  108.5415 H   0  0  0  0  0  0
   23.9309   14.0384  104.6885 H   0  0  0  0  0  0
   22.3174   14.6254  104.3922 H   0  0  0  0  0  0
   23.4096   15.5475  105.4392 H   0  0  0  0  0  0
  1  2  1  0  0  0
  1  3  1  0  0  0
  1 14  1  0  0  0
  1 20  1  0  0  0
  2  4  2  0  0  0
  2  8  1  0  0  0
  3  9  2  0  0  0
  3 13  1  0  0  0
  4  5  1  0  0  0
  4 27  1  0  0  0
  5  6  2  0  0  0
  5 28  1  0  0  0
  6  7  1  0  0  0
  6 29  1  0  0  0
  7  8  2  0  0  0
  7 30  1  0  0  0
  8 31  1  0  0  0
  9 10  1  0  0  0
  9 32  1  0  0  0
 10 11  2  0  0  0
 10 33  1  0  0  0
 11 12  1  0  0  0
 11 25  1  0  0  0
 12 13  2  0  0  0
 12 34  1  0  0  0
 13 24  1  0  0  0
 14 15  2  0  0  0
 14 19  1  0  0  0
 15 16  1  0  0  0
 15 35  1  0  0  0
 16 17  2  0  0  0
 16 36  1  0  0  0
 17 18  1  0  0  0
 17 37  1  0  0  0
 18 19  2  0  0  0
 18 38  1  0  0  0
 19 39  1  0  0  0
 20 21  1  0  0  0
 20 40  1  0  0  0
 20 41  1  0  0  0
 21 22  1  0  0  0
 21 42  1  0  0  0
 21 43  1  0  0  0
 22 23  1  0  0  0
 22 44  1  0  0  0
 22 45  1  0  0  0
 23 46  1  0  0  0
 23 47  1  0  0  0
 25 26  1  0  0  0
 26 48  1  0  0  0
 26 49  1  0  0  0
 26 50  1  0  0  0
M  END
> <s_m_entry_id>
429

> <s_m_entry_name>
dock_pv.428

> <s_m_Source_Path>
/home/csk/Desktop/cluster/DUD-E-result/kif11

> <s_m_Source_File>
dock_pv.maegz

> <i_m_Source_File_Index>
428

> <chembl_id>
CHEMBL2325416

> <chembl_pref_name>
None

> <i_lp_mmshare_version>
53161

> <i_f3d_flags>
0

> <r_lp_tautomer_probability>
1

> <s_lp_Force_Field>
OPLS_2005

> <r_lp_Energy>
35.162617

> <b_lp_Chiralities_Consistent>
1

> <s_lp_Variant>
CHEMBL4581_lig884-1

> <s_i_glide_gridfile>
glide-grid_3cjo

> <i_i_glide_lignum>
1276

> <i_i_glide_rotatable_bonds>
7

> <r_i_docking_score>
-7.31749864106085

> <r_i_glide_ligand_efficiency>
-0.281442255425417

> <r_i_glide_ligand_efficiency_sa>
-0.833771574275999

> <r_i_glide_ligand_efficiency_ln>
-1.7184905451817

> <r_i_glide_gscore>
-7.31749864106085

> <r_i_glide_lipo>
-4.60040777020697

> <r_i_glide_hbond>
0

> <r_i_glide_metal>
0

> <r_i_glide_rewards>
-1.33121192120899

> <r_i_glide_evdw>
-41.9777145385742

> <r_i_glide_ecoul>
-0.446556568145752

> <r_i_glide_erotb>
0.779990262505683

> <r_i_glide_esite>
0

> <r_i_glide_emodel>
-57.1785968705654

> <r_i_glide_energy>
-42.42427110672

> <r_i_glide_einternal>
6.8410267829895

> <i_i_glide_confnum>
19

> <i_i_glide_posenum>
392

> <r_i_glide_eff_state_penalty>
0

> <s_user_duplicate_titles>
CHEMBL4581_lig884

> <s_m_subgroup_title>
dock_pv

> <s_m_subgroupid>
dock_pv

> <b_m_subgroup_collapsed>
1

$$$$
CHEMBL4581_lig304
                    3D
 Schrodinger Suite 2021-1.
 46 49  0  0  1  0            999 V2000
   18.7191   15.9660  109.2805 N   0  0  0  0  0  0
   17.4128   14.2416  108.7012 C   0  0  0  0  0  0
   18.1280   15.3220  108.2258 C   0  0  0  0  0  0
   18.2295   15.7550  106.7612 C   0  0  2  0  0  0
   17.3019   14.9149  105.9535 N   0  0  0  0  0  0
   17.2112   13.4935  106.3434 C   0  0  0  0  0  0
   16.5858   13.3937  107.7572 C   0  0  0  0  0  0
   18.5369   15.2454  110.4398 C   0  0  0  0  0  0
   17.6904   14.1435  110.1068 C   0  0  0  0  0  0
   17.3287   13.2424  111.1198 C   0  0  0  0  0  0
   17.8214   13.4438  112.4082 C   0  0  0  0  0  0
   18.6615   14.5149  112.7003 C   0  0  0  0  0  0
   19.0335   15.4468  111.7313 C   0  0  0  0  0  0
   19.6899   15.7643  106.2779 C   0  0  0  0  0  0
   20.1508   16.7740  105.4273 C   0  0  0  0  0  0
   21.4764   16.7931  104.9888 C   0  0  0  0  0  0
   22.3421   15.7635  105.3522 C   0  0  0  0  0  0
   21.8822   14.7267  106.1577 C   0  0  0  0  0  0
   20.5771   14.7451  106.6413 C   0  0  0  0  0  0
   16.8047   15.3697  104.7703 C   0  0  0  0  0  0
   17.0972   16.4767  104.3107 O   0  0  0  0  0  0
   15.7263   14.5675  104.0107 C   0  0  0  0  0  0
   16.2717   13.8254  102.7702 C   0  0  0  0  0  0
   16.7105   14.7618  101.7501 N   0  0  0  0  0  0
   22.7100   13.6868  106.4737 O   0  0  0  0  0  0
   17.3617   12.3637  113.6686 Cl  0  0  0  0  0  0
   19.2664   16.8055  109.1563 H   0  0  0  0  0  0
   17.8611   16.7632  106.6808 H   0  0  0  0  0  0
   18.2443   13.1618  106.3861 H   0  0  0  0  0  0
   16.7457   12.8331  105.6129 H   0  0  0  0  0  0
   15.5346   13.6830  107.7491 H   0  0  0  0  0  0
   16.6207   12.3618  108.0880 H   0  0  0  0  0  0
   16.6869   12.4005  110.9045 H   0  0  0  0  0  0
   19.0255   14.6339  113.7104 H   0  0  0  0  0  0
   19.6784   16.2795  111.9730 H   0  0  0  0  0  0
   19.4859   17.5620  105.1110 H   0  0  0  0  0  0
   21.8216   17.5843  104.3400 H   0  0  0  0  0  0
   23.3566   15.7596  104.9871 H   0  0  0  0  0  0
   20.2470   13.9478  107.2862 H   0  0  0  0  0  0
   14.9423   15.2641  103.7084 H   0  0  0  0  0  0
   15.2136   13.8717  104.6727 H   0  0  0  0  0  0
   15.4992   13.1802  102.3484 H   0  0  0  0  0  0
   17.1069   13.1773  103.0368 H   0  0  0  0  0  0
   15.8984   15.1924  101.3295 H   0  0  0  0  0  0
   17.1764   15.5187  102.2357 H   0  0  0  0  0  0
   23.5474   13.7340  106.0086 H   0  0  0  0  0  0
  1  8  1  0  0  0
  1  3  1  0  0  0
  1 27  1  0  0  0
  2  7  1  0  0  0
  2  9  1  0  0  0
  2  3  2  0  0  0
  3  4  1  0  0  0
  4  5  1  0  0  0
  4 14  1  0  0  0
  4 28  1  0  0  0
  5  6  1  0  0  0
  5 20  1  0  0  0
  6  7  1  0  0  0
  6 29  1  0  0  0
  6 30  1  0  0  0
  7 31  1  0  0  0
  7 32  1  0  0  0
  8 13  1  0  0  0
  8  9  2  0  0  0
  9 10  1  0  0  0
 10 11  2  0  0  0
 10 33  1  0  0  0
 11 12  1  0  0  0
 11 26  1  0  0  0
 12 13  2  0  0  0
 12 34  1  0  0  0
 13 35  1  0  0  0
 14 15  2  0  0  0
 14 19  1  0  0  0
 15 16  1  0  0  0
 15 36  1  0  0  0
 16 17  2  0  0  0
 16 37  1  0  0  0
 17 18  1  0  0  0
 17 38  1  0  0  0
 18 19  2  0  0  0
 18 25  1  0  0  0
 19 39  1  0  0  0
 20 21  2  0  0  0
 20 22  1  0  0  0
 22 23  1  0  0  0
 22 40  1  0  0  0
 22 41  1  0  0  0
 23 24  1  0  0  0
 23 42  1  0  0  0
 23 43  1  0  0  0
 24 44  1  0  0  0
 24 45  1  0  0  0
 25 46  1  0  0  0
M  END
> <s_m_entry_id>
430

> <s_m_entry_name>
dock_pv.429

> <s_m_Source_Path>
/home/csk/Desktop/cluster/DUD-E-result/kif11

> <s_m_Source_File>
dock_pv.maegz

> <i_m_Source_File_Index>
429

> <chembl_id>
CHEMBL609588

> <chembl_pref_name>
None

> <i_lp_mmshare_version>
53161

> <i_f3d_flags>
0

> <r_lp_tautomer_probability>
0.999999999997365

> <s_lp_Force_Field>
OPLS_2005

> <r_lp_Energy>
20.634092

> <b_lp_Chiralities_Consistent>
1

> <s_lp_Variant>
CHEMBL4581_lig304-1

> <s_i_glide_gridfile>
glide-grid_3cjo

> <i_i_glide_lignum>
446

> <i_i_glide_rotatable_bonds>
5

> <r_i_docking_score>
-7.31716360947273

> <r_i_glide_ligand_efficiency>
-0.281429369595105

> <r_i_glide_ligand_efficiency_sa>
-0.833733400054403

> <r_i_glide_ligand_efficiency_ln>
-1.71841186411256

> <r_i_glide_gscore>
-7.31716360947273

> <r_i_glide_lipo>
-3.86843624846036

> <r_i_glide_hbond>
-0.32

> <r_i_glide_metal>
0

> <r_i_glide_rewards>
-0.953517764756297

> <r_i_glide_evdw>
-40.9971542358398

> <r_i_glide_ecoul>
-3.37692356109619

> <r_i_glide_erotb>
0.42297454988372

> <r_i_glide_esite>
-0.041787900183376

> <r_i_glide_emodel>
-61.0794337694992

> <r_i_glide_energy>
-44.374077796936

> <r_i_glide_einternal>
3.47539830207825

> <i_i_glide_confnum>
8

> <i_i_glide_posenum>
352

> <r_i_glide_eff_state_penalty>
0

> <s_user_duplicate_titles>
CHEMBL4581_lig304,591056

> <s_m_subgroup_title>
dock_pv

> <s_m_subgroupid>
dock_pv

> <b_m_subgroup_collapsed>
1

$$$$
CHEMBL4581_lig648
                    3D
 Schrodinger Suite 2021-1.
 29 30  0  0  1  0            999 V2000
   18.7614   15.0518  108.9413 N   0  0  0  0  0  0
   19.8364   14.8753  108.0662 C   0  0  0  0  0  0
   20.0079   15.8247  107.0645 C   0  0  0  0  0  0
   21.0305   15.6975  106.1237 C   0  0  0  0  0  0
   21.8718   14.5772  106.1692 C   0  0  0  0  0  0
   21.7096   13.6220  107.1799 C   0  0  0  0  0  0
   20.7181   13.7917  108.1529 C   0  0  0  0  0  0
   18.2472   14.1380  109.8567 C   0  0  0  0  0  0
   18.6877   14.1646  111.1752 C   0  0  0  0  0  0
   18.1476   13.2796  112.1162 C   0  0  0  0  0  0
   17.1631   12.3710  111.7210 C   0  0  0  0  0  0
   16.7180   12.3620  110.4044 C   0  0  0  0  0  0
   17.2590   13.2363  109.4662 C   0  0  0  0  0  0
   18.5849   13.3217  113.5675 C   0  0  0  0  0  0
   19.5041   14.2709  113.7591 F   0  0  0  0  0  0
   19.0948   12.1577  113.9407 F   0  0  0  0  0  0
   17.5176   13.5621  114.3227 F   0  0  0  0  0  0
   21.1864   16.7296  105.0880 N   0  3  0  0  0  0
   20.1662   17.1620  104.5634 O   0  0  0  0  0  0
   22.3180   17.0910  104.7979 O   0  5  0  0  0  0
   18.2111   15.8866  108.8046 H   0  0  0  0  0  0
   19.3414   16.6751  107.0140 H   0  0  0  0  0  0
   22.6488   14.4474  105.4286 H   0  0  0  0  0  0
   22.3596   12.7602  107.2127 H   0  0  0  0  0  0
   20.5987   13.0502  108.9297 H   0  0  0  0  0  0
   19.4424   14.8853  111.4588 H   0  0  0  0  0  0
   16.7224   11.6875  112.4350 H   0  0  0  0  0  0
   15.9418   11.6722  110.1205 H   0  0  0  0  0  0
   16.9072   13.2158  108.4442 H   0  0  0  0  0  0
  1  2  1  0  0  0
  1  8  1  0  0  0
  1 21  1  0  0  0
  2  3  1  0  0  0
  2  7  2  0  0  0
  3  4  2  0  0  0
  3 22  1  0  0  0
  4  5  1  0  0  0
  4 18  1  0  0  0
  5  6  2  0  0  0
  5 23  1  0  0  0
  6  7  1  0  0  0
  6 24  1  0  0  0
  7 25  1  0  0  0
  8  9  1  0  0  0
  8 13  2  0  0  0
  9 10  2  0  0  0
  9 26  1  0  0  0
 10 11  1  0  0  0
 10 14  1  0  0  0
 11 12  2  0  0  0
 11 27  1  0  0  0
 12 13  1  0  0  0
 12 28  1  0  0  0
 13 29  1  0  0  0
 14 15  1  0  0  0
 14 16  1  0  0  0
 14 17  1  0  0  0
 18 19  2  0  0  0
 18 20  1  0  0  0
M  CHG  2  18   1  20  -1
M  END
> <s_m_entry_id>
431

> <s_m_entry_name>
dock_pv.430

> <s_m_Source_Path>
/home/csk/Desktop/cluster/DUD-E-result/kif11

> <s_m_Source_File>
dock_pv.maegz

> <i_m_Source_File_Index>
430

> <chembl_id>
CHEMBL3288967

> <chembl_pref_name>
None

> <i_lp_mmshare_version>
53161

> <i_f3d_flags>
0

> <r_lp_tautomer_probability>
1

> <s_lp_Force_Field>
OPLS_2005

> <r_lp_Energy>
17.45437

> <b_lp_Chiralities_Consistent>
1

> <s_lp_Variant>
CHEMBL4581_lig648-1

> <s_i_glide_gridfile>
glide-grid_3cjo

> <i_i_glide_lignum>
986

> <i_i_glide_rotatable_bonds>
4

> <r_i_docking_score>
-7.31711016742489

> <r_i_glide_ligand_efficiency>
-0.365855508371245

> <r_i_glide_ligand_efficiency_sa>
-0.99308463605952

> <r_i_glide_ligand_efficiency_ln>
-1.83123134046134

> <r_i_glide_gscore>
-7.31711016742489

> <r_i_glide_lipo>
-3.40959473614411

> <r_i_glide_hbond>
0

> <r_i_glide_metal>
0

> <r_i_glide_rewards>
-2.62868021235813

> <r_i_glide_evdw>
-30.939302444458

> <r_i_glide_ecoul>
-1.24083817005157

> <r_i_glide_erotb>
0.454255628807985

> <r_i_glide_esite>
0

> <r_i_glide_emodel>
-41.7768065763899

> <r_i_glide_energy>
-32.1801406145096

> <r_i_glide_einternal>
9.01535034179688

> <i_i_glide_confnum>
2

> <i_i_glide_posenum>
286

> <r_i_glide_eff_state_penalty>
0

> <s_user_duplicate_titles>
CHEMBL4581_lig648

> <s_m_subgroup_title>
dock_pv

> <s_m_subgroupid>
dock_pv

> <b_m_subgroup_collapsed>
1

$$$$
CHEMBL4581_lig449
                    3D
 Schrodinger Suite 2021-1.
 63 66  0  0  1  0            999 V2000
   16.8535   14.6407  109.9913 C   0  0  0  0  0  0
   15.9179   13.3606  109.0167 S   0  0  0  0  0  0
   17.4018   14.0406  111.3357 C   0  0  0  0  0  0
   18.0642   14.9220  109.0927 C   0  0  0  0  0  0
   15.9788   15.9302  110.2218 C   0  0  0  0  0  0
   18.1791   16.1066  108.3586 C   0  0  0  0  0  0
   19.2755   16.3088  107.5529 C   0  0  0  0  0  0
   20.2768   15.3444  107.4715 C   0  0  0  0  0  0
   20.1615   14.1565  108.1945 C   0  0  0  0  0  0
   19.0616   13.9462  108.9932 C   0  0  0  0  0  0
   17.0382   12.7636  111.7965 C   0  0  0  0  0  0
   17.5184   12.2706  113.0016 C   0  0  0  0  0  0
   18.4528   12.9942  113.7316 C   0  0  0  0  0  0
   18.9214   14.2085  113.2445 C   0  0  0  0  0  0
   18.4031   14.7200  112.0590 C   0  0  0  0  0  0
   16.5388   17.0716  110.8253 C   0  0  0  0  0  0
   15.8209   18.2552  110.9589 C   0  0  0  0  0  0
   14.5105   18.3225  110.5066 C   0  0  0  0  0  0
   13.9251   17.2176  109.9031 C   0  0  0  0  0  0
   14.6548   16.0419  109.7588 C   0  0  0  0  0  0
   15.7756   14.0423  107.3233 C   0  0  0  0  0  0
   14.4085   13.7417  106.6686 C   0  0  1  0  0  0
   14.1480   14.7189  105.4947 C   0  0  0  0  0  0
   13.5513   15.8704  105.9250 O   0  0  0  0  0  0
   14.4878   14.4897  104.3328 O   0  0  0  0  0  0
   14.3182   12.3621  106.1589 N   0  0  0  0  0  0
   21.4942   15.6216  106.6171 C   0  0  0  0  0  0
   22.4204   14.3816  106.4282 C   0  0  0  0  0  0
   23.6129   14.7682  105.5779 C   0  0  0  0  0  0
   23.1086   15.1601  104.2051 C   0  0  0  0  0  0
   22.3150   16.4776  104.3186 C   0  0  0  0  0  0
   21.1429   16.3674  105.3069 C   0  0  0  0  0  0
   17.4264   16.8789  108.3742 H   0  0  0  0  0  0
   19.3401   17.2313  107.0058 H   0  0  0  0  0  0
   20.9024   13.3741  108.1625 H   0  0  0  0  0  0
   18.9831   13.0099  109.5275 H   0  0  0  0  0  0
   16.3183   12.1479  111.2788 H   0  0  0  0  0  0
   17.1588   11.3189  113.3589 H   0  0  0  0  0  0
   18.8318   12.6024  114.6646 H   0  0  0  0  0  0
   19.6824   14.7529  113.7824 H   0  0  0  0  0  0
   18.8300   15.6376  111.6932 H   0  0  0  0  0  0
   17.5612   17.0939  111.1550 H   0  0  0  0  0  0
   16.2822   19.1206  111.4133 H   0  0  0  0  0  0
   13.9487   19.2378  110.6216 H   0  0  0  0  0  0
   12.9049   17.2742  109.5504 H   0  0  0  0  0  0
   14.1390   15.2191  109.2946 H   0  0  0  0  0  0
   15.9251   15.1196  107.3789 H   0  0  0  0  0  0
   16.5953   13.6519  106.7177 H   0  0  0  0  0  0
   13.6233   13.8923  107.4102 H   0  0  0  0  0  0
   13.3649   15.8753  106.8651 H   0  0  0  0  0  0
   14.8426   12.2893  105.2979 H   0  0  0  0  0  0
   14.7774   11.7088  106.7967 H   0  0  0  0  0  0
   21.9563   16.4185  107.1917 H   0  0  0  0  0  0
   22.8045   13.9619  107.3593 H   0  0  0  0  0  0
   21.8736   13.5746  105.9365 H   0  0  0  0  0  0
   24.1604   15.5886  106.0424 H   0  0  0  0  0  0
   24.3180   13.9600  105.4930 H   0  0  0  0  0  0
   23.9177   15.1620  103.4829 H   0  0  0  0  0  0
   22.4589   14.3630  103.8627 H   0  0  0  0  0  0
   22.9737   17.2835  104.6488 H   0  0  0  0  0  0
   21.9178   16.7881  103.3565 H   0  0  0  0  0  0
   20.2627   15.8995  104.8785 H   0  0  0  0  0  0
   20.8632   17.4010  105.5194 H   0  0  0  0  0  0
  1  5  1  0  0  0
  1  3  1  0  0  0
  1  2  1  0  0  0
  1  4  1  0  0  0
  2 21  1  0  0  0
  3 11  2  0  0  0
  3 15  1  0  0  0
  4 10  1  0  0  0
  4  6  2  0  0  0
  5 16  2  0  0  0
  5 20  1  0  0  0
  6  7  1  0  0  0
  6 33  1  0  0  0
  7  8  2  0  0  0
  7 34  1  0  0  0
  8  9  1  0  0  0
  8 27  1  0  0  0
  9 10  2  0  0  0
  9 35  1  0  0  0
 10 36  1  0  0  0
 11 12  1  0  0  0
 11 37  1  0  0  0
 12 13  2  0  0  0
 12 38  1  0  0  0
 13 14  1  0  0  0
 13 39  1  0  0  0
 14 15  2  0  0  0
 14 40  1  0  0  0
 15 41  1  0  0  0
 16 17  1  0  0  0
 16 42  1  0  0  0
 17 18  2  0  0  0
 17 43  1  0  0  0
 18 19  1  0  0  0
 18 44  1  0  0  0
 19 20  2  0  0  0
 19 45  1  0  0  0
 20 46  1  0  0  0
 21 22  1  0  0  0
 21 47  1  0  0  0
 21 48  1  0  0  0
 22 23  1  0  0  0
 22 26  1  0  0  0
 22 49  1  0  0  0
 23 24  1  0  0  0
 23 25  2  0  0  0
 24 50  1  0  0  0
 26 51  1  0  0  0
 26 52  1  0  0  0
 27 28  1  0  0  0
 27 32  1  0  0  0
 27 53  1  0  0  0
 28 29  1  0  0  0
 28 54  1  0  0  0
 28 55  1  0  0  0
 29 30  1  0  0  0
 29 56  1  0  0  0
 29 57  1  0  0  0
 30 31  1  0  0  0
 30 58  1  0  0  0
 30 59  1  0  0  0
 31 32  1  0  0  0
 31 60  1  0  0  0
 31 61  1  0  0  0
 32 62  1  0  0  0
 32 63  1  0  0  0
M  END
> <s_m_entry_id>
432

> <s_m_entry_name>
dock_pv.431

> <s_m_Source_Path>
/home/csk/Desktop/cluster/DUD-E-result/kif11

> <s_m_Source_File>
dock_pv.maegz

> <i_m_Source_File_Index>
431

> <chembl_id>
CHEMBL1688924

> <chembl_pref_name>
None

> <i_lp_mmshare_version>
53161

> <i_f3d_flags>
0

> <r_lp_tautomer_probability>
1

> <s_lp_Force_Field>
OPLS_2005

> <r_lp_Energy>
28.540414

> <b_lp_Chiralities_Consistent>
1

> <s_lp_Variant>
CHEMBL4581_lig449-1

> <s_i_glide_gridfile>
glide-grid_3cjo

> <i_i_glide_lignum>
672

> <i_i_glide_rotatable_bonds>
9

> <r_i_docking_score>
-7.31452476829791

> <r_i_glide_ligand_efficiency>
-0.22857889900931

> <r_i_glide_ligand_efficiency_sa>
-0.725692768651869

> <r_i_glide_ligand_efficiency_ln>
-1.63792148203663

> <r_i_glide_gscore>
-7.31452476829791

> <r_i_glide_lipo>
-5.02219073570475

> <r_i_glide_hbond>
-0.32

> <r_i_glide_metal>
0

> <r_i_glide_rewards>
-0.479852452209631

> <r_i_glide_evdw>
-32.1104164123535

> <r_i_glide_ecoul>
-4.62061643600464

> <r_i_glide_erotb>
0.806131705634843

> <r_i_glide_esite>
0

> <r_i_glide_emodel>
-32.8929347611257

> <r_i_glide_energy>
-36.7310328483582

> <r_i_glide_einternal>
9.58422756195068

> <i_i_glide_confnum>
214

> <i_i_glide_posenum>
372

> <r_i_glide_eff_state_penalty>
0

> <s_user_duplicate_titles>
CHEMBL4581_lig449

> <s_m_subgroup_title>
dock_pv

> <s_m_subgroupid>
dock_pv

> <b_m_subgroup_collapsed>
1

$$$$
CHEMBL4581_lig843
                    3D
 Schrodinger Suite 2021-1.
 49 51  0  0  1  0            999 V2000
   15.7458   17.8666  109.9837 C   0  0  0  0  0  0
   14.6791   17.9915  110.9594 N   0  0  0  0  0  0
   16.9845   17.2428  110.6409 C   0  0  0  0  0  0
   18.3178   16.8364  109.4733 S   0  0  0  0  0  0
   18.3037   14.9926  109.2226 C   0  0  0  0  0  0
   16.9813   14.6907  108.4252 C   0  0  0  0  0  0
   19.5900   14.6456  108.3910 C   0  0  0  0  0  0
   18.3547   14.2821  110.6236 C   0  0  0  0  0  0
   15.7433   14.6154  109.0922 C   0  0  0  0  0  0
   14.5543   14.3634  108.4137 C   0  0  0  0  0  0
   14.5653   14.1964  107.0341 C   0  0  0  0  0  0
   15.7636   14.2785  106.3245 C   0  0  0  0  0  0
   16.9587   14.4825  107.0297 C   0  0  0  0  0  0
   19.1011   14.8281  111.6845 C   0  0  0  0  0  0
   19.0817   14.2493  112.9512 C   0  0  0  0  0  0
   18.3274   13.1015  113.1748 C   0  0  0  0  0  0
   17.6188   12.5127  112.1329 C   0  0  0  0  0  0
   17.6473   13.0901  110.8664 C   0  0  0  0  0  0
   19.9570   15.4251  107.2752 C   0  0  0  0  0  0
   21.0401   15.0808  106.4719 C   0  0  0  0  0  0
   21.8029   13.9622  106.7866 C   0  0  0  0  0  0
   21.5180   13.2225  107.9278 C   0  0  0  0  0  0
   20.4245   13.5624  108.7263 C   0  0  0  0  0  0
   15.7205   14.1191  104.8039 C   0  0  0  0  0  0
   16.8189   14.7620  104.0949 N   0  0  0  0  0  0
   15.9934   18.8475  109.5759 H   0  0  0  0  0  0
   15.3942   17.2588  109.1488 H   0  0  0  0  0  0
   14.9960   18.5582  111.7368 H   0  0  0  0  0  0
   13.8976   18.4860  110.5494 H   0  0  0  0  0  0
   16.7127   16.3572  111.2110 H   0  0  0  0  0  0
   17.3985   17.9428  111.3663 H   0  0  0  0  0  0
   15.6833   14.7555  110.1595 H   0  0  0  0  0  0
   13.6219   14.3096  108.9563 H   0  0  0  0  0  0
   13.6348   14.0156  106.5154 H   0  0  0  0  0  0
   17.8628   14.4858  106.4484 H   0  0  0  0  0  0
   19.6931   15.7196  111.5392 H   0  0  0  0  0  0
   19.6486   14.6910  113.7577 H   0  0  0  0  0  0
   18.3080   12.6543  114.1587 H   0  0  0  0  0  0
   17.0481   11.6111  112.3023 H   0  0  0  0  0  0
   17.1054   12.5958  110.0729 H   0  0  0  0  0  0
   19.3658   16.2829  106.9885 H   0  0  0  0  0  0
   21.2761   15.6697  105.5976 H   0  0  0  0  0  0
   22.6319   13.6802  106.1534 H   0  0  0  0  0  0
   22.1209   12.3621  108.1594 H   0  0  0  0  0  0
   20.2109   12.9311  109.5755 H   0  0  0  0  0  0
   15.6933   13.0575  104.5510 H   0  0  0  0  0  0
   14.7944   14.5656  104.4359 H   0  0  0  0  0  0
   17.6296   14.1422  104.1605 H   0  0  0  0  0  0
   16.5896   14.7930  103.1132 H   0  0  0  0  0  0
  1  3  1  0  0  0
  1  2  1  0  0  0
  1 26  1  0  0  0
  1 27  1  0  0  0
  2 28  1  0  0  0
  2 29  1  0  0  0
  3  4  1  0  0  0
  3 30  1  0  0  0
  3 31  1  0  0  0
  4  5  1  0  0  0
  5  7  1  0  0  0
  5  8  1  0  0  0
  5  6  1  0  0  0
  6 13  1  0  0  0
  6  9  2  0  0  0
  7 19  2  0  0  0
  7 23  1  0  0  0
  8 14  2  0  0  0
  8 18  1  0  0  0
  9 10  1  0  0  0
  9 32  1  0  0  0
 10 11  2  0  0  0
 10 33  1  0  0  0
 11 12  1  0  0  0
 11 34  1  0  0  0
 12 13  2  0  0  0
 12 24  1  0  0  0
 13 35  1  0  0  0
 14 15  1  0  0  0
 14 36  1  0  0  0
 15 16  2  0  0  0
 15 37  1  0  0  0
 16 17  1  0  0  0
 16 38  1  0  0  0
 17 18  2  0  0  0
 17 39  1  0  0  0
 18 40  1  0  0  0
 19 20  1  0  0  0
 19 41  1  0  0  0
 20 21  2  0  0  0
 20 42  1  0  0  0
 21 22  1  0  0  0
 21 43  1  0  0  0
 22 23  2  0  0  0
 22 44  1  0  0  0
 23 45  1  0  0  0
 24 25  1  0  0  0
 24 46  1  0  0  0
 24 47  1  0  0  0
 25 48  1  0  0  0
 25 49  1  0  0  0
M  END
> <s_m_entry_id>
433

> <s_m_entry_name>
dock_pv.432

> <s_m_Source_Path>
/home/csk/Desktop/cluster/DUD-E-result/kif11

> <s_m_Source_File>
dock_pv.maegz

> <i_m_Source_File_Index>
432

> <chembl_id>
CHEMBL2024121

> <chembl_pref_name>
None

> <i_lp_mmshare_version>
53161

> <i_f3d_flags>
0

> <r_lp_tautomer_probability>
1

> <s_lp_Force_Field>
OPLS_2005

> <r_lp_Energy>
24.964247

> <b_lp_Chiralities_Consistent>
1

> <s_lp_Variant>
CHEMBL4581_lig843-1

> <s_i_glide_gridfile>
glide-grid_3cjo

> <i_i_glide_lignum>
1230

> <i_i_glide_rotatable_bonds>
7

> <r_i_docking_score>
-7.31193761445289

> <r_i_glide_ligand_efficiency>
-0.292477504578116

> <r_i_glide_ligand_efficiency_sa>
-0.855209410497041

> <r_i_glide_ligand_efficiency_ln>
-1.73314833571365

> <r_i_glide_gscore>
-7.31193761445289

> <r_i_glide_lipo>
-4.27835299582774

> <r_i_glide_hbond>
-0.283771322654444

> <r_i_glide_metal>
0

> <r_i_glide_rewards>
-1.132918

> <r_i_glide_evdw>
-39.2194976806641

> <r_i_glide_ecoul>
-2.930912733078

> <r_i_glide_erotb>
0.783716498024192

> <r_i_glide_esite>
0

> <r_i_glide_emodel>
-56.8284172510478

> <r_i_glide_energy>
-42.1504104137421

> <r_i_glide_einternal>
7.63238382339478

> <i_i_glide_confnum>
189

> <i_i_glide_posenum>
251

> <r_i_glide_eff_state_penalty>
0

> <s_user_duplicate_titles>
CHEMBL4581_lig843

> <s_m_subgroup_title>
dock_pv

> <s_m_subgroupid>
dock_pv

> <b_m_subgroup_collapsed>
1

$$$$
CHEMBL4581_lig558
                    3D
 Schrodinger Suite 2021-1.
 67 71  0  0  1  0            999 V2000
   19.1160   16.5472  107.4614 N   0  0  0  0  0  0
   18.6672   16.2084  108.6266 C   0  0  0  0  0  0
   19.2726   15.1568  109.3382 N   0  0  0  0  0  0
   20.1605   14.2261  108.7861 C   0  0  0  0  0  0
   20.1400   15.8422  106.9133 C   0  0  0  0  0  0
   20.6458   14.6884  107.4966 C   0  0  0  0  0  0
   21.9180   13.9619  106.5589 S   0  0  0  0  0  0
   21.8618   15.2962  105.4490 C   0  0  0  0  0  0
   20.8487   16.1994  105.7596 C   0  0  0  0  0  0
   20.5426   13.2041  109.3585 O   0  0  0  0  0  0
   17.4494   16.9918  109.2335 C   0  0  2  0  0  0
   16.2221   16.1443  109.2039 N   0  0  0  0  0  0
   17.2494   18.4405  108.6860 C   0  0  0  0  0  0
   15.5437   15.6605  108.1092 C   0  0  0  0  0  0
   15.9775   16.0040  106.6590 C   0  0  2  0  0  0
   14.5448   14.9458  108.2376 O   0  0  0  0  0  0
   15.7153   15.8663  110.5603 C   0  0  0  0  0  0
   14.9043   17.0137  111.1919 C   0  0  0  0  0  0
   19.2105   15.1139  110.8273 C   0  0  0  0  0  0
   18.4594   13.9796  111.5184 C   0  0  0  0  0  0
   18.5193   13.9141  112.9140 C   0  0  0  0  0  0
   17.8467   12.9045  113.5967 C   0  0  0  0  0  0
   17.1187   11.9625  112.8761 C   0  0  0  0  0  0
   17.0805   12.0050  111.4847 C   0  0  0  0  0  0
   17.7311   13.0252  110.8041 C   0  0  0  0  0  0
   16.3963   19.4274  109.4938 C   0  0  0  0  0  0
   13.5742   17.3272  110.4816 C   0  0  0  0  0  0
   12.9122   18.4349  111.1427 N   0  0  0  0  0  0
   14.8598   16.6203  106.0079 O   0  0  0  0  0  0
   16.8537   15.1616  104.5557 O   0  0  0  0  0  0
   16.3990   14.7443  105.8556 C   0  0  0  0  0  0
   16.0658   16.1273  103.9513 C   0  0  0  0  0  0
   15.1160   16.8732  104.6731 C   0  0  0  0  0  0
   14.3898   17.8837  104.0425 C   0  0  0  0  0  0
   14.6332   18.1717  102.6976 C   0  0  0  0  0  0
   15.5884   17.4421  101.9829 C   0  0  0  0  0  0
   16.3045   16.4167  102.6081 C   0  0  0  0  0  0
   22.5415   15.3301  104.6104 H   0  0  0  0  0  0
   20.6297   17.0847  105.1813 H   0  0  0  0  0  0
   17.6901   17.1947  110.2740 H   0  0  0  0  0  0
   18.2245   18.8889  108.5101 H   0  0  0  0  0  0
   16.7182   18.4162  107.7553 H   0  0  0  0  0  0
   16.8023   16.6961  106.6631 H   0  0  0  0  0  0
   15.1184   14.9554  110.5501 H   0  0  0  0  0  0
   16.5485   15.6413  111.2213 H   0  0  0  0  0  0
   14.7173   16.7620  112.2258 H   0  0  0  0  0  0
   15.5279   17.8925  111.2989 H   0  0  0  0  0  0
   20.2278   15.0416  111.2083 H   0  0  0  0  0  0
   18.8714   16.0540  111.2536 H   0  0  0  0  0  0
   19.0861   14.6454  113.4718 H   0  0  0  0  0  0
   17.8860   12.8504  114.6753 H   0  0  0  0  0  0
   16.5798   11.1824  113.3937 H   0  0  0  0  0  0
   16.5215   11.2608  110.9373 H   0  0  0  0  0  0
   17.6749   13.0497  109.7253 H   0  0  0  0  0  0
   16.4245   20.4234  109.0531 H   0  0  0  0  0  0
   15.3484   19.1439  109.4840 H   0  0  0  0  0  0
   16.7273   19.5119  110.5252 H   0  0  0  0  0  0
   13.7391   17.5913  109.4365 H   0  0  0  0  0  0
   12.9113   16.4613  110.4791 H   0  0  0  0  0  0
   12.7512   18.2287  112.1183 H   0  0  0  0  0  0
   13.4933   19.2610  111.1122 H   0  0  0  0  0  0
   15.5575   14.0567  105.7483 H   0  0  0  0  0  0
   17.2280   14.2230  106.3388 H   0  0  0  0  0  0
   13.6539   18.4499  104.5944 H   0  0  0  0  0  0
   14.0852   18.9663  102.2104 H   0  0  0  0  0  0
   15.7744   17.6747  100.9440 H   0  0  0  0  0  0
   17.0481   15.8585  102.0598 H   0  0  0  0  0  0
  1  5  1  0  0  0
  1  2  2  0  0  0
  2 11  1  0  0  0
  2  3  1  0  0  0
  3 19  1  0  0  0
  3  4  1  0  0  0
  4 10  2  0  0  0
  4  6  1  0  0  0
  5  9  1  0  0  0
  5  6  2  0  0  0
  6  7  1  0  0  0
  7  8  1  0  0  0
  8  9  2  0  0  0
  8 38  1  0  0  0
  9 39  1  0  0  0
 11 12  1  0  0  0
 11 13  1  0  0  0
 11 40  1  0  0  0
 12 14  1  0  0  0
 12 17  1  0  0  0
 13 26  1  0  0  0
 13 41  1  0  0  0
 13 42  1  0  0  0
 14 15  1  0  0  0
 14 16  2  0  0  0
 15 29  1  0  0  0
 15 31  1  0  0  0
 15 43  1  0  0  0
 17 18  1  0  0  0
 17 44  1  0  0  0
 17 45  1  0  0  0
 18 27  1  0  0  0
 18 46  1  0  0  0
 18 47  1  0  0  0
 19 20  1  0  0  0
 19 48  1  0  0  0
 19 49  1  0  0  0
 20 21  2  0  0  0
 20 25  1  0  0  0
 21 22  1  0  0  0
 21 50  1  0  0  0
 22 23  2  0  0  0
 22 51  1  0  0  0
 23 24  1  0  0  0
 23 52  1  0  0  0
 24 25  2  0  0  0
 24 53  1  0  0  0
 25 54  1  0  0  0
 26 55  1  0  0  0
 26 56  1  0  0  0
 26 57  1  0  0  0
 27 28  1  0  0  0
 27 58  1  0  0  0
 27 59  1  0  0  0
 28 60  1  0  0  0
 28 61  1  0  0  0
 29 33  1  0  0  0
 30 32  1  0  0  0
 30 31  1  0  0  0
 31 62  1  0  0  0
 31 63  1  0  0  0
 32 33  2  0  0  0
 32 37  1  0  0  0
 33 34  1  0  0  0
 34 35  2  0  0  0
 34 64  1  0  0  0
 35 36  1  0  0  0
 35 65  1  0  0  0
 36 37  2  0  0  0
 36 66  1  0  0  0
 37 67  1  0  0  0
M  END
> <s_m_entry_id>
434

> <s_m_entry_name>
dock_pv.433

> <s_m_Source_Path>
/home/csk/Desktop/cluster/DUD-E-result/kif11

> <s_m_Source_File>
dock_pv.maegz

> <i_m_Source_File_Index>
433

> <chembl_id>
CHEMBL1829417

> <chembl_pref_name>
None

> <i_lp_mmshare_version>
53161

> <i_f3d_flags>
0

> <r_lp_tautomer_probability>
1

> <s_lp_Force_Field>
OPLS_2005

> <r_lp_Energy>
52.636757

> <b_lp_Chiralities_Consistent>
1

> <s_lp_Variant>
CHEMBL4581_lig558-1

> <s_i_glide_gridfile>
glide-grid_3cjo

> <i_i_glide_lignum>
842

> <i_i_glide_rotatable_bonds>
10

> <r_i_docking_score>
-7.3115375759543

> <r_i_glide_ligand_efficiency>
-0.197609123674441

> <r_i_glide_ligand_efficiency_sa>
-0.658477439200009

> <r_i_glide_ligand_efficiency_ln>
-1.58570109346435

> <r_i_glide_gscore>
-7.3115375759543

> <r_i_glide_lipo>
-4.74277332974894

> <r_i_glide_hbond>
0

> <r_i_glide_metal>
0

> <r_i_glide_rewards>
-0.592235445142669

> <r_i_glide_evdw>
-45.843635559082

> <r_i_glide_ecoul>
-1.45923101902008

> <r_i_glide_erotb>
0.534537629744424

> <r_i_glide_esite>
0

> <r_i_glide_emodel>
-49.4689856204101

> <r_i_glide_energy>
-47.3028665781021

> <r_i_glide_einternal>
7.81541538238525

> <i_i_glide_confnum>
33

> <i_i_glide_posenum>
55

> <r_i_glide_eff_state_penalty>
0

> <s_user_duplicate_titles>
CHEMBL4581_lig558

> <s_m_subgroup_title>
dock_pv

> <s_m_subgroupid>
dock_pv

> <b_m_subgroup_collapsed>
1

$$$$
CHEMBL4581_lig96
                    3D
 Schrodinger Suite 2021-1.
 67 71  0  0  1  0            999 V2000
   22.7064   14.2134  106.0700 C   0  0  0  0  0  0
   22.7158   15.3623  105.2886 C   0  0  0  0  0  0
   21.6759   16.2798  105.3897 C   0  0  0  0  0  0
   20.6243   16.0406  106.2710 C   0  0  0  0  0  0
   20.6063   14.8853  107.0706 C   0  0  0  0  0  0
   21.6622   13.9622  106.9588 C   0  0  0  0  0  0
   21.7242   12.8497  107.7280 F   0  0  0  0  0  0
   21.6814   17.3924  104.6248 F   0  0  0  0  0  0
   19.4779   14.6644  107.9871 C   0  0  0  0  0  0
   19.5232   14.0905  109.1181 N   0  0  0  0  0  0
   18.3022   14.1023  109.7215 N   0  0  0  0  0  0
   17.2718   14.7920  108.8961 C   0  0  2  0  0  0
   18.0855   15.0751  107.6188 C   0  0  0  0  0  0
   16.8021   16.1225  109.5700 C   0  0  0  0  0  0
   15.4905   16.3083  110.0322 C   0  0  0  0  0  0
   15.1117   17.5041  110.6375 C   0  0  0  0  0  0
   16.0451   18.5230  110.7988 C   0  0  0  0  0  0
   17.3564   18.3540  110.3710 C   0  0  0  0  0  0
   17.7296   17.1620  109.7609 C   0  0  0  0  0  0
   18.2546   14.0026  111.0740 C   0  0  0  0  0  0
   17.5759   12.9256  111.5103 N   0  0  0  0  0  0
   18.8308   14.7904  111.8289 O   0  0  0  0  0  0
   17.2816   12.6268  112.9153 C   0  0  0  0  0  0
   16.1147   13.7887  108.5326 C   0  0  0  0  0  0
   18.5185   12.3619  113.7835 C   0  0  0  0  0  0
   15.1073   14.2850  107.4537 C   0  0  0  0  0  0
   14.3734   13.1637  106.6841 C   0  0  0  0  0  0
   13.5042   13.6911  105.5220 C   0  0  0  0  0  0
   14.3196   14.2760  104.4538 N   0  0  2  0  0  0
   13.5386   15.0852  103.4968 C   0  0  0  0  0  0
   13.9059   14.4811  102.1166 C   0  0  2  0  0  0
   14.9839   13.2792  103.5947 C   0  0  1  0  0  0
   13.9690   13.0156  102.4848 C   0  0  0  0  0  0
   15.3933   14.7131  101.8438 C   0  0  0  0  0  0
   16.0535   13.9620  102.7497 C   0  0  0  0  0  0
   23.5184   13.5174  105.9852 H   0  0  0  0  0  0
   23.5173   15.5351  104.5929 H   0  0  0  0  0  0
   19.8443   16.7849  106.3275 H   0  0  0  0  0  0
   17.7781   14.4740  106.7621 H   0  0  0  0  0  0
   18.0206   16.1214  107.3206 H   0  0  0  0  0  0
   14.7474   15.5323  109.9456 H   0  0  0  0  0  0
   14.0984   17.6410  110.9875 H   0  0  0  0  0  0
   15.7540   19.4452  111.2800 H   0  0  0  0  0  0
   18.0835   19.1411  110.5176 H   0  0  0  0  0  0
   18.7559   17.0460  109.4474 H   0  0  0  0  0  0
   17.2402   12.2637  110.8256 H   0  0  0  0  0  0
   16.7215   13.4512  113.3570 H   0  0  0  0  0  0
   16.6219   11.7586  112.9505 H   0  0  0  0  0  0
   15.5730   13.4827  109.4273 H   0  0  0  0  0  0
   16.5731   12.8677  108.1661 H   0  0  0  0  0  0
   18.2315   12.0683  114.7931 H   0  0  0  0  0  0
   19.1179   11.5621  113.3602 H   0  0  0  0  0  0
   19.1490   13.2451  113.8815 H   0  0  0  0  0  0
   15.6214   14.9076  106.7246 H   0  0  0  0  0  0
   14.3653   14.9445  107.9016 H   0  0  0  0  0  0
   13.7210   12.6152  107.3591 H   0  0  0  0  0  0
   15.0841   12.4211  106.3186 H   0  0  0  0  0  0
   12.8612   14.4806  105.9153 H   0  0  0  0  0  0
   12.8383   12.9129  105.1428 H   0  0  0  0  0  0
   13.8474   16.1300  103.5227 H   0  0  0  0  0  0
   12.4613   15.0034  103.6535 H   0  0  0  0  0  0
   13.2267   14.7202  101.2975 H   0  0  0  0  0  0
   15.3278   12.3760  104.1012 H   0  0  0  0  0  0
   13.0189   12.6141  102.8421 H   0  0  0  0  0  0
   14.3162   12.3650  101.6787 H   0  0  0  0  0  0
   15.7885   15.3774  101.0885 H   0  0  0  0  0  0
   17.1159   13.8615  102.9239 H   0  0  0  0  0  0
  1  6  1  0  0  0
  1  2  2  0  0  0
  1 36  1  0  0  0
  2  3  1  0  0  0
  2 37  1  0  0  0
  3  4  2  0  0  0
  3  8  1  0  0  0
  4  5  1  0  0  0
  4 38  1  0  0  0
  5  9  1  0  0  0
  5  6  2  0  0  0
  6  7  1  0  0  0
  9 10  2  0  0  0
  9 13  1  0  0  0
 10 11  1  0  0  0
 11 20  1  0  0  0
 11 12  1  0  0  0
 12 24  1  0  0  0
 12 13  1  0  0  0
 12 14  1  0  0  0
 13 39  1  0  0  0
 13 40  1  0  0  0
 14 19  1  0  0  0
 14 15  2  0  0  0
 15 16  1  0  0  0
 15 41  1  0  0  0
 16 17  2  0  0  0
 16 42  1  0  0  0
 17 18  1  0  0  0
 17 43  1  0  0  0
 18 19  2  0  0  0
 18 44  1  0  0  0
 19 45  1  0  0  0
 20 21  1  0  0  0
 20 22  2  0  0  0
 21 23  1  0  0  0
 21 46  1  0  0  0
 23 25  1  0  0  0
 23 47  1  0  0  0
 23 48  1  0  0  0
 24 26  1  0  0  0
 24 49  1  0  0  0
 24 50  1  0  0  0
 25 51  1  0  0  0
 25 52  1  0  0  0
 25 53  1  0  0  0
 26 27  1  0  0  0
 26 54  1  0  0  0
 26 55  1  0  0  0
 27 28  1  0  0  0
 27 56  1  0  0  0
 27 57  1  0  0  0
 28 29  1  0  0  0
 28 58  1  0  0  0
 28 59  1  0  0  0
 29 30  1  0  0  0
 29 32  1  0  0  0
 30 31  1  0  0  0
 30 60  1  0  0  0
 30 61  1  0  0  0
 31 33  1  0  0  0
 31 34  1  0  0  0
 31 62  1  0  0  0
 32 33  1  0  0  0
 32 35  1  0  0  0
 32 63  1  0  0  0
 33 64  1  0  0  0
 33 65  1  0  0  0
 34 35  2  0  0  0
 34 66  1  0  0  0
 35 67  1  0  0  0
M  END
> <s_m_entry_id>
435

> <s_m_entry_name>
dock_pv.434

> <s_m_Source_Path>
/home/csk/Desktop/cluster/DUD-E-result/kif11

> <s_m_Source_File>
dock_pv.maegz

> <i_m_Source_File_Index>
434

> <chembl_id>
CHEMBL378497

> <chembl_pref_name>
None

> <i_lp_mmshare_version>
53161

> <i_f3d_flags>
0

> <r_lp_tautomer_probability>
1

> <s_lp_Force_Field>
OPLS_2005

> <r_lp_Energy>
93.527388

> <b_lp_Chiralities_Consistent>
1

> <s_lp_Variant>
CHEMBL4581_lig96-3

> <s_i_glide_gridfile>
glide-grid_3cjo

> <i_i_glide_lignum>
160

> <i_i_glide_rotatable_bonds>
10

> <r_i_docking_score>
-7.30399863521085

> <r_i_glide_ligand_efficiency>
-0.208685675291739

> <r_i_glide_ligand_efficiency_sa>
-0.682624681056772

> <r_i_glide_ligand_efficiency_ln>
-1.60338980394458

> <r_i_glide_gscore>
-7.30399863521085

> <r_i_glide_lipo>
-3.49418872627741

> <r_i_glide_hbond>
0

> <r_i_glide_metal>
0

> <r_i_glide_rewards>
-1.77504418148702

> <r_i_glide_evdw>
-47.9451141357422

> <r_i_glide_ecoul>
-2.30242586135864

> <r_i_glide_erotb>
0.707853858544484

> <r_i_glide_esite>
0

> <r_i_glide_emodel>
-69.6766293315151

> <r_i_glide_energy>
-50.2475399971008

> <r_i_glide_einternal>
5.25743055343628

> <i_i_glide_confnum>
3

> <i_i_glide_posenum>
305

> <r_i_glide_eff_state_penalty>
0

> <s_user_duplicate_titles>
CHEMBL4581_lig96

> <s_m_subgroup_title>
dock_pv

> <s_m_subgroupid>
dock_pv

> <b_m_subgroup_collapsed>
1

$$$$
CHEMBL4581_lig77
                    3D
 Schrodinger Suite 2021-1.
 48 50  0  0  1  0            999 V2000
   21.1181   13.6313  107.7626 C   0  0  0  0  0  0
   20.7107   14.3763  106.6679 C   0  0  0  0  0  0
   19.7504   15.3857  106.8075 C   0  0  0  0  0  0
   20.5690   13.9028  109.0036 C   0  0  0  0  0  0
   19.6485   14.9416  109.1886 C   0  0  0  0  0  0
   19.1868   15.6703  108.0700 C   0  0  0  0  0  0
   18.1397   16.7836  108.2558 C   0  0  0  0  0  0
   17.5542   16.8249  109.6118 N   0  0  0  0  0  0
   18.5273   16.6964  110.6974 C   0  0  0  0  0  0
   19.1787   15.2994  110.6052 C   0  0  1  0  0  0
   18.3797   14.1821  111.2678 C   0  0  0  0  0  0
   18.5427   13.9386  112.6361 C   0  0  0  0  0  0
   17.9083   12.8511  113.2285 C   0  0  0  0  0  0
   17.1179   12.0005  112.4667 C   0  0  0  0  0  0
   16.9341   12.2476  111.1096 C   0  0  0  0  0  0
   17.5555   13.3382  110.5121 C   0  0  0  0  0  0
   16.2172   16.8038  109.8867 C   0  0  0  0  0  0
   15.7922   16.3613  110.9586 O   0  0  0  0  0  0
   15.3561   17.2942  108.9551 N   0  0  0  0  0  0
   15.6080   18.4971  108.1560 C   0  0  0  0  0  0
   13.9754   16.8158  108.8632 C   0  0  0  0  0  0
   18.0498   12.5997  114.5586 O   0  0  0  0  0  0
   19.3586   16.1635  105.5546 C   0  0  0  0  0  0
   20.4836   17.0768  105.0409 C   0  0  0  0  0  0
   21.8501   12.8457  107.6455 H   0  0  0  0  0  0
   21.1423   14.1646  105.7011 H   0  0  0  0  0  0
   20.8953   13.3220  109.8536 H   0  0  0  0  0  0
   18.6345   17.7361  108.0733 H   0  0  0  0  0  0
   17.3611   16.6696  107.5026 H   0  0  0  0  0  0
   18.1179   16.9415  111.6782 H   0  0  0  0  0  0
   19.2815   17.4671  110.5360 H   0  0  0  0  0  0
   20.0730   15.3810  111.2174 H   0  0  0  0  0  0
   19.1733   14.5818  113.2316 H   0  0  0  0  0  0
   16.6198   11.1628  112.9356 H   0  0  0  0  0  0
   16.3178   11.5856  110.5206 H   0  0  0  0  0  0
   17.4161   13.5042  109.4536 H   0  0  0  0  0  0
   16.6014   18.9177  108.3146 H   0  0  0  0  0  0
   15.4957   18.2730  107.0949 H   0  0  0  0  0  0
   14.8868   19.2745  108.4124 H   0  0  0  0  0  0
   13.8205   15.8844  109.4106 H   0  0  0  0  0  0
   13.2875   17.5618  109.2628 H   0  0  0  0  0  0
   13.7087   16.6309  107.8222 H   0  0  0  0  0  0
   18.7134   13.1206  115.0153 H   0  0  0  0  0  0
   18.4563   16.7527  105.6955 H   0  0  0  0  0  0
   19.0818   15.4329  104.7968 H   0  0  0  0  0  0
   20.1854   17.5688  104.1188 H   0  0  0  0  0  0
   21.3968   16.5178  104.8325 H   0  0  0  0  0  0
   20.7269   17.8565  105.7623 H   0  0  0  0  0  0
  1  2  2  0  0  0
  1  4  1  0  0  0
  1 25  1  0  0  0
  2  3  1  0  0  0
  2 26  1  0  0  0
  3  6  2  0  0  0
  3 23  1  0  0  0
  4  5  2  0  0  0
  4 27  1  0  0  0
  5 10  1  0  0  0
  5  6  1  0  0  0
  6  7  1  0  0  0
  7  8  1  0  0  0
  7 28  1  0  0  0
  7 29  1  0  0  0
  8 17  1  0  0  0
  8  9  1  0  0  0
  9 10  1  0  0  0
  9 30  1  0  0  0
  9 31  1  0  0  0
 10 11  1  0  0  0
 10 32  1  0  0  0
 11 12  2  0  0  0
 11 16  1  0  0  0
 12 13  1  0  0  0
 12 33  1  0  0  0
 13 14  2  0  0  0
 13 22  1  0  0  0
 14 15  1  0  0  0
 14 34  1  0  0  0
 15 16  2  0  0  0
 15 35  1  0  0  0
 16 36  1  0  0  0
 17 18  2  0  0  0
 17 19  1  0  0  0
 19 20  1  0  0  0
 19 21  1  0  0  0
 20 37  1  0  0  0
 20 38  1  0  0  0
 20 39  1  0  0  0
 21 40  1  0  0  0
 21 41  1  0  0  0
 21 42  1  0  0  0
 22 43  1  0  0  0
 23 24  1  0  0  0
 23 44  1  0  0  0
 23 45  1  0  0  0
 24 46  1  0  0  0
 24 47  1  0  0  0
 24 48  1  0  0  0
M  END
> <s_m_entry_id>
436

> <s_m_entry_name>
dock_pv.435

> <s_m_Source_Path>
/home/csk/Desktop/cluster/DUD-E-result/kif11

> <s_m_Source_File>
dock_pv.maegz

> <i_m_Source_File_Index>
435

> <chembl_id>
CHEMBL438073

> <chembl_pref_name>
None

> <i_lp_mmshare_version>
53161

> <i_f3d_flags>
0

> <r_lp_tautomer_probability>
0.999999999997365

> <s_lp_Force_Field>
OPLS_2005

> <r_lp_Energy>
47.107426

> <b_lp_Chiralities_Consistent>
1

> <s_lp_Variant>
CHEMBL4581_lig77-2

> <s_i_glide_gridfile>
glide-grid_3cjo

> <i_i_glide_lignum>
120

> <i_i_glide_rotatable_bonds>
5

> <r_i_docking_score>
-7.29887181343665

> <r_i_glide_ligand_efficiency>
-0.304119658893194

> <r_i_glide_ligand_efficiency_sa>
-0.877232893792191

> <r_i_glide_ligand_efficiency_ln>
-1.74695494835901

> <r_i_glide_gscore>
-7.29887181343665

> <r_i_glide_lipo>
-4.31613765202198

> <r_i_glide_hbond>
-0.012913293502771

> <r_i_glide_metal>
0

> <r_i_glide_rewards>
-1.58490543097656

> <r_i_glide_evdw>
-33.3067398071289

> <r_i_glide_ecoul>
-0.503038227558136

> <r_i_glide_erotb>
0.355877287554827

> <r_i_glide_esite>
0

> <r_i_glide_emodel>
-48.3607112588139

> <r_i_glide_energy>
-33.809778034687

> <r_i_glide_einternal>
2.22057771682739

> <i_i_glide_confnum>
20

> <i_i_glide_posenum>
78

> <r_i_glide_eff_state_penalty>
0

> <s_user_duplicate_titles>
CHEMBL4581_lig77,344347

> <s_m_subgroup_title>
dock_pv

> <s_m_subgroupid>
dock_pv

> <b_m_subgroup_collapsed>
1

$$$$
CHEMBL4581_lig894
                    3D
 Schrodinger Suite 2021-1.
 56 58  0  0  1  0            999 V2000
   17.7355   14.5669  108.8665 C   0  0  1  0  0  0
   17.8125   13.9434  110.2956 C   0  0  0  0  0  0
   17.1651   16.0030  109.1007 C   0  0  0  0  0  0
   17.0419   12.8350  110.6869 C   0  0  0  0  0  0
   17.1211   12.3377  111.9825 C   0  0  0  0  0  0
   17.9953   12.9128  112.8997 C   0  0  0  0  0  0
   18.7702   14.0080  112.5336 C   0  0  0  0  0  0
   18.6787   14.5146  111.2439 C   0  0  0  0  0  0
   18.0233   17.0870  109.3409 C   0  0  0  0  0  0
   17.5175   18.3573  109.5817 C   0  0  0  0  0  0
   16.1483   18.5967  109.5530 C   0  0  0  0  0  0
   15.2776   17.5261  109.3196 C   0  0  0  0  0  0
   15.7813   16.2456  109.1106 C   0  0  0  0  0  0
   19.1364   14.5595  108.1713 C   0  0  0  0  0  0
   20.1447   13.6568  108.5590 C   0  0  0  0  0  0
   21.3297   13.5620  107.8325 C   0  0  0  0  0  0
   21.5179   14.3620  106.7106 C   0  0  0  0  0  0
   20.5700   15.3122  106.3529 C   0  0  0  0  0  0
   19.3920   15.4126  107.0838 C   0  0  0  0  0  0
   16.7907   13.7283  107.9072 C   0  0  0  0  0  0
   16.5170   14.3093  106.4869 C   0  0  0  0  0  0
   15.2726   13.7896  105.7191 C   0  0  1  0  0  0
   15.3988   12.3620  105.4586 N   0  0  0  0  0  0
   18.0956   12.3625  114.3050 C   0  0  0  0  0  0
   15.7495   19.9011  109.7591 O   0  0  0  0  0  0
   14.3613   20.2118  109.7788 C   0  0  0  0  0  0
   13.8914   14.1581  106.3300 C   0  0  0  0  0  0
   13.7918   15.4729  106.5276 F   0  0  0  0  0  0
   12.9023   13.8119  105.5045 F   0  0  0  0  0  0
   13.6484   13.5631  107.4987 F   0  0  0  0  0  0
   16.3660   12.3318  110.0155 H   0  0  0  0  0  0
   16.5062   11.4988  112.2694 H   0  0  0  0  0  0
   19.4470   14.4639  113.2414 H   0  0  0  0  0  0
   19.2997   15.3573  110.9826 H   0  0  0  0  0  0
   19.0961   16.9545  109.3625 H   0  0  0  0  0  0
   18.2007   19.1619  109.7971 H   0  0  0  0  0  0
   14.2076   17.6684  109.2995 H   0  0  0  0  0  0
   15.0683   15.4515  108.9589 H   0  0  0  0  0  0
   20.0005   12.9715  109.3813 H   0  0  0  0  0  0
   22.0841   12.8422  108.1139 H   0  0  0  0  0  0
   22.4240   14.2656  106.1304 H   0  0  0  0  0  0
   20.7361   15.9498  105.4966 H   0  0  0  0  0  0
   18.6537   16.1339  106.7675 H   0  0  0  0  0  0
   17.2017   12.7246  107.7832 H   0  0  0  0  0  0
   15.8333   13.5661  108.3907 H   0  0  0  0  0  0
   16.4357   15.3942  106.5387 H   0  0  0  0  0  0
   17.3910   14.1180  105.8624 H   0  0  0  0  0  0
   15.2999   14.2697  104.7394 H   0  0  0  0  0  0
   15.5181   11.8327  106.3212 H   0  0  0  0  0  0
   14.5501   12.0091  105.0381 H   0  0  0  0  0  0
   17.1372   11.9672  114.6457 H   0  0  0  0  0  0
   18.8576   11.5826  114.3605 H   0  0  0  0  0  0
   18.3655   13.1612  114.9918 H   0  0  0  0  0  0
   14.2349   21.2777  109.9706 H   0  0  0  0  0  0
   13.8869   19.9887  108.8217 H   0  0  0  0  0  0
   13.8417   19.6703  110.5710 H   0  0  0  0  0  0
  1  2  1  0  0  0
  1  3  1  0  0  0
  1 14  1  0  0  0
  1 20  1  0  0  0
  2  4  2  0  0  0
  2  8  1  0  0  0
  3  9  2  0  0  0
  3 13  1  0  0  0
  4  5  1  0  0  0
  4 31  1  0  0  0
  5  6  2  0  0  0
  5 32  1  0  0  0
  6  7  1  0  0  0
  6 24  1  0  0  0
  7  8  2  0  0  0
  7 33  1  0  0  0
  8 34  1  0  0  0
  9 10  1  0  0  0
  9 35  1  0  0  0
 10 11  2  0  0  0
 10 36  1  0  0  0
 11 12  1  0  0  0
 11 25  1  0  0  0
 12 13  2  0  0  0
 12 37  1  0  0  0
 13 38  1  0  0  0
 14 15  2  0  0  0
 14 19  1  0  0  0
 15 16  1  0  0  0
 15 39  1  0  0  0
 16 17  2  0  0  0
 16 40  1  0  0  0
 17 18  1  0  0  0
 17 41  1  0  0  0
 18 19  2  0  0  0
 18 42  1  0  0  0
 19 43  1  0  0  0
 20 21  1  0  0  0
 20 44  1  0  0  0
 20 45  1  0  0  0
 21 22  1  0  0  0
 21 46  1  0  0  0
 21 47  1  0  0  0
 22 23  1  0  0  0
 22 27  1  0  0  0
 22 48  1  0  0  0
 23 49  1  0  0  0
 23 50  1  0  0  0
 24 51  1  0  0  0
 24 52  1  0  0  0
 24 53  1  0  0  0
 25 26  1  0  0  0
 26 54  1  0  0  0
 26 55  1  0  0  0
 26 56  1  0  0  0
 27 28  1  0  0  0
 27 29  1  0  0  0
 27 30  1  0  0  0
M  END
> <s_m_entry_id>
437

> <s_m_entry_name>
dock_pv.436

> <s_m_Source_Path>
/home/csk/Desktop/cluster/DUD-E-result/kif11

> <s_m_Source_File>
dock_pv.maegz

> <i_m_Source_File_Index>
436

> <chembl_id>
CHEMBL2325428

> <chembl_pref_name>
None

> <i_lp_mmshare_version>
53161

> <i_f3d_flags>
0

> <r_lp_tautomer_probability>
1

> <s_lp_Force_Field>
OPLS_2005

> <r_lp_Energy>
37.363212

> <b_lp_Chiralities_Consistent>
1

> <s_lp_Variant>
CHEMBL4581_lig894-4

> <s_i_glide_gridfile>
glide-grid_3cjo

> <i_i_glide_lignum>
1300

> <i_i_glide_rotatable_bonds>
8

> <r_i_docking_score>
-7.28831866272585

> <r_i_glide_ligand_efficiency>
-0.242943955424195

> <r_i_glide_ligand_efficiency_sa>
-0.754883354563228

> <r_i_glide_ligand_efficiency_ln>
-1.65598541276359

> <r_i_glide_gscore>
-7.28831866272585

> <r_i_glide_lipo>
-4.45402642703333

> <r_i_glide_hbond>
-0.32

> <r_i_glide_metal>
0

> <r_i_glide_rewards>
-0.712133138101834

> <r_i_glide_evdw>
-38.6083564758301

> <r_i_glide_ecoul>
-3.76084876060486

> <r_i_glide_erotb>
0.692386040291556

> <r_i_glide_esite>
0

> <r_i_glide_emodel>
-59.4890210402546

> <r_i_glide_energy>
-42.3692052364349

> <r_i_glide_einternal>
2.51075267791748

> <i_i_glide_confnum>
67

> <i_i_glide_posenum>
234

> <r_i_glide_eff_state_penalty>
0

> <s_user_duplicate_titles>
CHEMBL4581_lig894

> <s_m_subgroup_title>
dock_pv

> <s_m_subgroupid>
dock_pv

> <b_m_subgroup_collapsed>
1

$$$$
CHEMBL4581_lig695
                    3D
 Schrodinger Suite 2021-1.
 57 58  0  0  1  0            999 V2000
   19.0645   16.3619  104.9137 O   0  0  0  0  0  0
   20.2591   16.4489  105.7563 S   0  0  0  0  0  0
   21.3175   17.4179  105.4607 O   0  0  0  0  0  0
   19.6946   16.7587  107.3592 N   0  0  2  0  0  0
   17.8800   13.9562  111.1897 C   0  0  0  0  0  0
   17.5930   14.5310  109.7700 C   0  0  1  0  0  0
   18.7449   15.4337  109.2044 C   0  0  0  0  0  0
   17.4378   13.1633  108.5809 S   0  0  0  0  0  0
   15.8436   13.7993  108.1186 C   0  0  0  0  0  0
   15.3761   14.7685  108.7910 N   0  0  0  0  0  0
   16.2755   15.2210  109.6991 N   0  0  0  0  0  0
   15.2363   13.1621  107.0895 N   0  0  0  0  0  0
   14.4073   13.6927  106.1564 C   0  0  0  0  0  0
   13.8793   12.7467  105.0324 C   0  0  0  0  0  0
   14.0730   14.8827  106.1317 O   0  0  0  0  0  0
   16.0028   16.3552  110.4137 C   0  0  0  0  0  0
   14.6499   17.0844  110.2143 C   0  0  0  0  0  0
   16.8100   16.8388  111.2066 O   0  0  0  0  0  0
   17.3439   12.3620  112.9460 C   0  0  0  0  0  0
   18.3388   12.9048  113.7508 C   0  0  0  0  0  0
   19.1162   13.9617  113.2877 C   0  0  0  0  0  0
   18.8915   14.4803  112.0144 C   0  0  0  0  0  0
   14.3010   11.2678  105.2269 C   0  0  0  0  0  0
   14.4416   13.2342  103.6729 C   0  0  0  0  0  0
   12.3303   12.8088  104.9900 C   0  0  0  0  0  0
   17.1185   12.8819  111.6752 C   0  0  0  0  0  0
   18.4670   16.1206  107.8513 C   0  0  0  0  0  0
   21.0477   14.7565  105.9101 C   0  0  0  0  0  0
   14.3078   18.1150  111.3065 C   0  0  0  0  0  0
   19.9210   17.6992  107.7191 H   0  0  0  0  0  0
   18.9624   16.2419  109.9021 H   0  0  0  0  0  0
   19.6567   14.8368  109.1357 H   0  0  0  0  0  0
   15.4872   12.1886  106.9617 H   0  0  0  0  0  0
   14.6879   17.5919  109.2488 H   0  0  0  0  0  0
   13.8361   16.3618  110.1578 H   0  0  0  0  0  0
   16.7341   11.5471  113.3089 H   0  0  0  0  0  0
   18.5073   12.5046  114.7393 H   0  0  0  0  0  0
   19.8920   14.3808  113.9132 H   0  0  0  0  0  0
   19.5115   15.3054  111.7034 H   0  0  0  0  0  0
   13.9175   10.6317  104.4275 H   0  0  0  0  0  0
   13.9179   10.8609  106.1591 H   0  0  0  0  0  0
   15.3862   11.1602  105.2565 H   0  0  0  0  0  0
   14.1627   14.2685  103.4587 H   0  0  0  0  0  0
   15.5334   13.1794  103.6450 H   0  0  0  0  0  0
   14.0698   12.6268  102.8469 H   0  0  0  0  0  0
   11.9594   13.8276  104.8592 H   0  0  0  0  0  0
   11.9287   12.2153  104.1659 H   0  0  0  0  0  0
   11.8862   12.4182  105.9070 H   0  0  0  0  0  0
   16.3286   12.4510  111.0776 H   0  0  0  0  0  0
   18.1229   15.4121  107.0978 H   0  0  0  0  0  0
   17.6992   16.8906  107.9371 H   0  0  0  0  0  0
   21.5180   14.5065  104.9613 H   0  0  0  0  0  0
   21.7988   14.7930  106.6960 H   0  0  0  0  0  0
   20.2740   14.0321  106.1591 H   0  0  0  0  0  0
   13.3462   18.5847  111.0992 H   0  0  0  0  0  0
   14.2248   17.6445  112.2851 H   0  0  0  0  0  0
   15.0436   18.9179  111.3576 H   0  0  0  0  0  0
  1  2  2  0  0  0
  2  3  2  0  0  0
  2  4  1  0  0  0
  2 28  1  0  0  0
  4 27  1  0  0  0
  4 30  1  0  0  0
  5  6  1  0  0  0
  5 26  2  0  0  0
  5 22  1  0  0  0
  6  7  1  0  0  0
  6 11  1  0  0  0
  6  8  1  0  0  0
  7 27  1  0  0  0
  7 31  1  0  0  0
  7 32  1  0  0  0
  8  9  1  0  0  0
  9 10  2  0  0  0
  9 12  1  0  0  0
 10 11  1  0  0  0
 11 16  1  0  0  0
 12 13  1  0  0  0
 12 33  1  0  0  0
 13 14  1  0  0  0
 13 15  2  0  0  0
 14 23  1  0  0  0
 14 24  1  0  0  0
 14 25  1  0  0  0
 16 17  1  0  0  0
 16 18  2  0  0  0
 17 29  1  0  0  0
 17 34  1  0  0  0
 17 35  1  0  0  0
 19 26  1  0  0  0
 19 20  2  0  0  0
 19 36  1  0  0  0
 20 21  1  0  0  0
 20 37  1  0  0  0
 21 22  2  0  0  0
 21 38  1  0  0  0
 22 39  1  0  0  0
 23 40  1  0  0  0
 23 41  1  0  0  0
 23 42  1  0  0  0
 24 43  1  0  0  0
 24 44  1  0  0  0
 24 45  1  0  0  0
 25 46  1  0  0  0
 25 47  1  0  0  0
 25 48  1  0  0  0
 26 49  1  0  0  0
 27 50  1  0  0  0
 27 51  1  0  0  0
 28 52  1  0  0  0
 28 53  1  0  0  0
 28 54  1  0  0  0
 29 55  1  0  0  0
 29 56  1  0  0  0
 29 57  1  0  0  0
M  END
> <s_m_entry_id>
438

> <s_m_entry_name>
dock_pv.437

> <s_m_Source_Path>
/home/csk/Desktop/cluster/DUD-E-result/kif11

> <s_m_Source_File>
dock_pv.maegz

> <i_m_Source_File_Index>
437

> <chembl_id>
CHEMBL3319303

> <chembl_pref_name>
None

> <i_lp_mmshare_version>
53161

> <i_f3d_flags>
0

> <r_lp_tautomer_probability>
1

> <s_lp_Force_Field>
OPLS_2005

> <r_lp_Energy>
25.195921

> <b_lp_Chiralities_Consistent>
1

> <s_lp_Variant>
CHEMBL4581_lig695-1

> <s_i_glide_gridfile>
glide-grid_3cjo

> <i_i_glide_lignum>
1036

> <i_i_glide_rotatable_bonds>
10

> <r_i_docking_score>
-7.27691721380185

> <r_i_glide_ligand_efficiency>
-0.250928179786271

> <r_i_glide_ligand_efficiency_sa>
-0.770930867930765

> <r_i_glide_ligand_efficiency_ln>
-1.66622951526148

> <r_i_glide_gscore>
-7.27691721380185

> <r_i_glide_lipo>
-2.88638856958544

> <r_i_glide_hbond>
-0.608

> <r_i_glide_metal>
0

> <r_i_glide_rewards>
-1.02436734808551

> <r_i_glide_evdw>
-38.6989593505859

> <r_i_glide_ecoul>
-9.92502117156982

> <r_i_glide_erotb>
0.720071724979781

> <r_i_glide_esite>
-0.054531877845908

> <r_i_glide_emodel>
-67.5744858724281

> <r_i_glide_energy>
-48.6239805221558

> <r_i_glide_einternal>
6.47680997848511

> <i_i_glide_confnum>
137

> <i_i_glide_posenum>
197

> <r_i_glide_eff_state_penalty>
0

> <s_user_duplicate_titles>
CHEMBL4581_lig695

> <s_m_subgroup_title>
dock_pv

> <s_m_subgroupid>
dock_pv

> <b_m_subgroup_collapsed>
1

$$$$
CHEMBL4581_lig299
                    3D
 Schrodinger Suite 2021-1.
 46 49  0  0  1  0            999 V2000
   18.8738   15.8420  109.4773 N   0  0  0  0  0  0
   17.5146   14.1727  108.8613 C   0  0  0  0  0  0
   18.2495   15.2516  108.4105 C   0  0  0  0  0  0
   18.3305   15.7414  106.9643 C   0  0  2  0  0  0
   17.3828   14.9416  106.1403 N   0  0  0  0  0  0
   17.2828   13.5074  106.4791 C   0  0  0  0  0  0
   16.6759   13.3594  107.8971 C   0  0  0  0  0  0
   18.6493   15.1146  110.6225 C   0  0  0  0  0  0
   17.7672   14.0504  110.2704 C   0  0  0  0  0  0
   17.3585   13.1547  111.2718 C   0  0  0  0  0  0
   17.8411   13.3240  112.5724 C   0  0  0  0  0  0
   18.7236   14.3610  112.8752 C   0  0  0  0  0  0
   19.1398   15.2837  111.9164 C   0  0  0  0  0  0
   19.7675   15.7386  106.4317 C   0  0  0  0  0  0
   20.2056   16.7636  105.5903 C   0  0  0  0  0  0
   21.5057   16.7623  105.0789 C   0  0  0  0  0  0
   22.3590   15.6968  105.3612 C   0  0  0  0  0  0
   21.9136   14.6472  106.1588 C   0  0  0  0  0  0
   20.6390   14.6832  106.7155 C   0  0  0  0  0  0
   16.7448   15.4907  105.0677 C   0  0  0  0  0  0
   16.9618   16.6438  104.6891 O   0  0  0  0  0  0
   15.6899   14.6745  104.2896 C   0  0  0  0  0  0
   16.3184   13.9601  103.2014 N   0  0  0  0  0  0
   22.7179   13.5635  106.3757 O   0  0  0  0  0  0
   17.4040   12.3621  113.6566 C   0  0  0  0  0  0
   19.4466   16.6663  109.3757 H   0  0  0  0  0  0
   17.9977   16.7699  106.9352 H   0  0  0  0  0  0
   18.3158   13.1620  106.4920 H   0  0  0  0  0  0
   16.8123   12.8802  105.7238 H   0  0  0  0  0  0
   15.6258   13.6515  107.9128 H   0  0  0  0  0  0
   16.7168   12.3161  108.1914 H   0  0  0  0  0  0
   16.6888   12.3415  111.0392 H   0  0  0  0  0  0
   19.1014   14.4610  113.8809 H   0  0  0  0  0  0
   19.8185   16.0870  112.1630 H   0  0  0  0  0  0
   19.5312   17.5663  105.3385 H   0  0  0  0  0  0
   21.8383   17.5657  104.4385 H   0  0  0  0  0  0
   23.3591   15.6681  104.9586 H   0  0  0  0  0  0
   20.3140   13.8743  107.3474 H   0  0  0  0  0  0
   14.9364   15.3547  103.8894 H   0  0  0  0  0  0
   15.1396   14.0068  104.9543 H   0  0  0  0  0  0
   17.0741   13.3823  103.5601 H   0  0  0  0  0  0
   15.6575   13.3264  102.7749 H   0  0  0  0  0  0
   22.2563   12.8262  106.7814 H   0  0  0  0  0  0
   17.8613   12.5784  114.6238 H   0  0  0  0  0  0
   16.3205   12.3623  113.7758 H   0  0  0  0  0  0
   17.6889   11.3593  113.3571 H   0  0  0  0  0  0
  1  8  1  0  0  0
  1  3  1  0  0  0
  1 26  1  0  0  0
  2  7  1  0  0  0
  2  9  1  0  0  0
  2  3  2  0  0  0
  3  4  1  0  0  0
  4  5  1  0  0  0
  4 14  1  0  0  0
  4 27  1  0  0  0
  5  6  1  0  0  0
  5 20  1  0  0  0
  6  7  1  0  0  0
  6 28  1  0  0  0
  6 29  1  0  0  0
  7 30  1  0  0  0
  7 31  1  0  0  0
  8 13  1  0  0  0
  8  9  2  0  0  0
  9 10  1  0  0  0
 10 11  2  0  0  0
 10 32  1  0  0  0
 11 12  1  0  0  0
 11 25  1  0  0  0
 12 13  2  0  0  0
 12 33  1  0  0  0
 13 34  1  0  0  0
 14 15  2  0  0  0
 14 19  1  0  0  0
 15 16  1  0  0  0
 15 35  1  0  0  0
 16 17  2  0  0  0
 16 36  1  0  0  0
 17 18  1  0  0  0
 17 37  1  0  0  0
 18 19  2  0  0  0
 18 24  1  0  0  0
 19 38  1  0  0  0
 20 21  2  0  0  0
 20 22  1  0  0  0
 22 23  1  0  0  0
 22 39  1  0  0  0
 22 40  1  0  0  0
 23 41  1  0  0  0
 23 42  1  0  0  0
 24 43  1  0  0  0
 25 44  1  0  0  0
 25 45  1  0  0  0
 25 46  1  0  0  0
M  END
> <s_m_entry_id>
439

> <s_m_entry_name>
dock_pv.438

> <s_m_Source_Path>
/home/csk/Desktop/cluster/DUD-E-result/kif11

> <s_m_Source_File>
dock_pv.maegz

> <i_m_Source_File_Index>
438

> <chembl_id>
CHEMBL595399

> <chembl_pref_name>
None

> <i_lp_mmshare_version>
53161

> <i_f3d_flags>
0

> <r_lp_tautomer_probability>
0.999999999997365

> <s_lp_Force_Field>
OPLS_2005

> <r_lp_Energy>
25.798081

> <b_lp_Chiralities_Consistent>
1

> <s_lp_Variant>
CHEMBL4581_lig299-1

> <s_i_glide_gridfile>
glide-grid_3cjo

> <i_i_glide_lignum>
436

> <i_i_glide_rotatable_bonds>
4

> <r_i_docking_score>
-7.27641664099328

> <r_i_glide_ligand_efficiency>
-0.291056665639731

> <r_i_glide_ligand_efficiency_sa>
-0.851054852242518

> <r_i_glide_ligand_efficiency_ln>
-1.72472880052605

> <r_i_glide_gscore>
-7.27641664099328

> <r_i_glide_lipo>
-4.0503530225872

> <r_i_glide_hbond>
-0.134319133852944

> <r_i_glide_metal>
0

> <r_i_glide_rewards>
-1.20635733313467

> <r_i_glide_evdw>
-38.5443382263184

> <r_i_glide_ecoul>
-1.77610051631927

> <r_i_glide_erotb>
0.33554086694091

> <r_i_glide_esite>
-0.0272960295955592

> <r_i_glide_emodel>
-55.3443508658024

> <r_i_glide_energy>
-40.3204387426376

> <r_i_glide_einternal>
4.48424673080444

> <i_i_glide_confnum>
3

> <i_i_glide_posenum>
265

> <r_i_glide_eff_state_penalty>
0

> <s_user_duplicate_titles>
CHEMBL4581_lig299,591139

> <s_m_subgroup_title>
dock_pv

> <s_m_subgroupid>
dock_pv

> <b_m_subgroup_collapsed>
1

$$$$
CHEMBL4581_lig770
                    3D
 Schrodinger Suite 2021-1.
 41 44  0  0  1  0            999 V2000
   16.7913   14.7844  108.4160 C   0  0  2  0  0  0
   15.6078   13.8391  108.0133 C   0  0  0  0  0  0
   14.2708   14.1736  108.6969 C   0  0  0  0  0  0
   13.9397   15.5448  108.5105 O   0  0  0  0  0  0
   17.6789   15.1209  106.8833 S   0  0  0  0  0  0
   19.2219   14.7462  107.6965 C   0  0  0  0  0  0
   19.1291   14.2468  108.8602 N   0  0  0  0  0  0
   17.8369   14.1598  109.2660 N   0  0  0  0  0  0
   20.4631   14.9866  106.9560 C   0  0  0  0  0  0
   20.5774   16.1455  106.1690 C   0  0  0  0  0  0
   21.6998   16.3539  105.3735 C   0  0  0  0  0  0
   22.7180   15.4084  105.3590 C   0  0  0  0  0  0
   22.6359   14.2726  106.1567 C   0  0  0  0  0  0
   21.5184   14.0552  106.9591 C   0  0  0  0  0  0
   17.6111   13.8480  110.5680 C   0  0  0  0  0  0
   18.0952   14.5090  111.4951 O   0  0  0  0  0  0
   16.7520   12.5945  110.8529 C   0  0  0  0  0  0
   21.5182   12.9627  107.7593 F   0  0  0  0  0  0
   21.7888   17.4562  104.5978 F   0  0  0  0  0  0
   16.2748   16.1409  108.9470 C   0  0  0  0  0  0
   14.8947   16.4234  108.9740 C   0  0  0  0  0  0
   14.4131   17.6486  109.4364 C   0  0  0  0  0  0
   15.3024   18.6198  109.8911 C   0  0  0  0  0  0
   16.6710   18.3631  109.8812 C   0  0  0  0  0  0
   17.1457   17.1346  109.4268 C   0  0  0  0  0  0
   17.1182   11.9641  112.1004 N   0  0  0  0  0  0
   15.8662   12.7902  108.1602 H   0  0  0  0  0  0
   15.3978   13.9079  106.9439 H   0  0  0  0  0  0
   14.3183   13.9606  109.7593 H   0  0  0  0  0  0
   13.4669   13.5622  108.2871 H   0  0  0  0  0  0
   19.7957   16.8924  106.1540 H   0  0  0  0  0  0
   23.5664   15.5503  104.7183 H   0  0  0  0  0  0
   23.4452   13.5617  106.1559 H   0  0  0  0  0  0
   15.7069   12.8783  110.9194 H   0  0  0  0  0  0
   16.8545   11.8684  110.0449 H   0  0  0  0  0  0
   13.3515   17.8470  109.4356 H   0  0  0  0  0  0
   14.9342   19.5729  110.2434 H   0  0  0  0  0  0
   17.3682   19.1171  110.2153 H   0  0  0  0  0  0
   18.2124   16.9610  109.4305 H   0  0  0  0  0  0
   16.4433   11.2463  112.3416 H   0  0  0  0  0  0
   18.0155   11.5093  112.0127 H   0  0  0  0  0  0
  1  2  1  0  0  0
  1 20  1  0  0  0
  1  8  1  0  0  0
  1  5  1  0  0  0
  2  3  1  0  0  0
  2 27  1  0  0  0
  2 28  1  0  0  0
  3  4  1  0  0  0
  3 29  1  0  0  0
  3 30  1  0  0  0
  4 21  1  0  0  0
  5  6  1  0  0  0
  6  7  2  0  0  0
  6  9  1  0  0  0
  7  8  1  0  0  0
  8 15  1  0  0  0
  9 10  2  0  0  0
  9 14  1  0  0  0
 10 11  1  0  0  0
 10 31  1  0  0  0
 11 12  2  0  0  0
 11 19  1  0  0  0
 12 13  1  0  0  0
 12 32  1  0  0  0
 13 14  2  0  0  0
 13 33  1  0  0  0
 14 18  1  0  0  0
 15 16  2  0  0  0
 15 17  1  0  0  0
 17 26  1  0  0  0
 17 34  1  0  0  0
 17 35  1  0  0  0
 20 21  2  0  0  0
 20 25  1  0  0  0
 21 22  1  0  0  0
 22 23  2  0  0  0
 22 36  1  0  0  0
 23 24  1  0  0  0
 23 37  1  0  0  0
 24 25  2  0  0  0
 24 38  1  0  0  0
 25 39  1  0  0  0
 26 40  1  0  0  0
 26 41  1  0  0  0
M  END
> <s_m_entry_id>
440

> <s_m_entry_name>
dock_pv.439

> <s_m_Source_Path>
/home/csk/Desktop/cluster/DUD-E-result/kif11

> <s_m_Source_File>
dock_pv.maegz

> <i_m_Source_File_Index>
439

> <chembl_id>
CHEMBL3402348

> <chembl_pref_name>
None

> <i_lp_mmshare_version>
53161

> <i_f3d_flags>
0

> <r_lp_tautomer_probability>
1

> <s_lp_Force_Field>
OPLS_2005

> <r_lp_Energy>
27.123418

> <b_lp_Chiralities_Consistent>
1

> <s_lp_Variant>
CHEMBL4581_lig770-1

> <s_i_glide_gridfile>
glide-grid_3cjo

> <i_i_glide_lignum>
1145

> <i_i_glide_rotatable_bonds>
3

> <r_i_docking_score>
-7.27422815208209

> <r_i_glide_ligand_efficiency>
-0.279778005849311

> <r_i_glide_ligand_efficiency_sa>
-0.82884124145529

> <r_i_glide_ligand_efficiency_ln>
-1.70832861282709

> <r_i_glide_gscore>
-7.27422815208209

> <r_i_glide_lipo>
-2.74568595030423

> <r_i_glide_hbond>
-0.176102077178488

> <r_i_glide_metal>
0

> <r_i_glide_rewards>
-2.33451630887916

> <r_i_glide_evdw>
-40.5499687194824

> <r_i_glide_ecoul>
-1.76664936542511

> <r_i_glide_erotb>
0.274572025067677

> <r_i_glide_esite>
0

> <r_i_glide_emodel>
-53.4167571128329

> <r_i_glide_energy>
-42.3166180849075

> <r_i_glide_einternal>
11.3958072662354

> <i_i_glide_confnum>
6

> <i_i_glide_posenum>
277

> <r_i_glide_eff_state_penalty>
0

> <s_user_duplicate_titles>
CHEMBL4581_lig770

> <s_m_subgroup_title>
dock_pv

> <s_m_subgroupid>
dock_pv

> <b_m_subgroup_collapsed>
1

$$$$
CHEMBL4581_lig572
                    3D
 Schrodinger Suite 2021-1.
 58 61  0  0  1  0            999 V2000
   18.9182   16.3621  107.2467 N   0  0  0  0  0  0
   18.1386   15.7049  108.0468 C   0  0  0  0  0  0
   18.5721   14.5072  108.6423 N   0  0  0  0  0  0
   19.8489   13.9620  108.4960 C   0  0  0  0  0  0
   20.0734   15.7750  106.8369 C   0  0  0  0  0  0
   20.5317   14.5802  107.3741 C   0  0  0  0  0  0
   21.9361   13.9643  106.5591 S   0  0  0  0  0  0
   21.9621   15.3754  105.5421 C   0  0  0  0  0  0
   20.8993   16.2373  105.8045 C   0  0  0  0  0  0
   20.3058   13.0497  109.1843 O   0  0  0  0  0  0
   16.7419   16.3082  108.3913 C   0  0  2  0  0  0
   15.7342   16.0822  107.2987 N   0  0  0  0  0  0
   16.8474   17.8061  108.7983 C   0  0  0  0  0  0
   14.4223   15.7512  107.5131 C   0  0  0  0  0  0
   13.8880   15.4194  108.9326 C   0  0  0  0  0  0
   13.6063   15.7301  106.5836 O   0  0  0  0  0  0
   16.1363   16.3743  105.8926 C   0  0  0  0  0  0
   16.6642   15.1869  105.0380 C   0  0  0  0  0  0
   17.6321   13.6390  109.4026 C   0  0  0  0  0  0
   17.7974   13.5530  110.9224 C   0  0  0  0  0  0
   18.5971   14.4538  111.6374 C   0  0  0  0  0  0
   18.7706   14.2936  113.0095 C   0  0  0  0  0  0
   18.1327   13.2475  113.6721 C   0  0  0  0  0  0
   17.3221   12.3610  112.9697 C   0  0  0  0  0  0
   17.1560   12.5101  111.5951 C   0  0  0  0  0  0
   15.6138   18.3524  109.5360 C   0  0  0  0  0  0
   15.9312   13.8376  105.1525 C   0  0  0  0  0  0
   16.3268   13.1615  106.3725 N   0  0  0  0  0  0
   12.5425   16.0471  109.2762 C   0  0  0  0  0  0
   12.6147   14.5786  108.9587 C   0  0  0  0  0  0
   22.7294   15.4846  104.7898 H   0  0  0  0  0  0
   20.7149   17.1526  105.2621 H   0  0  0  0  0  0
   16.4240   15.8357  109.3107 H   0  0  0  0  0  0
   17.7127   17.9594  109.4468 H   0  0  0  0  0  0
   17.0111   18.4218  107.9180 H   0  0  0  0  0  0
   14.6025   15.2619  109.7355 H   0  0  0  0  0  0
   15.2942   16.8159  105.3569 H   0  0  0  0  0  0
   16.8859   17.1581  105.8943 H   0  0  0  0  0  0
   16.6395   15.5028  103.9955 H   0  0  0  0  0  0
   17.7237   15.0261  105.2334 H   0  0  0  0  0  0
   16.5911   13.8587  109.1664 H   0  0  0  0  0  0
   17.7531   12.6197  109.0259 H   0  0  0  0  0  0
   19.1045   15.2646  111.1352 H   0  0  0  0  0  0
   19.4044   14.9723  113.5589 H   0  0  0  0  0  0
   18.2674   13.1212  114.7369 H   0  0  0  0  0  0
   16.8165   11.5608  113.4885 H   0  0  0  0  0  0
   16.5378   11.8065  111.0546 H   0  0  0  0  0  0
   15.7751   19.3861  109.8456 H   0  0  0  0  0  0
   14.7273   18.3391  108.9012 H   0  0  0  0  0  0
   15.3961   17.7707  110.4326 H   0  0  0  0  0  0
   14.8496   13.9672  105.1167 H   0  0  0  0  0  0
   16.2004   13.1985  104.3107 H   0  0  0  0  0  0
   15.8604   12.2647  106.4608 H   0  0  0  0  0  0
   17.3150   12.9522  106.3055 H   0  0  0  0  0  0
   12.0612   16.7188  108.5623 H   0  0  0  0  0  0
   12.3655   16.3644  110.3039 H   0  0  0  0  0  0
   12.4823   13.8581  109.7589 H   0  0  0  0  0  0
   12.1739   14.2158  108.0283 H   0  0  0  0  0  0
  1  2  2  0  0  0
  1  5  1  0  0  0
  2  3  1  0  0  0
  2 11  1  0  0  0
  3 19  1  0  0  0
  3  4  1  0  0  0
  4 10  2  0  0  0
  4  6  1  0  0  0
  5  9  1  0  0  0
  5  6  2  0  0  0
  6  7  1  0  0  0
  7  8  1  0  0  0
  8  9  2  0  0  0
  8 31  1  0  0  0
  9 32  1  0  0  0
 11 12  1  0  0  0
 11 13  1  0  0  0
 11 33  1  0  0  0
 12 17  1  0  0  0
 12 14  1  0  0  0
 13 26  1  0  0  0
 13 34  1  0  0  0
 13 35  1  0  0  0
 14 15  1  0  0  0
 14 16  2  0  0  0
 15 29  1  0  0  0
 15 30  1  0  0  0
 15 36  1  0  0  0
 17 18  1  0  0  0
 17 37  1  0  0  0
 17 38  1  0  0  0
 18 27  1  0  0  0
 18 39  1  0  0  0
 18 40  1  0  0  0
 19 20  1  0  0  0
 19 41  1  0  0  0
 19 42  1  0  0  0
 20 21  2  0  0  0
 20 25  1  0  0  0
 21 22  1  0  0  0
 21 43  1  0  0  0
 22 23  2  0  0  0
 22 44  1  0  0  0
 23 24  1  0  0  0
 23 45  1  0  0  0
 24 25  2  0  0  0
 24 46  1  0  0  0
 25 47  1  0  0  0
 26 48  1  0  0  0
 26 49  1  0  0  0
 26 50  1  0  0  0
 27 28  1  0  0  0
 27 51  1  0  0  0
 27 52  1  0  0  0
 28 53  1  0  0  0
 28 54  1  0  0  0
 29 30  1  0  0  0
 29 55  1  0  0  0
 29 56  1  0  0  0
 30 57  1  0  0  0
 30 58  1  0  0  0
M  END
> <s_m_entry_id>
441

> <s_m_entry_name>
dock_pv.440

> <s_m_Source_Path>
/home/csk/Desktop/cluster/DUD-E-result/kif11

> <s_m_Source_File>
dock_pv.maegz

> <i_m_Source_File_Index>
440

> <chembl_id>
CHEMBL1829267

> <chembl_pref_name>
None

> <i_lp_mmshare_version>
53161

> <i_f3d_flags>
0

> <r_lp_tautomer_probability>
1

> <s_lp_Force_Field>
OPLS_2005

> <r_lp_Energy>
52.517883

> <b_lp_Chiralities_Consistent>
1

> <s_lp_Variant>
CHEMBL4581_lig572-1

> <s_i_glide_gridfile>
glide-grid_3cjo

> <i_i_glide_lignum>
872

> <i_i_glide_rotatable_bonds>
10

> <r_i_docking_score>
-7.26164957279376

> <r_i_glide_ligand_efficiency>
-0.242054985759792

> <r_i_glide_ligand_efficiency_sa>
-0.75212111912832

> <r_i_glide_ligand_efficiency_ln>
-1.64992590494801

> <r_i_glide_gscore>
-7.26164957279376

> <r_i_glide_lipo>
-4.18326265118223

> <r_i_glide_hbond>
-0.21179911889384

> <r_i_glide_metal>
0

> <r_i_glide_rewards>
-1.0748802952223

> <r_i_glide_evdw>
-43.2073631286621

> <r_i_glide_ecoul>
-2.67605805397034

> <r_i_glide_erotb>
0.770069357033266

> <r_i_glide_esite>
0

> <r_i_glide_emodel>
-62.4155552153605

> <r_i_glide_energy>
-45.8834211826324

> <r_i_glide_einternal>
6.05289697647095

> <i_i_glide_confnum>
157

> <i_i_glide_posenum>
269

> <r_i_glide_eff_state_penalty>
0

> <s_user_duplicate_titles>
CHEMBL4581_lig572

> <s_m_subgroup_title>
dock_pv

> <s_m_subgroupid>
dock_pv

> <b_m_subgroup_collapsed>
1

$$$$
CHEMBL4581_lig658
                    3D
 Schrodinger Suite 2021-1.
 34 36  0  0  1  0            999 V2000
   17.4364   12.5013  112.3422 N   0  0  0  0  0  0
   17.9192   12.9893  113.4942 C   0  0  0  0  0  0
   18.6301   14.3606  113.3591 C   0  0  0  0  0  0
   19.1155   14.7429  111.9381 C   0  0  0  0  0  0
   18.1649   14.2675  110.8583 C   0  0  0  0  0  0
   18.0647   14.8926  109.6186 C   0  0  0  0  0  0
   17.3010   14.3253  108.5885 C   0  0  0  0  0  0
   16.5275   13.1985  108.8520 C   0  0  0  0  0  0
   16.5670   12.6092  110.1125 C   0  0  0  0  0  0
   17.4018   13.1210  111.0991 C   0  0  0  0  0  0
   17.7507   12.4072  114.5580 O   0  0  0  0  0  0
   17.3400   14.8248  107.3052 O   0  0  0  0  0  0
   18.5555   15.1831  106.7569 C   0  0  0  0  0  0
   19.7501   14.5373  107.0987 C   0  0  0  0  0  0
   20.9600   14.9880  106.5990 C   0  0  0  0  0  0
   20.9891   16.0990  105.7600 C   0  0  0  0  0  0
   19.7961   16.7120  105.3640 C   0  0  0  0  0  0
   18.5821   16.2355  105.8480 C   0  0  0  0  0  0
   22.3245   16.5958  105.2435 C   0  0  0  0  0  0
   22.9295   17.3428  106.1585 F   0  0  0  0  0  0
   22.1609   17.3450  104.1587 F   0  0  0  0  0  0
   23.1170   15.5616  104.9558 F   0  0  0  0  0  0
   16.9301   11.6374  112.4622 H   0  0  0  0  0  0
   17.9228   15.1025  113.7270 H   0  0  0  0  0  0
   19.4750   14.3610  114.0498 H   0  0  0  0  0  0
   20.0903   14.2937  111.7588 H   0  0  0  0  0  0
   19.2690   15.8204  111.8719 H   0  0  0  0  0  0
   18.6576   15.7733  109.4194 H   0  0  0  0  0  0
   15.9248   12.7626  108.0693 H   0  0  0  0  0  0
   15.9709   11.7322  110.3080 H   0  0  0  0  0  0
   19.7431   13.6932  107.7708 H   0  0  0  0  0  0
   21.8711   14.4831  106.8833 H   0  0  0  0  0  0
   19.8044   17.5615  104.6992 H   0  0  0  0  0  0
   17.6593   16.7156  105.5595 H   0  0  0  0  0  0
  1  2  1  0  0  0
  1 10  1  0  0  0
  1 23  1  0  0  0
  2  3  1  0  0  0
  2 11  2  0  0  0
  3  4  1  0  0  0
  3 24  1  0  0  0
  3 25  1  0  0  0
  4  5  1  0  0  0
  4 26  1  0  0  0
  4 27  1  0  0  0
  5  6  1  0  0  0
  5 10  2  0  0  0
  6  7  2  0  0  0
  6 28  1  0  0  0
  7  8  1  0  0  0
  7 12  1  0  0  0
  8  9  2  0  0  0
  8 29  1  0  0  0
  9 10  1  0  0  0
  9 30  1  0  0  0
 12 13  1  0  0  0
 13 14  1  0  0  0
 13 18  2  0  0  0
 14 15  2  0  0  0
 14 31  1  0  0  0
 15 16  1  0  0  0
 15 32  1  0  0  0
 16 17  2  0  0  0
 16 19  1  0  0  0
 17 18  1  0  0  0
 17 33  1  0  0  0
 18 34  1  0  0  0
 19 20  1  0  0  0
 19 21  1  0  0  0
 19 22  1  0  0  0
M  END
> <s_m_entry_id>
442

> <s_m_entry_name>
dock_pv.441

> <s_m_Source_Path>
/home/csk/Desktop/cluster/DUD-E-result/kif11

> <s_m_Source_File>
dock_pv.maegz

> <i_m_Source_File_Index>
441

> <chembl_id>
CHEMBL3288977

> <chembl_pref_name>
None

> <i_lp_mmshare_version>
53161

> <i_f3d_flags>
0

> <r_lp_tautomer_probability>
1

> <s_lp_Force_Field>
OPLS_2005

> <r_lp_Energy>
22.891599

> <b_lp_Chiralities_Consistent>
1

> <s_lp_Variant>
CHEMBL4581_lig658-1

> <s_i_glide_gridfile>
glide-grid_3cjo

> <i_i_glide_lignum>
996

> <i_i_glide_rotatable_bonds>
3

> <r_i_docking_score>
-7.2543795900382

> <r_i_glide_ligand_efficiency>
-0.329744526819918

> <r_i_glide_ligand_efficiency_sa>
-0.923957132265764

> <r_i_glide_ligand_efficiency_ln>
-1.77323498173017

> <r_i_glide_gscore>
-7.2543795900382

> <r_i_glide_lipo>
-2.95063923816268

> <r_i_glide_hbond>
0

> <r_i_glide_metal>
0

> <r_i_glide_rewards>
-3.23769533077862

> <r_i_glide_evdw>
-33.5672454833984

> <r_i_glide_ecoul>
1.47170209884644

> <r_i_glide_erotb>
0.391561938246065

> <r_i_glide_esite>
0

> <r_i_glide_emodel>
-46.1079237344792

> <r_i_glide_energy>
-32.095543384552

> <r_i_glide_einternal>
0.950396537780762

> <i_i_glide_confnum>
8

> <i_i_glide_posenum>
190

> <r_i_glide_eff_state_penalty>
0

> <s_user_duplicate_titles>
CHEMBL4581_lig658

> <s_m_subgroup_title>
dock_pv

> <s_m_subgroupid>
dock_pv

> <b_m_subgroup_collapsed>
1

$$$$
CHEMBL4581_lig312
                    3D
 Schrodinger Suite 2021-1.
 48 51  0  0  1  0            999 V2000
   16.0128   16.4499  107.9500 N   0  0  0  0  0  0
   16.7645   17.7477  109.6238 C   0  0  0  0  0  0
   16.9155   16.5296  108.9825 C   0  0  0  0  0  0
   17.9274   15.4449  109.3684 C   0  0  2  0  0  0
   18.4249   15.7805  110.7311 N   0  0  0  0  0  0
   18.8507   17.1917  110.9070 C   0  0  0  0  0  0
   17.6030   18.1129  110.8384 C   0  0  0  0  0  0
   15.2763   17.6127  107.8744 C   0  0  0  0  0  0
   15.7317   18.4610  108.9282 C   0  0  0  0  0  0
   15.1432   19.7255  109.0824 C   0  0  0  0  0  0
   14.1376   20.1217  108.1993 C   0  0  0  0  0  0
   13.7144   19.2711  107.1760 C   0  0  0  0  0  0
   14.2637   18.0016  106.9899 C   0  0  0  0  0  0
   19.0468   15.1987  108.3354 C   0  0  0  0  0  0
   18.6368   14.8679  111.7178 C   0  0  0  0  0  0
   19.2576   15.1588  112.7436 O   0  0  0  0  0  0
   17.9518   13.4793  111.6277 C   0  0  0  0  0  0
   18.1245   12.5435  112.8473 C   0  0  0  0  0  0
   17.5183   13.0875  114.0491 N   0  0  0  0  0  0
   19.1650   15.9671  107.1662 C   0  0  0  0  0  0
   20.1985   15.7441  106.2584 C   0  0  0  0  0  0
   21.1273   14.7356  106.5006 C   0  0  0  0  0  0
   21.0269   13.9620  107.6526 C   0  0  0  0  0  0
   19.9998   14.1950  108.5638 C   0  0  0  0  0  0
   21.9184   12.9727  107.8812 F   0  0  0  0  0  0
   13.5112   21.4944  108.3570 C   0  0  0  0  0  0
   15.9441   15.6393  107.3535 H   0  0  0  0  0  0
   17.4202   14.4833  109.4154 H   0  0  0  0  0  0
   19.5169   17.4449  110.0831 H   0  0  0  0  0  0
   19.4602   17.3613  111.7954 H   0  0  0  0  0  0
   17.0093   18.0340  111.7465 H   0  0  0  0  0  0
   17.9387   19.1462  110.7833 H   0  0  0  0  0  0
   15.4699   20.3871  109.8719 H   0  0  0  0  0  0
   12.9360   19.6005  106.5029 H   0  0  0  0  0  0
   13.9223   17.3591  106.1917 H   0  0  0  0  0  0
   18.3439   12.9497  110.7630 H   0  0  0  0  0  0
   16.8873   13.6284  111.4479 H   0  0  0  0  0  0
   19.1823   12.3649  113.0414 H   0  0  0  0  0  0
   17.6776   11.5693  112.6400 H   0  0  0  0  0  0
   17.7487   12.5056  114.8436 H   0  0  0  0  0  0
   17.9497   13.9871  114.2230 H   0  0  0  0  0  0
   18.4683   16.7615  106.9504 H   0  0  0  0  0  0
   20.2767   16.3463  105.3665 H   0  0  0  0  0  0
   21.9208   14.5454  105.7918 H   0  0  0  0  0  0
   19.9591   13.5854  109.4499 H   0  0  0  0  0  0
   12.8793   21.7607  107.5086 H   0  0  0  0  0  0
   12.9150   21.5366  109.2697 H   0  0  0  0  0  0
   14.2883   22.2555  108.4375 H   0  0  0  0  0  0
  1  8  1  0  0  0
  1  3  1  0  0  0
  1 27  1  0  0  0
  2  7  1  0  0  0
  2  9  1  0  0  0
  2  3  2  0  0  0
  3  4  1  0  0  0
  4 14  1  0  0  0
  4  5  1  0  0  0
  4 28  1  0  0  0
  5 15  1  0  0  0
  5  6  1  0  0  0
  6  7  1  0  0  0
  6 29  1  0  0  0
  6 30  1  0  0  0
  7 31  1  0  0  0
  7 32  1  0  0  0
  8 13  1  0  0  0
  8  9  2  0  0  0
  9 10  1  0  0  0
 10 11  2  0  0  0
 10 33  1  0  0  0
 11 12  1  0  0  0
 11 26  1  0  0  0
 12 13  2  0  0  0
 12 34  1  0  0  0
 13 35  1  0  0  0
 14 20  1  0  0  0
 14 24  2  0  0  0
 15 16  2  0  0  0
 15 17  1  0  0  0
 17 18  1  0  0  0
 17 36  1  0  0  0
 17 37  1  0  0  0
 18 19  1  0  0  0
 18 38  1  0  0  0
 18 39  1  0  0  0
 19 40  1  0  0  0
 19 41  1  0  0  0
 20 21  2  0  0  0
 20 42  1  0  0  0
 21 22  1  0  0  0
 21 43  1  0  0  0
 22 23  2  0  0  0
 22 44  1  0  0  0
 23 24  1  0  0  0
 23 25  1  0  0  0
 24 45  1  0  0  0
 26 46  1  0  0  0
 26 47  1  0  0  0
 26 48  1  0  0  0
M  END
> <s_m_entry_id>
443

> <s_m_entry_name>
dock_pv.442

> <s_m_Source_Path>
/home/csk/Desktop/cluster/DUD-E-result/kif11

> <s_m_Source_File>
dock_pv.maegz

> <i_m_Source_File_Index>
442

> <chembl_id>
CHEMBL591331

> <chembl_pref_name>
None

> <i_lp_mmshare_version>
53161

> <i_f3d_flags>
0

> <r_lp_tautomer_probability>
1

> <s_lp_Force_Field>
OPLS_2005

> <r_lp_Energy>
26.911877

> <b_lp_Chiralities_Consistent>
1

> <s_lp_Variant>
CHEMBL4581_lig312-2

> <s_i_glide_gridfile>
glide-grid_3cjo

> <i_i_glide_lignum>
463

> <i_i_glide_rotatable_bonds>
4

> <r_i_docking_score>
-7.25107942353519

> <r_i_glide_ligand_efficiency>
-0.278887670135969

> <r_i_glide_ligand_efficiency_sa>
-0.826203625407816

> <r_i_glide_ligand_efficiency_ln>
-1.70289220988503

> <r_i_glide_gscore>
-7.25107942353519

> <r_i_glide_lipo>
-3.53144226460539

> <r_i_glide_hbond>
0

> <r_i_glide_metal>
0

> <r_i_glide_rewards>
-2.15587080291666

> <r_i_glide_evdw>
-35.5540428161621

> <r_i_glide_ecoul>
-1.66259694099426

> <r_i_glide_erotb>
0.463325325944104

> <r_i_glide_esite>
0

> <r_i_glide_emodel>
-52.3381963247876

> <r_i_glide_energy>
-37.2166397571564

> <r_i_glide_einternal>
2.72561359405518

> <i_i_glide_confnum>
4

> <i_i_glide_posenum>
365

> <r_i_glide_eff_state_penalty>
0

> <s_user_duplicate_titles>
CHEMBL4581_lig312,590438

> <s_m_subgroup_title>
dock_pv

> <s_m_subgroupid>
dock_pv

> <b_m_subgroup_collapsed>
1

$$$$
CHEMBL4581_lig91
                    3D
 Schrodinger Suite 2021-1.
 64 67  0  0  1  0            999 V2000
   21.9212   16.4223  105.0409 C   0  0  0  0  0  0
   22.7175   15.2920  105.1897 C   0  0  0  0  0  0
   22.3170   14.2820  106.0517 C   0  0  0  0  0  0
   21.1449   14.3881  106.7836 C   0  0  0  0  0  0
   20.3341   15.5163  106.6455 C   0  0  0  0  0  0
   20.7230   16.5209  105.7452 C   0  0  0  0  0  0
   19.9194   17.5615  105.4720 F   0  0  0  0  0  0
   23.0541   13.1735  106.1581 F   0  0  0  0  0  0
   19.0839   15.5857  107.4002 C   0  0  0  0  0  0
   18.5613   16.6340  107.8763 N   0  0  0  0  0  0
   17.4035   16.3450  108.5251 N   0  0  0  0  0  0
   17.1499   14.8758  108.5831 C   0  0  1  0  0  0
   18.2666   14.3631  107.6673 C   0  0  0  0  0  0
   17.3664   14.2864  110.0187 C   0  0  0  0  0  0
   18.2015   14.9493  110.9396 C   0  0  0  0  0  0
   18.4840   14.4000  112.1873 C   0  0  0  0  0  0
   17.9464   13.1677  112.5344 C   0  0  0  0  0  0
   17.1290   12.4868  111.6397 C   0  0  0  0  0  0
   16.8317   13.0460  110.3992 C   0  0  0  0  0  0
   16.6262   17.3574  109.0113 C   0  0  0  0  0  0
   15.9046   17.0440  110.1056 N   0  0  0  0  0  0
   16.6509   18.5042  108.5586 O   0  0  0  0  0  0
   14.8794   17.8844  110.7299 C   0  0  0  0  0  0
   15.7482   14.6035  107.9132 C   0  0  0  0  0  0
   15.3660   19.2767  111.1696 C   0  0  0  0  0  0
   15.4425   13.1612  107.4438 C   0  0  0  0  0  0
   14.7899   12.9702  106.0592 C   0  0  0  0  0  0
   15.7506   13.0620  104.8584 C   0  0  0  0  0  0
   15.9172   14.4322  104.3889 N   0  0  0  0  0  0
   16.2087   14.7792  103.1232 C   0  0  0  0  0  0
   16.0403   16.1797  102.8389 C   0  0  0  0  0  0
   16.5070   13.9816  102.2298 O   0  0  0  0  0  0
   15.9161   18.1519  101.7311 N   0  0  0  0  0  0
   15.4860   18.3051  102.9570 C   0  0  0  0  0  0
   15.5398   17.1458  103.6811 N   0  0  0  0  0  0
   16.2533   16.8751  101.6508 C   0  0  0  0  0  0
   22.2041   17.1957  104.3415 H   0  0  0  0  0  0
   23.6201   15.1622  104.6123 H   0  0  0  0  0  0
   20.8944   13.5789  107.4517 H   0  0  0  0  0  0
   18.8479   13.5774  108.1494 H   0  0  0  0  0  0
   17.9119   13.9732  106.7130 H   0  0  0  0  0  0
   18.6698   15.8899  110.6892 H   0  0  0  0  0  0
   19.1300   14.9240  112.8778 H   0  0  0  0  0  0
   18.1703   12.7336  113.4982 H   0  0  0  0  0  0
   16.7158   11.5274  111.9099 H   0  0  0  0  0  0
   16.2131   12.4641  109.7402 H   0  0  0  0  0  0
   16.0510   16.1332  110.5160 H   0  0  0  0  0  0
   14.0408   17.9893  110.0382 H   0  0  0  0  0  0
   14.4906   17.3524  111.5988 H   0  0  0  0  0  0
   15.6499   15.2557  107.0434 H   0  0  0  0  0  0
   14.9503   14.9290  108.5828 H   0  0  0  0  0  0
   14.6074   19.7800  111.7668 H   0  0  0  0  0  0
   16.2827   19.2066  111.7582 H   0  0  0  0  0  0
   15.5614   19.9311  110.3201 H   0  0  0  0  0  0
   14.7326   12.7624  108.1550 H   0  0  0  0  0  0
   16.3279   12.5292  107.5097 H   0  0  0  0  0  0
   13.9422   13.6465  105.9350 H   0  0  0  0  0  0
   14.3548   11.9689  106.0474 H   0  0  0  0  0  0
   15.3642   12.4265  104.0586 H   0  0  0  0  0  0
   16.7192   12.6311  105.1101 H   0  0  0  0  0  0
   15.9989   15.1358  105.1042 H   0  0  0  0  0  0
   15.2407   17.0222  104.6381 H   0  0  0  0  0  0
   15.1162   19.2175  103.4033 H   0  0  0  0  0  0
   16.6249   16.4516  100.7284 H   0  0  0  0  0  0
  1  6  1  0  0  0
  1  2  2  0  0  0
  1 37  1  0  0  0
  2  3  1  0  0  0
  2 38  1  0  0  0
  3  4  2  0  0  0
  3  8  1  0  0  0
  4  5  1  0  0  0
  4 39  1  0  0  0
  5  9  1  0  0  0
  5  6  2  0  0  0
  6  7  1  0  0  0
  9 10  2  0  0  0
  9 13  1  0  0  0
 10 11  1  0  0  0
 11 20  1  0  0  0
 11 12  1  0  0  0
 12 24  1  0  0  0
 12 13  1  0  0  0
 12 14  1  0  0  0
 13 40  1  0  0  0
 13 41  1  0  0  0
 14 19  1  0  0  0
 14 15  2  0  0  0
 15 16  1  0  0  0
 15 42  1  0  0  0
 16 17  2  0  0  0
 16 43  1  0  0  0
 17 18  1  0  0  0
 17 44  1  0  0  0
 18 19  2  0  0  0
 18 45  1  0  0  0
 19 46  1  0  0  0
 20 21  1  0  0  0
 20 22  2  0  0  0
 21 23  1  0  0  0
 21 47  1  0  0  0
 23 25  1  0  0  0
 23 48  1  0  0  0
 23 49  1  0  0  0
 24 26  1  0  0  0
 24 50  1  0  0  0
 24 51  1  0  0  0
 25 52  1  0  0  0
 25 53  1  0  0  0
 25 54  1  0  0  0
 26 27  1  0  0  0
 26 55  1  0  0  0
 26 56  1  0  0  0
 27 28  1  0  0  0
 27 57  1  0  0  0
 27 58  1  0  0  0
 28 29  1  0  0  0
 28 59  1  0  0  0
 28 60  1  0  0  0
 29 30  1  0  0  0
 29 61  1  0  0  0
 30 32  2  0  0  0
 30 31  1  0  0  0
 31 36  2  0  0  0
 31 35  1  0  0  0
 33 34  2  0  0  0
 33 36  1  0  0  0
 34 35  1  0  0  0
 34 63  1  0  0  0
 35 62  1  0  0  0
 36 64  1  0  0  0
M  END
> <s_m_entry_id>
444

> <s_m_entry_name>
dock_pv.443

> <s_m_Source_Path>
/home/csk/Desktop/cluster/DUD-E-result/kif11

> <s_m_Source_File>
dock_pv.maegz

> <i_m_Source_File_Index>
443

> <chembl_id>
CHEMBL208864

> <chembl_pref_name>
None

> <i_lp_mmshare_version>
53161

> <i_f3d_flags>
0

> <r_lp_tautomer_probability>
0.499999999999999

> <s_lp_Force_Field>
OPLS_2005

> <r_lp_Energy>
33.137078

> <b_lp_Chiralities_Consistent>
1

> <s_lp_Variant>
CHEMBL4581_lig91-4

> <s_i_glide_gridfile>
glide-grid_3cjo

> <i_i_glide_lignum>
149

> <i_i_glide_rotatable_bonds>
12

> <r_i_docking_score>
-7.24910525316342

> <r_i_glide_ligand_efficiency>
-0.201364034810095

> <r_i_glide_ligand_efficiency_sa>
-0.664889392692605

> <r_i_glide_ligand_efficiency_ln>
-1.58155891804937

> <r_i_glide_gscore>
-7.24910525316342

> <r_i_glide_lipo>
-3.86664707508339

> <r_i_glide_hbond>
-0.32

> <r_i_glide_metal>
0

> <r_i_glide_rewards>
-1.0848250037258

> <r_i_glide_evdw>
-45.8135833740234

> <r_i_glide_ecoul>
-3.18775749206543

> <r_i_glide_erotb>
0.833277185377532

> <r_i_glide_esite>
-0.0420675672207775

> <r_i_glide_emodel>
-59.6566329077765

> <r_i_glide_energy>
-49.0013408660889

> <r_i_glide_einternal>
10.0063161849976

> <i_i_glide_confnum>
138

> <i_i_glide_posenum>
109

> <r_i_glide_eff_state_penalty>
0

> <s_user_duplicate_titles>
CHEMBL4581_lig91

> <s_m_subgroup_title>
dock_pv

> <s_m_subgroupid>
dock_pv

> <b_m_subgroup_collapsed>
1

$$$$
CHEMBL4581_lig71
                    3D
 Schrodinger Suite 2021-1.
 48 50  0  0  1  0            999 V2000
   17.5169   15.9288  107.4646 C   0  0  0  0  0  0
   16.3154   15.3239  108.0541 N   0  0  1  0  0  0
   16.5636   15.0785  109.4743 C   0  0  0  0  0  0
   17.6167   13.9594  109.6167 C   0  0  1  0  0  0
   18.7970   15.0973  107.6578 C   0  0  0  0  0  0
   18.8603   14.1965  108.7441 C   0  0  0  0  0  0
   20.0329   13.4689  108.9585 C   0  0  0  0  0  0
   21.1188   13.5912  108.1064 C   0  0  0  0  0  0
   21.0756   14.4710  107.0258 C   0  0  0  0  0  0
   19.9190   15.2442  106.8113 C   0  0  0  0  0  0
   19.8588   16.2604  105.6708 C   0  0  0  0  0  0
   22.3069   14.5777  106.1292 C   0  0  0  0  0  0
   17.9114   13.6773  111.0890 C   0  0  0  0  0  0
   18.8155   14.4780  111.7967 C   0  0  0  0  0  0
   19.0865   14.2053  113.1329 C   0  0  0  0  0  0
   18.4340   13.1495  113.7610 C   0  0  0  0  0  0
   17.5183   12.3620  113.0709 C   0  0  0  0  0  0
   17.2655   12.6159  111.7291 C   0  0  0  0  0  0
   15.1274   16.1495  107.8052 C   0  0  0  0  0  0
   13.8033   15.4961  108.2675 C   0  0  0  0  0  0
   13.5567   14.0862  107.7014 C   0  0  0  0  0  0
   12.2953   13.5637  108.1940 N   0  0  0  0  0  0
   17.6812   16.9365  107.8528 H   0  0  0  0  0  0
   17.3131   16.0304  106.3978 H   0  0  0  0  0  0
   15.6589   14.7123  109.9590 H   0  0  0  0  0  0
   16.8384   15.9992  109.9944 H   0  0  0  0  0  0
   17.1760   13.0437  109.2142 H   0  0  0  0  0  0
   20.0914   12.7618  109.7715 H   0  0  0  0  0  0
   22.0028   12.9964  108.2891 H   0  0  0  0  0  0
   20.7676   16.3270  105.0731 H   0  0  0  0  0  0
   19.0398   16.0223  104.9910 H   0  0  0  0  0  0
   19.6688   17.2542  106.0769 H   0  0  0  0  0  0
   22.7105   15.5898  106.1512 H   0  0  0  0  0  0
   23.1047   13.8922  106.4203 H   0  0  0  0  0  0
   22.0418   14.3592  105.0964 H   0  0  0  0  0  0
   19.3151   15.3032  111.3074 H   0  0  0  0  0  0
   19.7955   14.8080  113.6804 H   0  0  0  0  0  0
   18.6351   12.9394  114.8030 H   0  0  0  0  0  0
   16.9999   11.5630  113.5772 H   0  0  0  0  0  0
   16.5583   11.9936  111.1981 H   0  0  0  0  0  0
   15.2465   17.1211  108.2882 H   0  0  0  0  0  0
   15.0561   16.3353  106.7320 H   0  0  0  0  0  0
   13.7352   15.5076  109.3555 H   0  0  0  0  0  0
   12.9901   16.1486  107.9442 H   0  0  0  0  0  0
   13.5370   14.1102  106.6117 H   0  0  0  0  0  0
   14.3588   13.4072  107.9936 H   0  0  0  0  0  0
   11.5420   14.1660  107.8933 H   0  0  0  0  0  0
   12.1176   12.6647  107.7648 H   0  0  0  0  0  0
  1  5  1  0  0  0
  1  2  1  0  0  0
  1 23  1  0  0  0
  1 24  1  0  0  0
  2  3  1  0  0  0
  2 19  1  0  0  0
  3  4  1  0  0  0
  3 25  1  0  0  0
  3 26  1  0  0  0
  4  6  1  0  0  0
  4 13  1  0  0  0
  4 27  1  0  0  0
  5  6  2  0  0  0
  5 10  1  0  0  0
  6  7  1  0  0  0
  7  8  2  0  0  0
  7 28  1  0  0  0
  8  9  1  0  0  0
  8 29  1  0  0  0
  9 12  1  0  0  0
  9 10  2  0  0  0
 10 11  1  0  0  0
 11 30  1  0  0  0
 11 31  1  0  0  0
 11 32  1  0  0  0
 12 33  1  0  0  0
 12 34  1  0  0  0
 12 35  1  0  0  0
 13 14  2  0  0  0
 13 18  1  0  0  0
 14 15  1  0  0  0
 14 36  1  0  0  0
 15 16  2  0  0  0
 15 37  1  0  0  0
 16 17  1  0  0  0
 16 38  1  0  0  0
 17 18  2  0  0  0
 17 39  1  0  0  0
 18 40  1  0  0  0
 19 20  1  0  0  0
 19 41  1  0  0  0
 19 42  1  0  0  0
 20 21  1  0  0  0
 20 43  1  0  0  0
 20 44  1  0  0  0
 21 22  1  0  0  0
 21 45  1  0  0  0
 21 46  1  0  0  0
 22 47  1  0  0  0
 22 48  1  0  0  0
M  END
> <s_m_entry_id>
445

> <s_m_entry_name>
dock_pv.444

> <s_m_Source_Path>
/home/csk/Desktop/cluster/DUD-E-result/kif11

> <s_m_Source_File>
dock_pv.maegz

> <i_m_Source_File_Index>
444

> <chembl_id>
CHEMBL208309

> <chembl_pref_name>
None

> <i_lp_mmshare_version>
53161

> <i_f3d_flags>
0

> <r_lp_tautomer_probability>
1

> <s_lp_Force_Field>
OPLS_2005

> <r_lp_Energy>
29.56295

> <b_lp_Chiralities_Consistent>
1

> <s_lp_Variant>
CHEMBL4581_lig71-2

> <s_i_glide_gridfile>
glide-grid_3cjo

> <i_i_glide_lignum>
109

> <i_i_glide_rotatable_bonds>
4

> <r_i_docking_score>
-7.24654769713834

> <r_i_glide_ligand_efficiency>
-0.329388531688106

> <r_i_glide_ligand_efficiency_sa>
-0.922959619905933

> <r_i_glide_ligand_efficiency_ln>
-1.77132058143021

> <r_i_glide_gscore>
-7.24654769713834

> <r_i_glide_lipo>
-4.40941692618535

> <r_i_glide_hbond>
0

> <r_i_glide_metal>
0

> <r_i_glide_rewards>
-1.50992078787879

> <r_i_glide_evdw>
-35.0694122314453

> <r_i_glide_ecoul>
-1.37750208377838

> <r_i_glide_erotb>
0.632885941064821

> <r_i_glide_esite>
0

> <r_i_glide_emodel>
-51.2697807453987

> <r_i_glide_energy>
-36.4469143152237

> <r_i_glide_einternal>
0.495571076869965

> <i_i_glide_confnum>
15

> <i_i_glide_posenum>
63

> <r_i_glide_eff_state_penalty>
0

> <s_user_duplicate_titles>
CHEMBL4581_lig71

> <s_m_subgroup_title>
dock_pv

> <s_m_subgroupid>
dock_pv

> <b_m_subgroup_collapsed>
1

$$$$
CHEMBL4581_lig81
                    3D
 Schrodinger Suite 2021-1.
 42 44  0  0  1  0            999 V2000
   21.1447   14.5421  106.9607 C   0  0  0  0  0  0
   20.7859   15.6460  106.1989 C   0  0  0  0  0  0
   19.4891   16.1352  106.2765 C   0  0  0  0  0  0
   20.2287   13.9655  107.8362 C   0  0  0  0  0  0
   18.8995   14.4065  107.8837 C   0  0  0  0  0  0
   18.5351   15.5285  107.0995 C   0  0  0  0  0  0
   17.1115   16.0766  107.1324 C   0  0  0  0  0  0
   16.4145   15.5883  108.3266 N   0  0  0  0  0  0
   16.3918   14.1238  108.4119 C   0  0  0  0  0  0
   17.8422   13.6757  108.7478 C   0  0  2  0  0  0
   18.0778   13.6931  110.2656 C   0  0  0  0  0  0
   17.3675   12.7879  111.0670 C   0  0  0  0  0  0
   17.5176   12.7954  112.4535 C   0  0  0  0  0  0
   18.4027   13.6872  113.0530 C   0  0  0  0  0  0
   19.1208   14.5878  112.2674 C   0  0  0  0  0  0
   18.9586   14.5939  110.8817 C   0  0  0  0  0  0
   15.7405   16.3763  109.2069 C   0  0  0  0  0  0
   14.7190   15.9640  109.7593 O   0  0  0  0  0  0
   16.2244   17.6248  109.4611 N   0  0  0  0  0  0
   17.6498   17.9758  109.5008 C   0  0  0  0  0  0
   15.3583   18.6979  109.9541 C   0  0  0  0  0  0
   16.7632   11.9620  113.2351 O   0  0  0  0  0  0
   22.1869   16.5887  104.9649 I   0  0  0  0  0  0
   22.1506   14.1529  106.9041 H   0  0  0  0  0  0
   19.2209   16.9938  105.6795 H   0  0  0  0  0  0
   20.5347   13.1251  108.4422 H   0  0  0  0  0  0
   17.1071   17.1614  107.0731 H   0  0  0  0  0  0
   16.5826   15.7203  106.2476 H   0  0  0  0  0  0
   15.6287   13.7440  109.0933 H   0  0  0  0  0  0
   16.0910   13.7323  107.4386 H   0  0  0  0  0  0
   17.9191   12.6199  108.4805 H   0  0  0  0  0  0
   16.6802   12.0913  110.6087 H   0  0  0  0  0  0
   18.5205   13.6870  114.1265 H   0  0  0  0  0  0
   19.8035   15.2839  112.7314 H   0  0  0  0  0  0
   19.5168   15.3095  110.2966 H   0  0  0  0  0  0
   18.3049   17.1312  109.2891 H   0  0  0  0  0  0
   17.8672   18.7620  108.7768 H   0  0  0  0  0  0
   17.9196   18.3469  110.4907 H   0  0  0  0  0  0
   14.2981   18.4548  109.8645 H   0  0  0  0  0  0
   15.5690   18.9010  111.0050 H   0  0  0  0  0  0
   15.5342   19.6149  109.3909 H   0  0  0  0  0  0
   16.0906   11.4708  112.7493 H   0  0  0  0  0  0
  1  2  2  0  0  0
  1  4  1  0  0  0
  1 24  1  0  0  0
  2  3  1  0  0  0
  2 23  1  0  0  0
  3  6  2  0  0  0
  3 25  1  0  0  0
  4  5  2  0  0  0
  4 26  1  0  0  0
  5 10  1  0  0  0
  5  6  1  0  0  0
  6  7  1  0  0  0
  7  8  1  0  0  0
  7 27  1  0  0  0
  7 28  1  0  0  0
  8 17  1  0  0  0
  8  9  1  0  0  0
  9 10  1  0  0  0
  9 29  1  0  0  0
  9 30  1  0  0  0
 10 11  1  0  0  0
 10 31  1  0  0  0
 11 12  2  0  0  0
 11 16  1  0  0  0
 12 13  1  0  0  0
 12 32  1  0  0  0
 13 14  2  0  0  0
 13 22  1  0  0  0
 14 15  1  0  0  0
 14 33  1  0  0  0
 15 16  2  0  0  0
 15 34  1  0  0  0
 16 35  1  0  0  0
 17 18  2  0  0  0
 17 19  1  0  0  0
 19 20  1  0  0  0
 19 21  1  0  0  0
 20 36  1  0  0  0
 20 37  1  0  0  0
 20 38  1  0  0  0
 21 39  1  0  0  0
 21 40  1  0  0  0
 21 41  1  0  0  0
 22 42  1  0  0  0
M  END
> <s_m_entry_id>
446

> <s_m_entry_name>
dock_pv.445

> <s_m_Source_Path>
/home/csk/Desktop/cluster/DUD-E-result/kif11

> <s_m_Source_File>
dock_pv.maegz

> <i_m_Source_File_Index>
445

> <chembl_id>
CHEMBL382364

> <chembl_pref_name>
None

> <i_lp_mmshare_version>
53161

> <i_f3d_flags>
0

> <r_lp_tautomer_probability>
0.999999999997365

> <s_lp_Force_Field>
OPLS_2005

> <r_lp_Energy>
47.679273

> <b_lp_Chiralities_Consistent>
1

> <s_lp_Variant>
CHEMBL4581_lig81-1

> <s_i_glide_gridfile>
glide-grid_3cjo

> <i_i_glide_lignum>
127

> <i_i_glide_rotatable_bonds>
4

> <r_i_docking_score>
-7.24403222630777

> <r_i_glide_ligand_efficiency>
-0.314957922882947

> <r_i_glide_ligand_efficiency_sa>
-0.895698435993296

> <r_i_glide_ligand_efficiency_ln>
-1.75167267757385

> <r_i_glide_gscore>
-7.24403222630777

> <r_i_glide_lipo>
-4.15213816662917

> <r_i_glide_hbond>
-0.32

> <r_i_glide_metal>
0

> <r_i_glide_rewards>
-0.743258157952567

> <r_i_glide_evdw>
-36.2082366943359

> <r_i_glide_ecoul>
-2.93610954284668

> <r_i_glide_erotb>
0.222192364417763

> <r_i_glide_esite>
0

> <r_i_glide_emodel>
-52.5097961051765

> <r_i_glide_energy>
-39.1443462371826

> <r_i_glide_einternal>
4.67626762390137

> <i_i_glide_confnum>
15

> <i_i_glide_posenum>
323

> <r_i_glide_eff_state_penalty>
0

> <s_user_duplicate_titles>
CHEMBL4581_lig81,344806

> <s_m_subgroup_title>
dock_pv

> <s_m_subgroupid>
dock_pv

> <b_m_subgroup_collapsed>
1

$$$$
CHEMBL4581_lig597
                    3D
 Schrodinger Suite 2021-1.
 47 49  0  0  1  0            999 V2000
   19.6026   15.2714  107.7683 C   0  0  0  0  0  0
   18.2327   15.4547  108.5022 C   0  0  2  0  0  0
   18.0943   14.5380  109.7586 C   0  0  0  0  0  0
   18.9953   14.7204  110.8218 C   0  0  0  0  0  0
   18.9016   13.9611  111.9837 C   0  0  0  0  0  0
   17.9191   12.9841  112.0912 C   0  0  0  0  0  0
   17.0182   12.7792  111.0524 C   0  0  0  0  0  0
   17.0906   13.5653  109.9059 C   0  0  0  0  0  0
   16.9687   15.1424  107.1884 S   0  0  0  0  0  0
   17.3148   13.4720  106.5634 C   0  0  0  0  0  0
   16.3305   12.9793  105.4903 C   0  0  0  0  0  0
   18.0340   16.9384  108.9937 C   0  0  0  0  0  0
   16.7308   17.3675  109.7078 C   0  0  0  0  0  0
   16.7425   18.5973  110.3724 C   0  0  0  0  0  0
   15.5834   19.1048  110.9584 C   0  0  0  0  0  0
   14.3978   18.3850  110.8824 C   0  0  0  0  0  0
   14.3671   17.1549  110.2400 C   0  0  0  0  0  0
   15.5310   16.6371  109.6766 C   0  0  0  0  0  0
   15.0137   12.7624  106.0654 N   0  0  0  0  0  0
   20.0524   16.2155  106.8259 C   0  0  0  0  0  0
   21.5118   13.8701  107.1373 C   0  0  0  0  0  0
   20.3876   14.1122  107.9340 C   0  0  0  0  0  0
   21.8947   14.7912  106.1641 C   0  0  0  0  0  0
   21.1850   15.9809  106.0434 C   0  0  0  0  0  0
   21.7150   17.1620  104.9106 Cl  0  0  0  0  0  0
   19.7766   15.4644  110.7533 H   0  0  0  0  0  0
   19.5995   14.1202  112.7936 H   0  0  0  0  0  0
   17.8554   12.3793  112.9824 H   0  0  0  0  0  0
   16.2552   12.0195  111.1422 H   0  0  0  0  0  0
   16.3389   13.4034  109.1503 H   0  0  0  0  0  0
   18.3185   13.5233  106.1591 H   0  0  0  0  0  0
   17.3772   12.7464  107.3740 H   0  0  0  0  0  0
   16.2682   13.7006  104.6758 H   0  0  0  0  0  0
   16.6921   12.0438  105.0617 H   0  0  0  0  0  0
   18.8669   17.2060  109.6436 H   0  0  0  0  0  0
   18.1140   17.6274  108.1573 H   0  0  0  0  0  0
   17.6605   19.1629  110.4248 H   0  0  0  0  0  0
   15.5939   20.0537  111.4701 H   0  0  0  0  0  0
   13.4972   18.7823  111.3270 H   0  0  0  0  0  0
   13.4446   16.5989  110.1756 H   0  0  0  0  0  0
   15.4505   15.6770  109.2019 H   0  0  0  0  0  0
   14.3782   12.4267  105.3565 H   0  0  0  0  0  0
   15.0912   12.0140  106.7498 H   0  0  0  0  0  0
   19.5160   17.1342  106.6516 H   0  0  0  0  0  0
   22.0706   12.9543  107.2574 H   0  0  0  0  0  0
   20.0921   13.3479  108.6370 H   0  0  0  0  0  0
   22.7561   14.6012  105.5418 H   0  0  0  0  0  0
  1 20  2  0  0  0
  1  2  1  0  0  0
  1 22  1  0  0  0
  2  9  1  0  0  0
  2  3  1  0  0  0
  2 12  1  0  0  0
  3  4  2  0  0  0
  3  8  1  0  0  0
  4  5  1  0  0  0
  4 26  1  0  0  0
  5  6  2  0  0  0
  5 27  1  0  0  0
  6  7  1  0  0  0
  6 28  1  0  0  0
  7  8  2  0  0  0
  7 29  1  0  0  0
  8 30  1  0  0  0
  9 10  1  0  0  0
 10 11  1  0  0  0
 10 31  1  0  0  0
 10 32  1  0  0  0
 11 19  1  0  0  0
 11 33  1  0  0  0
 11 34  1  0  0  0
 12 13  1  0  0  0
 12 35  1  0  0  0
 12 36  1  0  0  0
 13 14  2  0  0  0
 13 18  1  0  0  0
 14 15  1  0  0  0
 14 37  1  0  0  0
 15 16  2  0  0  0
 15 38  1  0  0  0
 16 17  1  0  0  0
 16 39  1  0  0  0
 17 18  2  0  0  0
 17 40  1  0  0  0
 18 41  1  0  0  0
 19 42  1  0  0  0
 19 43  1  0  0  0
 20 24  1  0  0  0
 20 44  1  0  0  0
 21 23  1  0  0  0
 21 22  2  0  0  0
 21 45  1  0  0  0
 22 46  1  0  0  0
 23 24  2  0  0  0
 23 47  1  0  0  0
 24 25  1  0  0  0
M  END
> <s_m_entry_id>
447

> <s_m_entry_name>
dock_pv.446

> <s_m_Source_Path>
/home/csk/Desktop/cluster/DUD-E-result/kif11

> <s_m_Source_File>
dock_pv.maegz

> <i_m_Source_File_Index>
446

> <chembl_id>
CHEMBL2043405

> <chembl_pref_name>
None

> <i_lp_mmshare_version>
53161

> <i_f3d_flags>
0

> <r_lp_tautomer_probability>
1

> <s_lp_Force_Field>
OPLS_2005

> <r_lp_Energy>
22.001533

> <b_lp_Chiralities_Consistent>
1

> <s_lp_Variant>
CHEMBL4581_lig597-2

> <s_i_glide_gridfile>
glide-grid_3cjo

> <i_i_glide_lignum>
919

> <i_i_glide_rotatable_bonds>
7

> <r_i_docking_score>
-7.24396546595496

> <r_i_glide_ligand_efficiency>
-0.289758618638198

> <r_i_glide_ligand_efficiency_sa>
-0.847259339789075

> <r_i_glide_ligand_efficiency_ln>
-1.71703689955873

> <r_i_glide_gscore>
-7.24396546595496

> <r_i_glide_lipo>
-4.45504940282309

> <r_i_glide_hbond>
-0.32

> <r_i_glide_metal>
0

> <r_i_glide_rewards>
-0.900439909090908

> <r_i_glide_evdw>
-39.141918182373

> <r_i_glide_ecoul>
-3.10124802589417

> <r_i_glide_erotb>
0.853806958961816

> <r_i_glide_esite>
0

> <r_i_glide_emodel>
-58.6642488221618

> <r_i_glide_energy>
-42.2431662082672

> <r_i_glide_einternal>
5.95695638656616

> <i_i_glide_confnum>
21

> <i_i_glide_posenum>
364

> <r_i_glide_eff_state_penalty>
0

> <s_user_duplicate_titles>
CHEMBL4581_lig597

> <s_m_subgroup_title>
dock_pv

> <s_m_subgroupid>
dock_pv

> <b_m_subgroup_collapsed>
1

$$$$
CHEMBL4581_lig861
                    3D
 Schrodinger Suite 2021-1.
 55 57  0  0  1  0            999 V2000
   17.4159   15.0457  108.4814 C   0  0  0  0  0  0
   18.7560   15.1970  107.6939 C   0  0  0  0  0  0
   17.5774   14.1689  109.7569 C   0  0  0  0  0  0
   18.8479   16.1378  106.6605 C   0  0  0  0  0  0
   20.0119   16.2770  105.9104 C   0  0  0  0  0  0
   21.0905   15.4343  106.1569 C   0  0  0  0  0  0
   21.0111   14.4626  107.1485 C   0  0  0  0  0  0
   19.8612   14.3620  107.9262 C   0  0  0  0  0  0
   16.8334   13.0051  109.9909 C   0  0  0  0  0  0
   16.9175   12.3477  111.2160 C   0  0  0  0  0  0
   17.7276   12.8403  112.2406 C   0  0  0  0  0  0
   18.5193   13.9711  112.0082 C   0  0  0  0  0  0
   18.4473   14.6087  110.7712 C   0  0  0  0  0  0
   16.8693   16.3971  109.0484 C   0  0  0  0  0  0
   17.7270   17.4754  109.3147 C   0  0  0  0  0  0
   17.2479   18.6264  109.9280 C   0  0  0  0  0  0
   15.9033   18.7391  110.2577 C   0  0  0  0  0  0
   15.0299   17.6927  109.9924 C   0  0  0  0  0  0
   15.5116   16.5291  109.4018 C   0  0  0  0  0  0
   16.3592   14.4996  107.4432 C   0  0  0  0  0  0
   16.7201   13.2959  106.5237 C   0  0  0  0  0  0
   15.7945   13.1381  105.2811 C   0  0  2  0  0  0
   16.0962   14.1453  104.2428 N   0  0  0  0  0  0
   19.4470   14.5351  113.0732 C   0  0  0  0  0  0
   17.6887   12.1731  113.6023 C   0  0  0  0  0  0
   14.2737   13.2056  105.5957 C   0  0  0  0  0  0
   13.9180   12.3124  106.5590 O   0  0  0  0  0  0
   13.4956   13.9881  105.0452 O   0  0  0  0  0  0
   17.9989   16.7618  106.4372 H   0  0  0  0  0  0
   20.0697   17.0212  105.1297 H   0  0  0  0  0  0
   21.9879   15.5221  105.5621 H   0  0  0  0  0  0
   21.8427   13.7954  107.3215 H   0  0  0  0  0  0
   19.8305   13.5879  108.6782 H   0  0  0  0  0  0
   16.1543   12.6052  109.2557 H   0  0  0  0  0  0
   16.3183   11.4646  111.3769 H   0  0  0  0  0  0
   19.0467   15.4926  110.6108 H   0  0  0  0  0  0
   18.7817   17.4203  109.0907 H   0  0  0  0  0  0
   17.9277   19.4272  110.1602 H   0  0  0  0  0  0
   15.5394   19.6375  110.7353 H   0  0  0  0  0  0
   13.9875   17.7755  110.2635 H   0  0  0  0  0  0
   14.8090   15.7240  109.2622 H   0  0  0  0  0  0
   15.4317   14.2395  107.9483 H   0  0  0  0  0  0
   16.0861   15.3300  106.7897 H   0  0  0  0  0  0
   17.7434   13.3805  106.1592 H   0  0  0  0  0  0
   16.7181   12.3711  107.0990 H   0  0  0  0  0  0
   15.9740   12.1470  104.8613 H   0  0  0  0  0  0
   15.2277   14.4931  103.8534 H   0  0  0  0  0  0
   16.5807   14.9352  104.6432 H   0  0  0  0  0  0
   18.8804   15.1621  113.7589 H   0  0  0  0  0  0
   19.9178   13.7385  113.6484 H   0  0  0  0  0  0
   20.2541   15.1240  112.6347 H   0  0  0  0  0  0
   16.7930   11.5625  113.7231 H   0  0  0  0  0  0
   18.5803   11.5641  113.7431 H   0  0  0  0  0  0
   17.6580   12.9168  114.3992 H   0  0  0  0  0  0
   14.6362   11.7364  106.8534 H   0  0  0  0  0  0
  1  2  1  0  0  0
  1  3  1  0  0  0
  1 14  1  0  0  0
  1 20  1  0  0  0
  2  4  2  0  0  0
  2  8  1  0  0  0
  3  9  2  0  0  0
  3 13  1  0  0  0
  4  5  1  0  0  0
  4 29  1  0  0  0
  5  6  2  0  0  0
  5 30  1  0  0  0
  6  7  1  0  0  0
  6 31  1  0  0  0
  7  8  2  0  0  0
  7 32  1  0  0  0
  8 33  1  0  0  0
  9 10  1  0  0  0
  9 34  1  0  0  0
 10 11  2  0  0  0
 10 35  1  0  0  0
 11 12  1  0  0  0
 11 25  1  0  0  0
 12 13  2  0  0  0
 12 24  1  0  0  0
 13 36  1  0  0  0
 14 15  2  0  0  0
 14 19  1  0  0  0
 15 16  1  0  0  0
 15 37  1  0  0  0
 16 17  2  0  0  0
 16 38  1  0  0  0
 17 18  1  0  0  0
 17 39  1  0  0  0
 18 19  2  0  0  0
 18 40  1  0  0  0
 19 41  1  0  0  0
 20 21  1  0  0  0
 20 42  1  0  0  0
 20 43  1  0  0  0
 21 22  1  0  0  0
 21 44  1  0  0  0
 21 45  1  0  0  0
 22 23  1  0  0  0
 22 26  1  0  0  0
 22 46  1  0  0  0
 23 47  1  0  0  0
 23 48  1  0  0  0
 24 49  1  0  0  0
 24 50  1  0  0  0
 24 51  1  0  0  0
 25 52  1  0  0  0
 25 53  1  0  0  0
 25 54  1  0  0  0
 26 27  1  0  0  0
 26 28  2  0  0  0
 27 55  1  0  0  0
M  END
> <s_m_entry_id>
448

> <s_m_entry_name>
dock_pv.447

> <s_m_Source_Path>
/home/csk/Desktop/cluster/DUD-E-result/kif11

> <s_m_Source_File>
dock_pv.maegz

> <i_m_Source_File_Index>
447

> <chembl_id>
CHEMBL2325418

> <chembl_pref_name>
None

> <i_lp_mmshare_version>
53161

> <i_f3d_flags>
0

> <r_lp_tautomer_probability>
1

> <s_lp_Force_Field>
OPLS_2005

> <r_lp_Energy>
31.750416

> <b_lp_Chiralities_Consistent>
1

> <s_lp_Variant>
CHEMBL4581_lig861-1

> <s_i_glide_gridfile>
glide-grid_3cjo

> <i_i_glide_lignum>
1250

> <i_i_glide_rotatable_bonds>
8

> <r_i_docking_score>
-7.2434475536137

> <r_i_glide_ligand_efficiency>
-0.258694555486204

> <r_i_glide_ligand_efficiency_sa>
-0.785549033401146

> <r_i_glide_ligand_efficiency_ln>
-1.6720003722356

> <r_i_glide_gscore>
-7.2434475536137

> <r_i_glide_lipo>
-4.49344710340402

> <r_i_glide_hbond>
0

> <r_i_glide_metal>
0

> <r_i_glide_rewards>
-0.929252712121211

> <r_i_glide_evdw>
-39.2467727661133

> <r_i_glide_ecoul>
-5.50011777877808

> <r_i_glide_erotb>
0.969794651277237

> <r_i_glide_esite>
-0.00318608424333566

> <r_i_glide_emodel>
-63.5692560591978

> <r_i_glide_energy>
-44.7468905448914

> <r_i_glide_einternal>
3.43021559715271

> <i_i_glide_confnum>
185

> <i_i_glide_posenum>
292

> <r_i_glide_eff_state_penalty>
0

> <s_user_duplicate_titles>
CHEMBL4581_lig861

> <s_m_subgroup_title>
dock_pv

> <s_m_subgroupid>
dock_pv

> <b_m_subgroup_collapsed>
1

$$$$
CHEMBL4581_lig448
                    3D
 Schrodinger Suite 2021-1.
 46 50  0  0  1  0            999 V2000
   16.3389   12.8912  108.4912 N   0  0  0  0  0  0
   16.5589   13.7127  107.4153 C   0  0  0  0  0  0
   17.3260   14.8356  107.5023 C   0  0  0  0  0  0
   18.1029   15.2103  108.7979 C   0  0  2  0  0  0
   16.7185   12.4276  110.7769 N   0  0  0  0  0  0
   16.8768   13.1612  109.7160 C   0  0  0  0  0  0
   17.7882   14.1982  109.8418 N   0  0  0  0  0  0
   15.8747   13.1633  106.1621 C   0  0  0  0  0  0
   17.4749   15.7185  106.3579 C   0  0  0  0  0  0
   16.2866   16.1154  105.8453 N   0  0  0  0  0  0
   18.5766   16.0653  105.9356 O   0  0  0  0  0  0
   16.0062   16.7526  104.6258 C   0  0  0  0  0  0
   16.8495   16.6557  103.5112 C   0  0  0  0  0  0
   16.4793   17.2505  102.3090 C   0  0  0  0  0  0
   15.2816   17.9560  102.2226 C   0  0  0  0  0  0
   14.4321   18.0452  103.3231 C   0  0  0  0  0  0
   14.7864   17.4292  104.5223 C   0  0  0  0  0  0
   17.7734   16.6068  109.3145 C   0  0  0  0  0  0
   18.7122   17.1931  110.1059 O   0  0  0  0  0  0
   18.1891   18.3602  110.5564 C   0  0  0  0  0  0
   16.9262   18.5539  110.0252 C   0  0  0  0  0  0
   16.6628   17.4396  109.2309 C   0  0  0  0  0  0
   17.5635   12.9804  111.6884 C   0  0  0  0  0  0
   18.2755   14.0826  111.1387 C   0  0  0  0  0  0
   19.2269   14.7824  111.8941 C   0  0  0  0  0  0
   19.4208   14.3620  113.2126 C   0  0  0  0  0  0
   18.7178   13.2869  113.7587 C   0  0  0  0  0  0
   17.7810   12.5802  113.0101 C   0  0  0  0  0  0
   14.9373   18.5450  101.0554 F   0  0  0  0  0  0
   15.9177   11.9854  108.3183 H   0  0  0  0  0  0
   19.1703   15.1434  108.5808 H   0  0  0  0  0  0
   16.3022   13.5555  105.2351 H   0  0  0  0  0  0
   15.9945   12.0778  106.0976 H   0  0  0  0  0  0
   14.8029   13.3913  106.1758 H   0  0  0  0  0  0
   15.4808   15.9115  106.4158 H   0  0  0  0  0  0
   17.7730   16.1017  103.5680 H   0  0  0  0  0  0
   17.1168   17.1659  101.4433 H   0  0  0  0  0  0
   13.4988   18.5849  103.2398 H   0  0  0  0  0  0
   14.1172   17.4975  105.3680 H   0  0  0  0  0  0
   18.8174   18.9381  111.2179 H   0  0  0  0  0  0
   16.2717   19.3966  110.1973 H   0  0  0  0  0  0
   15.7563   17.2419  108.6797 H   0  0  0  0  0  0
   19.7968   15.6039  111.4916 H   0  0  0  0  0  0
   20.1480   14.8707  113.8280 H   0  0  0  0  0  0
   18.9089   12.9897  114.7800 H   0  0  0  0  0  0
   17.2344   11.7498  113.4317 H   0  0  0  0  0  0
  1  6  1  0  0  0
  1  2  1  0  0  0
  1 30  1  0  0  0
  2  8  1  0  0  0
  2  3  2  0  0  0
  3  9  1  0  0  0
  3  4  1  0  0  0
  4  7  1  0  0  0
  4 18  1  0  0  0
  4 31  1  0  0  0
  5  6  2  0  0  0
  5 23  1  0  0  0
  6  7  1  0  0  0
  7 24  1  0  0  0
  8 32  1  0  0  0
  8 33  1  0  0  0
  8 34  1  0  0  0
  9 10  1  0  0  0
  9 11  2  0  0  0
 10 12  1  0  0  0
 10 35  1  0  0  0
 12 17  1  0  0  0
 12 13  2  0  0  0
 13 14  1  0  0  0
 13 36  1  0  0  0
 14 15  2  0  0  0
 14 37  1  0  0  0
 15 16  1  0  0  0
 15 29  1  0  0  0
 16 17  2  0  0  0
 16 38  1  0  0  0
 17 39  1  0  0  0
 18 19  1  0  0  0
 18 22  2  0  0  0
 19 20  1  0  0  0
 20 21  2  0  0  0
 20 40  1  0  0  0
 21 22  1  0  0  0
 21 41  1  0  0  0
 22 42  1  0  0  0
 23 24  2  0  0  0
 23 28  1  0  0  0
 24 25  1  0  0  0
 25 26  2  0  0  0
 25 43  1  0  0  0
 26 27  1  0  0  0
 26 44  1  0  0  0
 27 28  2  0  0  0
 27 45  1  0  0  0
 28 46  1  0  0  0
M  END
> <s_m_entry_id>
449

> <s_m_entry_name>
dock_pv.448

> <s_m_Source_Path>
/home/csk/Desktop/cluster/DUD-E-result/kif11

> <s_m_Source_File>
dock_pv.maegz

> <i_m_Source_File_Index>
448

> <chembl_id>
CHEMBL1277473

> <chembl_pref_name>
None

> <i_lp_mmshare_version>
53161

> <i_f3d_flags>
0

> <r_lp_tautomer_probability>
0.999999999997873

> <s_lp_Force_Field>
OPLS_2005

> <r_lp_Energy>
28.454887

> <b_lp_Chiralities_Consistent>
1

> <s_lp_Variant>
CHEMBL4581_lig448-1

> <s_i_glide_gridfile>
glide-grid_3cjo

> <i_i_glide_lignum>
670

> <i_i_glide_rotatable_bonds>
4

> <r_i_docking_score>
-7.24322125826319

> <r_i_glide_ligand_efficiency>
-0.249766250284938

> <r_i_glide_ligand_efficiency_sa>
-0.767361052377566

> <r_i_glide_ligand_efficiency_ln>
-1.65851399589884

> <r_i_glide_gscore>
-7.24322125826319

> <r_i_glide_lipo>
-3.28555249634108

> <r_i_glide_hbond>
-0.32

> <r_i_glide_metal>
0

> <r_i_glide_rewards>
-1.66422978655531

> <r_i_glide_evdw>
-42.3500518798828

> <r_i_glide_ecoul>
-2.48379850387573

> <r_i_glide_erotb>
0.516633394208704

> <r_i_glide_esite>
0

> <r_i_glide_emodel>
-59.9650742776696

> <r_i_glide_energy>
-44.8338503837585

> <r_i_glide_einternal>
8.29052352905273

> <i_i_glide_confnum>
29

> <i_i_glide_posenum>
213

> <r_i_glide_eff_state_penalty>
0

> <s_user_duplicate_titles>
CHEMBL4581_lig448

> <s_m_subgroup_title>
dock_pv

> <s_m_subgroupid>
dock_pv

> <b_m_subgroup_collapsed>
1

$$$$
CHEMBL4581_lig827
                    3D
 Schrodinger Suite 2021-1.
 52 54  0  0  1  0            999 V2000
   16.1552   13.3553  104.9114 C   0  0  1  0  0  0
   16.3148   14.6756  104.2602 N   0  0  0  0  0  0
   16.7339   13.3326  106.3484 C   0  0  0  0  0  0
   16.0426   14.6409  107.4328 S   0  0  0  0  0  0
   17.3570   15.0648  108.6884 C   0  0  0  0  0  0
   17.4217   14.0350  109.8521 C   0  0  0  0  0  0
   18.7014   15.1601  107.9049 C   0  0  0  0  0  0
   16.9409   16.4056  109.3578 C   0  0  0  0  0  0
   16.7224   12.8207  109.8354 C   0  0  0  0  0  0
   16.7843   11.9618  110.9235 C   0  0  0  0  0  0
   17.5050   12.2860  112.0536 C   0  0  0  0  0  0
   18.2169   13.4833  112.1101 C   0  0  0  0  0  0
   18.1763   14.3424  111.0044 C   0  0  0  0  0  0
   15.6203   16.5869  109.8064 C   0  0  0  0  0  0
   15.2477   17.7446  110.4831 C   0  0  0  0  0  0
   16.1995   18.7250  110.7382 C   0  0  0  0  0  0
   17.5152   18.5552  110.3176 C   0  0  0  0  0  0
   17.8786   17.4181  109.6099 C   0  0  0  0  0  0
   18.8259   16.1053  106.8781 C   0  0  0  0  0  0
   19.9847   16.2009  106.1161 C   0  0  0  0  0  0
   21.0324   15.3197  106.3552 C   0  0  0  0  0  0
   20.9316   14.3620  107.3598 C   0  0  0  0  0  0
   19.7823   14.2946  108.1446 C   0  0  0  0  0  0
   19.0348   13.8107  113.3070 C   0  0  0  0  0  0
   18.8730   12.8900  114.5177 C   0  0  0  0  0  0
   19.8126   14.7619  113.3628 O   0  0  0  0  0  0
   14.6736   12.8966  104.7926 C   0  0  0  0  0  0
   13.8161   13.5445  104.1881 O   0  0  0  0  0  0
   14.4506   11.6725  105.3590 O   0  0  0  0  0  0
   16.7171   12.6211  104.3335 H   0  0  0  0  0  0
   15.5526   14.8210  103.6102 H   0  0  0  0  0  0
   16.2403   15.4013  104.9621 H   0  0  0  0  0  0
   17.8118   13.4438  106.2615 H   0  0  0  0  0  0
   16.5905   12.3620  106.8161 H   0  0  0  0  0  0
   16.1335   12.5045  108.9906 H   0  0  0  0  0  0
   16.3179   10.9943  110.8926 H   0  0  0  0  0  0
   17.5059   11.5648  112.8578 H   0  0  0  0  0  0
   18.7374   15.2660  111.0367 H   0  0  0  0  0  0
   14.8776   15.8190  109.6514 H   0  0  0  0  0  0
   14.2317   17.8709  110.8263 H   0  0  0  0  0  0
   15.9172   19.6057  111.2956 H   0  0  0  0  0  0
   18.2660   19.2905  110.5576 H   0  0  0  0  0  0
   18.9119   17.3156  109.3134 H   0  0  0  0  0  0
   17.9983   16.7619  106.6648 H   0  0  0  0  0  0
   20.0609   16.9395  105.3316 H   0  0  0  0  0  0
   21.9265   15.3709  105.7513 H   0  0  0  0  0  0
   21.7442   13.6727  107.5325 H   0  0  0  0  0  0
   19.7345   13.5272  108.9015 H   0  0  0  0  0  0
   17.8415   12.9027  114.8660 H   0  0  0  0  0  0
   19.1181   11.8666  114.2437 H   0  0  0  0  0  0
   19.5176   13.1629  115.3400 H   0  0  0  0  0  0
   15.1609   11.3348  105.9147 H   0  0  0  0  0  0
  1  3  1  0  0  0
  1  2  1  0  0  0
  1 27  1  0  0  0
  1 30  1  0  0  0
  2 31  1  0  0  0
  2 32  1  0  0  0
  3  4  1  0  0  0
  3 33  1  0  0  0
  3 34  1  0  0  0
  4  5  1  0  0  0
  5  8  1  0  0  0
  5  6  1  0  0  0
  5  7  1  0  0  0
  6  9  2  0  0  0
  6 13  1  0  0  0
  7 19  2  0  0  0
  7 23  1  0  0  0
  8 18  1  0  0  0
  8 14  2  0  0  0
  9 10  1  0  0  0
  9 35  1  0  0  0
 10 11  2  0  0  0
 10 36  1  0  0  0
 11 12  1  0  0  0
 11 37  1  0  0  0
 12 24  1  0  0  0
 12 13  2  0  0  0
 13 38  1  0  0  0
 14 15  1  0  0  0
 14 39  1  0  0  0
 15 16  2  0  0  0
 15 40  1  0  0  0
 16 17  1  0  0  0
 16 41  1  0  0  0
 17 18  2  0  0  0
 17 42  1  0  0  0
 18 43  1  0  0  0
 19 20  1  0  0  0
 19 44  1  0  0  0
 20 21  2  0  0  0
 20 45  1  0  0  0
 21 22  1  0  0  0
 21 46  1  0  0  0
 22 23  2  0  0  0
 22 47  1  0  0  0
 23 48  1  0  0  0
 24 25  1  0  0  0
 24 26  2  0  0  0
 25 49  1  0  0  0
 25 50  1  0  0  0
 25 51  1  0  0  0
 27 28  2  0  0  0
 27 29  1  0  0  0
 29 52  1  0  0  0
M  END
> <s_m_entry_id>
450

> <s_m_entry_name>
dock_pv.449

> <s_m_Source_Path>
/home/csk/Desktop/cluster/DUD-E-result/kif11

> <s_m_Source_File>
dock_pv.maegz

> <i_m_Source_File_Index>
449

> <chembl_id>
CHEMBL2022989

> <chembl_pref_name>
None

> <i_lp_mmshare_version>
53161

> <i_f3d_flags>
0

> <r_lp_tautomer_probability>
0.99995

> <s_lp_Force_Field>
OPLS_2005

> <r_lp_Energy>
34.176648

> <b_lp_Chiralities_Consistent>
1

> <s_lp_Variant>
CHEMBL4581_lig827-1

> <s_i_glide_gridfile>
glide-grid_3cjo

> <i_i_glide_lignum>
1214

> <i_i_glide_rotatable_bonds>
9

> <r_i_docking_score>
-7.23243416500172

> <r_i_glide_ligand_efficiency>
-0.249394281551783

> <r_i_glide_ligand_efficiency_sa>
-0.76621824658135

> <r_i_glide_ligand_efficiency_ln>
-1.65604402507904

> <r_i_glide_gscore>
-7.23243416500172

> <r_i_glide_lipo>
-4.02512489553678

> <r_i_glide_hbond>
0

> <r_i_glide_metal>
0

> <r_i_glide_rewards>
-1.11151861713402

> <r_i_glide_evdw>
-40.934513092041

> <r_i_glide_ecoul>
-5.90461730957031

> <r_i_glide_erotb>
0.836627598706681

> <r_i_glide_esite>
0

> <r_i_glide_emodel>
-63.9727014524793

> <r_i_glide_energy>
-46.8391304016113

> <r_i_glide_einternal>
5.47344923019409

> <i_i_glide_confnum>
85

> <i_i_glide_posenum>
198

> <r_i_glide_eff_state_penalty>
0

> <s_user_duplicate_titles>
CHEMBL4581_lig827

> <s_m_subgroup_title>
dock_pv

> <s_m_subgroupid>
dock_pv

> <b_m_subgroup_collapsed>
1

$$$$
CHEMBL4581_lig218
                    3D
 Schrodinger Suite 2021-1.
 59 63  0  0  1  0            999 V2000
   15.2025   15.9133  104.0381 N   0  0  1  0  0  0
   15.8485   16.8676  103.1291 C   0  0  0  0  0  0
   15.7774   16.1353  101.7748 C   0  0  2  0  0  0
   15.0240   14.7069  103.2081 C   0  0  1  0  0  0
   14.5219   15.2956  101.9097 C   0  0  0  0  0  0
   16.7755   15.1038  101.7600 O   0  0  0  0  0  0
   16.3630   14.1060  102.7071 C   0  0  0  0  0  0
   22.7731   14.9925  105.3102 C   0  0  0  0  0  0
   21.9786   16.1291  105.4004 C   0  0  0  0  0  0
   20.9329   16.1697  106.3164 C   0  0  0  0  0  0
   20.6681   15.0839  107.1662 C   0  0  0  0  0  0
   21.5180   13.9621  107.1067 C   0  0  0  0  0  0
   22.5347   13.9159  106.1589 C   0  0  0  0  0  0
   22.1954   17.1763  104.5767 F   0  0  0  0  0  0
   21.4345   12.9388  107.9883 F   0  0  0  0  0  0
   19.4911   15.1378  107.9270 N   0  0  0  0  0  0
   19.2505   14.2592  108.9992 N   0  0  0  0  0  0
   17.9898   14.1205  109.1697 C   0  0  0  0  0  0
   17.1145   14.9751  108.2264 C   0  0  2  0  0  0
   18.2336   15.3115  107.2466 C   0  0  0  0  0  0
   17.4551   13.3208  110.2741 C   0  0  0  0  0  0
   16.3179   12.8541  110.2798 O   0  0  0  0  0  0
   18.3172   13.1503  111.5279 C   0  0  0  0  0  0
   16.5522   16.1935  109.0060 C   0  0  0  0  0  0
   16.0142   14.1743  107.4277 C   0  0  0  0  0  0
   15.1560   14.9414  106.3770 C   0  0  0  0  0  0
   15.9298   15.7379  105.2958 C   0  0  0  0  0  0
   15.2745   16.1486  109.5845 C   0  0  0  0  0  0
   14.7991   17.2152  110.3432 C   0  0  0  0  0  0
   15.6050   18.3309  110.5473 C   0  0  0  0  0  0
   16.8778   18.3901  109.9906 C   0  0  0  0  0  0
   17.3463   17.3325  109.2208 C   0  0  0  0  0  0
   15.2514   17.7780  103.0641 H   0  0  0  0  0  0
   16.8862   17.0986  103.3768 H   0  0  0  0  0  0
   15.8210   16.7874  100.9019 H   0  0  0  0  0  0
   14.3536   13.9714  103.6552 H   0  0  0  0  0  0
   13.6074   15.8833  102.0155 H   0  0  0  0  0  0
   14.3882   14.5698  101.1051 H   0  0  0  0  0  0
   17.0906   13.9621  103.5032 H   0  0  0  0  0  0
   16.1680   13.1621  102.1981 H   0  0  0  0  0  0
   23.5598   14.9415  104.5737 H   0  0  0  0  0  0
   20.3084   17.0511  106.3454 H   0  0  0  0  0  0
   23.1181   13.0180  106.0899 H   0  0  0  0  0  0
   18.1549   16.2715  106.7363 H   0  0  0  0  0  0
   18.2561   14.5517  106.4606 H   0  0  0  0  0  0
   18.1107   13.9586  112.2290 H   0  0  0  0  0  0
   18.0832   12.2037  112.0156 H   0  0  0  0  0  0
   19.3817   13.1620  111.2968 H   0  0  0  0  0  0
   16.4866   13.3407  106.9030 H   0  0  0  0  0  0
   15.3301   13.6785  108.1154 H   0  0  0  0  0  0
   14.4117   14.2819  105.9315 H   0  0  0  0  0  0
   14.5570   15.6679  106.9257 H   0  0  0  0  0  0
   16.1294   16.7320  105.6995 H   0  0  0  0  0  0
   16.9015   15.3017  105.0916 H   0  0  0  0  0  0
   14.6432   15.2815  109.4655 H   0  0  0  0  0  0
   13.8130   17.1725  110.7817 H   0  0  0  0  0  0
   15.2448   19.1538  111.1480 H   0  0  0  0  0  0
   17.5089   19.2480  110.1597 H   0  0  0  0  0  0
   18.3460   17.4033  108.8192 H   0  0  0  0  0  0
  1  2  1  0  0  0
  1  4  1  0  0  0
  1 27  1  0  0  0
  2  3  1  0  0  0
  2 33  1  0  0  0
  2 34  1  0  0  0
  3  5  1  0  0  0
  3  6  1  0  0  0
  3 35  1  0  0  0
  4  7  1  0  0  0
  4  5  1  0  0  0
  4 36  1  0  0  0
  5 37  1  0  0  0
  5 38  1  0  0  0
  6  7  1  0  0  0
  7 39  1  0  0  0
  7 40  1  0  0  0
  8  9  2  0  0  0
  8 13  1  0  0  0
  8 41  1  0  0  0
  9 10  1  0  0  0
  9 14  1  0  0  0
 10 11  2  0  0  0
 10 42  1  0  0  0
 11 16  1  0  0  0
 11 12  1  0  0  0
 12 13  2  0  0  0
 12 15  1  0  0  0
 13 43  1  0  0  0
 16 17  1  0  0  0
 16 20  1  0  0  0
 17 18  2  0  0  0
 18 19  1  0  0  0
 18 21  1  0  0  0
 19 20  1  0  0  0
 19 24  1  0  0  0
 19 25  1  0  0  0
 20 44  1  0  0  0
 20 45  1  0  0  0
 21 22  2  0  0  0
 21 23  1  0  0  0
 23 46  1  0  0  0
 23 47  1  0  0  0
 23 48  1  0  0  0
 24 28  2  0  0  0
 24 32  1  0  0  0
 25 26  1  0  0  0
 25 49  1  0  0  0
 25 50  1  0  0  0
 26 27  1  0  0  0
 26 51  1  0  0  0
 26 52  1  0  0  0
 27 53  1  0  0  0
 27 54  1  0  0  0
 28 29  1  0  0  0
 28 55  1  0  0  0
 29 30  2  0  0  0
 29 56  1  0  0  0
 30 31  1  0  0  0
 30 57  1  0  0  0
 31 32  2  0  0  0
 31 58  1  0  0  0
 32 59  1  0  0  0
M  END
> <s_m_entry_id>
451

> <s_m_entry_name>
dock_pv.450

> <s_m_Source_Path>
/home/csk/Desktop/cluster/DUD-E-result/kif11

> <s_m_Source_File>
dock_pv.maegz

> <i_m_Source_File_Index>
450

> <chembl_id>
CHEMBL246603

> <chembl_pref_name>
None

> <i_lp_mmshare_version>
53161

> <i_f3d_flags>
0

> <r_lp_tautomer_probability>
1

> <s_lp_Force_Field>
OPLS_2005

> <r_lp_Energy>
96.946705

> <b_lp_Chiralities_Consistent>
1

> <s_lp_Variant>
CHEMBL4581_lig218-4

> <s_i_glide_gridfile>
glide-grid_3cjo

> <i_i_glide_lignum>
331

> <i_i_glide_rotatable_bonds>
7

> <r_i_docking_score>
-7.22771865440524

> <r_i_glide_ligand_efficiency>
-0.225866207950164

> <r_i_glide_ligand_efficiency_sa>
-0.717080511379912

> <r_i_glide_ligand_efficiency_ln>
-1.61848322689076

> <r_i_glide_gscore>
-7.22771865440524

> <r_i_glide_lipo>
-3.06850082461265

> <r_i_glide_hbond>
-0.190094801064396

> <r_i_glide_metal>
0

> <r_i_glide_rewards>
-2.05858461841473

> <r_i_glide_evdw>
-41.942253112793

> <r_i_glide_ecoul>
-2.20045471191406

> <r_i_glide_erotb>
0.516642452113294

> <r_i_glide_esite>
0

> <r_i_glide_emodel>
-60.0284321675471

> <r_i_glide_energy>
-44.142707824707

> <r_i_glide_einternal>
6.40033197402954

> <i_i_glide_confnum>
45

> <i_i_glide_posenum>
60

> <r_i_glide_eff_state_penalty>
0

> <s_user_duplicate_titles>
CHEMBL4581_lig218

> <s_m_subgroup_title>
dock_pv

> <s_m_subgroupid>
dock_pv

> <b_m_subgroup_collapsed>
1

$$$$
CHEMBL4581_lig889
                    3D
 Schrodinger Suite 2021-1.
 48 50  0  0  1  0            999 V2000
   18.1438   15.0237  108.8564 C   0  0  1  0  0  0
   18.1832   14.3298  110.2597 C   0  0  0  0  0  0
   19.5175   14.8296  108.1231 C   0  0  0  0  0  0
   17.5023   13.1255  110.5127 C   0  0  0  0  0  0
   17.5221   12.5349  111.7713 C   0  0  0  0  0  0
   18.2632   13.1180  112.7965 C   0  0  0  0  0  0
   18.9588   14.3052  112.5691 C   0  0  0  0  0  0
   18.9221   14.9011  111.3107 C   0  0  0  0  0  0
   20.3826   13.7670  108.4425 C   0  0  0  0  0  0
   21.5180   13.5049  107.6678 C   0  0  0  0  0  0
   21.8440   14.3199  106.5862 C   0  0  0  0  0  0
   21.0880   15.4648  106.3528 C   0  0  0  0  0  0
   19.9241   15.7011  107.0907 C   0  0  0  0  0  0
   16.9599   14.5146  107.9574 C   0  0  0  0  0  0
   17.1508   14.0793  106.6301 C   0  0  0  0  0  0
   16.0900   13.6052  105.8625 C   0  0  0  0  0  0
   14.8105   13.5566  106.4044 C   0  0  0  0  0  0
   14.5902   13.9659  107.7145 C   0  0  0  0  0  0
   15.6554   14.4331  108.4783 C   0  0  0  0  0  0
   17.8982   16.8534  109.1059 S   0  0  0  0  0  0
   16.4297   17.0655  110.1712 C   0  0  0  0  0  0
   16.2663   18.4637  110.7845 C   0  0  0  0  0  0
   15.9181   19.4317  109.7565 N   0  0  0  0  0  0
   18.3094   12.4493  114.1574 C   0  0  0  0  0  0
   21.5436   16.4137  105.3585 C   0  0  0  0  0  0
   21.9152   17.1621  104.5623 N   0  0  0  0  0  0
   16.9629   12.6091  109.7338 H   0  0  0  0  0  0
   16.9861   11.6091  111.9330 H   0  0  0  0  0  0
   19.5374   14.7617  113.3603 H   0  0  0  0  0  0
   19.4759   15.8162  111.1540 H   0  0  0  0  0  0
   20.1461   13.0752  109.2372 H   0  0  0  0  0  0
   22.1338   12.6489  107.8959 H   0  0  0  0  0  0
   22.7264   14.0957  106.0022 H   0  0  0  0  0  0
   19.3173   16.5598  106.8404 H   0  0  0  0  0  0
   18.1232   14.0740  106.1603 H   0  0  0  0  0  0
   16.2673   13.2657  104.8519 H   0  0  0  0  0  0
   13.9899   13.1831  105.8112 H   0  0  0  0  0  0
   13.5990   13.9071  108.1385 H   0  0  0  0  0  0
   15.4550   14.7016  109.5030 H   0  0  0  0  0  0
   15.5376   16.8504  109.5835 H   0  0  0  0  0  0
   16.4658   16.3308  110.9739 H   0  0  0  0  0  0
   15.4679   18.4518  111.5251 H   0  0  0  0  0  0
   17.1807   18.7651  111.2987 H   0  0  0  0  0  0
   15.8552   20.3570  110.1588 H   0  0  0  0  0  0
   16.6572   19.4684  109.0693 H   0  0  0  0  0  0
   18.4795   13.1618  114.9588 H   0  0  0  0  0  0
   17.3598   11.9625  114.3817 H   0  0  0  0  0  0
   19.1169   11.7192  114.1952 H   0  0  0  0  0  0
  1  2  1  0  0  0
  1  3  1  0  0  0
  1 14  1  0  0  0
  1 20  1  0  0  0
  2  4  2  0  0  0
  2  8  1  0  0  0
  3  9  2  0  0  0
  3 13  1  0  0  0
  4  5  1  0  0  0
  4 27  1  0  0  0
  5  6  2  0  0  0
  5 28  1  0  0  0
  6  7  1  0  0  0
  6 24  1  0  0  0
  7  8  2  0  0  0
  7 29  1  0  0  0
  8 30  1  0  0  0
  9 10  1  0  0  0
  9 31  1  0  0  0
 10 11  2  0  0  0
 10 32  1  0  0  0
 11 12  1  0  0  0
 11 33  1  0  0  0
 12 13  2  0  0  0
 12 25  1  0  0  0
 13 34  1  0  0  0
 14 15  2  0  0  0
 14 19  1  0  0  0
 15 16  1  0  0  0
 15 35  1  0  0  0
 16 17  2  0  0  0
 16 36  1  0  0  0
 17 18  1  0  0  0
 17 37  1  0  0  0
 18 19  2  0  0  0
 18 38  1  0  0  0
 19 39  1  0  0  0
 20 21  1  0  0  0
 21 22  1  0  0  0
 21 40  1  0  0  0
 21 41  1  0  0  0
 22 23  1  0  0  0
 22 42  1  0  0  0
 22 43  1  0  0  0
 23 44  1  0  0  0
 23 45  1  0  0  0
 24 46  1  0  0  0
 24 47  1  0  0  0
 24 48  1  0  0  0
 25 26  3  0  0  0
M  END
> <s_m_entry_id>
452

> <s_m_entry_name>
dock_pv.451

> <s_m_Source_Path>
/home/csk/Desktop/cluster/DUD-E-result/kif11

> <s_m_Source_File>
dock_pv.maegz

> <i_m_Source_File_Index>
451

> <chembl_id>
CHEMBL2325422

> <chembl_pref_name>
None

> <i_lp_mmshare_version>
53161

> <i_f3d_flags>
0

> <r_lp_tautomer_probability>
1

> <s_lp_Force_Field>
OPLS_2005

> <r_lp_Energy>
24.198932

> <b_lp_Chiralities_Consistent>
1

> <s_lp_Variant>
CHEMBL4581_lig889-1

> <s_i_glide_gridfile>
glide-grid_3cjo

> <i_i_glide_lignum>
1283

> <i_i_glide_rotatable_bonds>
6

> <r_i_docking_score>
-7.22104864937057

> <r_i_glide_ligand_efficiency>
-0.277732640360406

> <r_i_glide_ligand_efficiency_sa>
-0.822781854242535

> <r_i_glide_ligand_efficiency_ln>
-1.69583958111147

> <r_i_glide_gscore>
-7.22104864937057

> <r_i_glide_lipo>
-4.31729308003329

> <r_i_glide_hbond>
0

> <r_i_glide_metal>
0

> <r_i_glide_rewards>
-1.47055713676074

> <r_i_glide_evdw>
-45.050464630127

> <r_i_glide_ecoul>
0.493772327899933

> <r_i_glide_erotb>
0.74525894974483

> <r_i_glide_esite>
0

> <r_i_glide_emodel>
-61.1137774111601

> <r_i_glide_energy>
-44.556692302227

> <r_i_glide_einternal>
4.46813535690308

> <i_i_glide_confnum>
8

> <i_i_glide_posenum>
200

> <r_i_glide_eff_state_penalty>
0

> <s_user_duplicate_titles>
CHEMBL4581_lig889

> <s_m_subgroup_title>
dock_pv

> <s_m_subgroupid>
dock_pv

> <b_m_subgroup_collapsed>
1

$$$$
CHEMBL4581_lig758
                    3D
 Schrodinger Suite 2021-1.
 42 45  0  0  1  0            999 V2000
   16.6937   15.1383  108.2726 C   0  0  2  0  0  0
   15.6009   14.1329  107.7770 C   0  0  0  0  0  0
   14.2698   14.2208  108.5411 C   0  0  0  0  0  0
   13.7659   15.5543  108.5043 O   0  0  0  0  0  0
   17.6498   15.5648  106.8060 S   0  0  0  0  0  0
   19.1458   15.0292  107.6216 C   0  0  0  0  0  0
   18.9995   14.5055  108.7671 N   0  0  0  0  0  0
   17.7043   14.5195  109.1691 N   0  0  0  0  0  0
   20.4199   15.2023  106.9164 C   0  0  0  0  0  0
   20.6163   16.3472  106.1299 C   0  0  0  0  0  0
   21.7609   16.4811  105.3523 C   0  0  0  0  0  0
   22.7190   15.4742  105.3550 C   0  0  0  0  0  0
   22.5595   14.3527  106.1568 C   0  0  0  0  0  0
   21.4284   14.2228  106.9576 C   0  0  0  0  0  0
   17.3854   14.0857  110.4240 C   0  0  0  0  0  0
   16.3182   14.3651  110.9585 O   0  0  0  0  0  0
   18.3625   13.2070  111.2329 C   0  0  0  0  0  0
   21.3608   13.1617  107.7890 F   0  0  0  0  0  0
   21.9184   17.5616  104.5585 F   0  0  0  0  0  0
   16.0441   16.4198  108.8331 C   0  0  0  0  0  0
   14.6413   16.5263  108.9445 C   0  0  0  0  0  0
   14.0437   17.6707  109.4711 C   0  0  0  0  0  0
   14.8330   18.7295  109.9153 C   0  0  0  0  0  0
   16.2203   18.6421  109.8236 C   0  0  0  0  0  0
   16.8162   17.4985  109.2958 C   0  0  0  0  0  0
   17.6259   12.0867  112.0048 C   0  0  0  0  0  0
   15.9784   13.1079  107.7879 H   0  0  0  0  0  0
   15.3436   14.3281  106.7339 H   0  0  0  0  0  0
   14.3835   13.8836  109.5690 H   0  0  0  0  0  0
   13.5308   13.5614  108.0835 H   0  0  0  0  0  0
   19.8799   17.1373  106.0908 H   0  0  0  0  0  0
   23.5787   15.5556  104.7186 H   0  0  0  0  0  0
   23.3123   13.5787  106.1579 H   0  0  0  0  0  0
   19.1120   12.7623  110.5747 H   0  0  0  0  0  0
   18.9031   13.8477  111.9303 H   0  0  0  0  0  0
   12.9669   17.7375  109.5331 H   0  0  0  0  0  0
   14.3737   19.6157  110.3282 H   0  0  0  0  0  0
   16.8380   19.4598  110.1610 H   0  0  0  0  0  0
   17.8950   17.4487  109.2395 H   0  0  0  0  0  0
   18.3217   11.4786  112.5763 H   0  0  0  0  0  0
   16.9164   12.4828  112.7334 H   0  0  0  0  0  0
   17.0970   11.4105  111.3284 H   0  0  0  0  0  0
  1  2  1  0  0  0
  1 20  1  0  0  0
  1  8  1  0  0  0
  1  5  1  0  0  0
  2  3  1  0  0  0
  2 27  1  0  0  0
  2 28  1  0  0  0
  3  4  1  0  0  0
  3 29  1  0  0  0
  3 30  1  0  0  0
  4 21  1  0  0  0
  5  6  1  0  0  0
  6  7  2  0  0  0
  6  9  1  0  0  0
  7  8  1  0  0  0
  8 15  1  0  0  0
  9 10  2  0  0  0
  9 14  1  0  0  0
 10 11  1  0  0  0
 10 31  1  0  0  0
 11 12  2  0  0  0
 11 19  1  0  0  0
 12 13  1  0  0  0
 12 32  1  0  0  0
 13 14  2  0  0  0
 13 33  1  0  0  0
 14 18  1  0  0  0
 15 16  2  0  0  0
 15 17  1  0  0  0
 17 26  1  0  0  0
 17 34  1  0  0  0
 17 35  1  0  0  0
 20 21  2  0  0  0
 20 25  1  0  0  0
 21 22  1  0  0  0
 22 23  2  0  0  0
 22 36  1  0  0  0
 23 24  1  0  0  0
 23 37  1  0  0  0
 24 25  2  0  0  0
 24 38  1  0  0  0
 25 39  1  0  0  0
 26 40  1  0  0  0
 26 41  1  0  0  0
 26 42  1  0  0  0
M  END
> <s_m_entry_id>
453

> <s_m_entry_name>
dock_pv.452

> <s_m_Source_Path>
/home/csk/Desktop/cluster/DUD-E-result/kif11

> <s_m_Source_File>
dock_pv.maegz

> <i_m_Source_File_Index>
452

> <chembl_id>
CHEMBL3402343

> <chembl_pref_name>
None

> <i_lp_mmshare_version>
53161

> <i_f3d_flags>
0

> <r_lp_tautomer_probability>
1

> <s_lp_Force_Field>
OPLS_2005

> <r_lp_Energy>
27.141864

> <b_lp_Chiralities_Consistent>
1

> <s_lp_Variant>
CHEMBL4581_lig758-1

> <s_i_glide_gridfile>
glide-grid_3cjo

> <i_i_glide_lignum>
1121

> <i_i_glide_rotatable_bonds>
3

> <r_i_docking_score>
-7.21847187042888

> <r_i_glide_ligand_efficiency>
-0.277633533478034

> <r_i_glide_ligand_efficiency_sa>
-0.822488250493473

> <r_i_glide_ligand_efficiency_ln>
-1.69523443303212

> <r_i_glide_gscore>
-7.21847187042888

> <r_i_glide_lipo>
-3.12942452938947

> <r_i_glide_hbond>
0

> <r_i_glide_metal>
0

> <r_i_glide_rewards>
-2.32036175972815

> <r_i_glide_evdw>
-36.5000267028809

> <r_i_glide_ecoul>
-1.4636949300766

> <r_i_glide_erotb>
0.27586999334427

> <r_i_glide_esite>
0

> <r_i_glide_emodel>
-53.272208767056

> <r_i_glide_energy>
-37.9637216329575

> <r_i_glide_einternal>
1.2461234331131

> <i_i_glide_confnum>
5

> <i_i_glide_posenum>
277

> <r_i_glide_eff_state_penalty>
0

> <s_user_duplicate_titles>
CHEMBL4581_lig758

> <s_m_subgroup_title>
dock_pv

> <s_m_subgroupid>
dock_pv

> <b_m_subgroup_collapsed>
1

$$$$
CHEMBL4581_lig95
                    3D
 Schrodinger Suite 2021-1.
 62 64  0  0  1  0            999 V2000
   22.6265   14.3048  106.1105 C   0  0  0  0  0  0
   22.7325   15.3735  105.2304 C   0  0  0  0  0  0
   21.7598   16.3630  105.2008 C   0  0  0  0  0  0
   20.6373   16.2502  106.0127 C   0  0  0  0  0  0
   20.4850   15.1537  106.8785 C   0  0  0  0  0  0
   21.5179   14.1930  106.9460 C   0  0  0  0  0  0
   21.5067   13.1616  107.8224 F   0  0  0  0  0  0
   21.8832   17.4137  104.3596 F   0  0  0  0  0  0
   19.2629   15.0465  107.6886 C   0  0  0  0  0  0
   19.0564   14.1889  108.5982 N   0  0  0  0  0  0
   17.8553   14.4019  109.2046 N   0  0  0  0  0  0
   17.0530   15.4285  108.4935 C   0  0  2  0  0  0
   18.1062   15.9985  107.5334 C   0  0  0  0  0  0
   16.5631   16.5682  109.4317 C   0  0  0  0  0  0
   15.2239   16.9917  109.4694 C   0  0  0  0  0  0
   14.8509   18.0926  110.2315 C   0  0  0  0  0  0
   15.8123   18.7820  110.9589 C   0  0  0  0  0  0
   17.1374   18.3580  110.9590 C   0  0  0  0  0  0
   17.5064   17.2464  110.2173 C   0  0  0  0  0  0
   17.4767   13.7206  110.3263 C   0  0  0  0  0  0
   18.4729   13.1728  111.0489 N   0  0  0  0  0  0
   16.3170   13.7074  110.7309 O   0  0  0  0  0  0
   18.5069   13.0893  112.5059 C   0  0  0  0  0  0
   15.8659   14.7363  107.7178 C   0  0  0  0  0  0
   19.1183   14.3610  113.0985 C   0  0  0  0  0  0
   16.1588   13.5744  106.7263 C   0  0  0  0  0  0
   16.6444   13.9614  105.3092 C   0  0  0  0  0  0
   15.7298   14.9752  104.5636 C   0  0  0  0  0  0
   16.2931   15.4005  103.2010 N   0  3  0  0  0  0
   17.5183   15.9623  103.3268 O   0  5  0  0  0  0
   16.3522   14.2122  102.2576 C   0  0  0  0  0  0
   15.3424   16.4196  102.6016 C   0  0  0  0  0  0
   23.4050   13.5622  106.1515 H   0  0  0  0  0  0
   23.5679   15.4293  104.5609 H   0  0  0  0  0  0
   19.8899   17.0264  105.9380 H   0  0  0  0  0  0
   17.7447   16.0766  106.5118 H   0  0  0  0  0  0
   18.4368   17.0018  107.8034 H   0  0  0  0  0  0
   14.4496   16.5013  108.9025 H   0  0  0  0  0  0
   13.8209   18.4192  110.2465 H   0  0  0  0  0  0
   15.5230   19.6450  111.5406 H   0  0  0  0  0  0
   17.8775   18.8861  111.5441 H   0  0  0  0  0  0
   18.5428   16.9385  110.2213 H   0  0  0  0  0  0
   19.3510   13.0173  110.5725 H   0  0  0  0  0  0
   17.5081   12.9228  112.9144 H   0  0  0  0  0  0
   19.1003   12.2323  112.8190 H   0  0  0  0  0  0
   15.2805   15.4912  107.1976 H   0  0  0  0  0  0
   15.1773   14.3298  108.4611 H   0  0  0  0  0  0
   19.2976   14.2359  114.1590 H   0  0  0  0  0  0
   20.0766   14.6081  112.6399 H   0  0  0  0  0  0
   18.4463   15.2078  112.9690 H   0  0  0  0  0  0
   15.2422   12.9940  106.6089 H   0  0  0  0  0  0
   16.8692   12.8743  107.1701 H   0  0  0  0  0  0
   16.7169   13.0363  104.7398 H   0  0  0  0  0  0
   17.6664   14.3337  105.3565 H   0  0  0  0  0  0
   15.6363   15.9035  105.1252 H   0  0  0  0  0  0
   14.7300   14.5684  104.3984 H   0  0  0  0  0  0
   15.3742   13.7306  102.2339 H   0  0  0  0  0  0
   17.1178   13.5264  102.6212 H   0  0  0  0  0  0
   16.6288   14.5849  101.2707 H   0  0  0  0  0  0
   14.3570   15.9647  102.4889 H   0  0  0  0  0  0
   15.3013   17.2784  103.2729 H   0  0  0  0  0  0
   15.7422   16.7295  101.6354 H   0  0  0  0  0  0
  1  6  1  0  0  0
  1  2  2  0  0  0
  1 33  1  0  0  0
  2  3  1  0  0  0
  2 34  1  0  0  0
  3  4  2  0  0  0
  3  8  1  0  0  0
  4  5  1  0  0  0
  4 35  1  0  0  0
  5  9  1  0  0  0
  5  6  2  0  0  0
  6  7  1  0  0  0
  9 10  2  0  0  0
  9 13  1  0  0  0
 10 11  1  0  0  0
 11 20  1  0  0  0
 11 12  1  0  0  0
 12 24  1  0  0  0
 12 13  1  0  0  0
 12 14  1  0  0  0
 13 36  1  0  0  0
 13 37  1  0  0  0
 14 19  1  0  0  0
 14 15  2  0  0  0
 15 16  1  0  0  0
 15 38  1  0  0  0
 16 17  2  0  0  0
 16 39  1  0  0  0
 17 18  1  0  0  0
 17 40  1  0  0  0
 18 19  2  0  0  0
 18 41  1  0  0  0
 19 42  1  0  0  0
 20 21  1  0  0  0
 20 22  2  0  0  0
 21 23  1  0  0  0
 21 43  1  0  0  0
 23 25  1  0  0  0
 23 44  1  0  0  0
 23 45  1  0  0  0
 24 26  1  0  0  0
 24 46  1  0  0  0
 24 47  1  0  0  0
 25 48  1  0  0  0
 25 49  1  0  0  0
 25 50  1  0  0  0
 26 27  1  0  0  0
 26 51  1  0  0  0
 26 52  1  0  0  0
 27 28  1  0  0  0
 27 53  1  0  0  0
 27 54  1  0  0  0
 28 29  1  0  0  0
 28 55  1  0  0  0
 28 56  1  0  0  0
 29 30  1  0  0  0
 29 31  1  0  0  0
 29 32  1  0  0  0
 31 57  1  0  0  0
 31 58  1  0  0  0
 31 59  1  0  0  0
 32 60  1  0  0  0
 32 61  1  0  0  0
 32 62  1  0  0  0
M  CHG  2  29   1  30  -1
M  END
> <s_m_entry_id>
454

> <s_m_entry_name>
dock_pv.453

> <s_m_Source_Path>
/home/csk/Desktop/cluster/DUD-E-result/kif11

> <s_m_Source_File>
dock_pv.maegz

> <i_m_Source_File_Index>
453

> <chembl_id>
CHEMBL378184

> <chembl_pref_name>
None

> <i_lp_mmshare_version>
53161

> <i_f3d_flags>
0

> <r_lp_tautomer_probability>
1

> <s_lp_Force_Field>
OPLS_2005

> <r_lp_Energy>
39.656828

> <b_lp_Chiralities_Consistent>
1

> <s_lp_Variant>
CHEMBL4581_lig95-1

> <s_i_glide_gridfile>
glide-grid_3cjo

> <i_i_glide_lignum>
156

> <i_i_glide_rotatable_bonds>
10

> <r_i_docking_score>
-7.21561078484556

> <r_i_glide_ligand_efficiency>
-0.225487837026424

> <r_i_glide_ligand_efficiency_sa>
-0.715879258576542

> <r_i_glide_ligand_efficiency_ln>
-1.61577194484829

> <r_i_glide_gscore>
-7.21561078484556

> <r_i_glide_lipo>
-3.40710504428416

> <r_i_glide_hbond>
-0.16

> <r_i_glide_metal>
0

> <r_i_glide_rewards>
-1.73954090211261

> <r_i_glide_evdw>
-42.9863815307617

> <r_i_glide_ecoul>
-3.71228408813477

> <r_i_glide_erotb>
0.809758532823369

> <r_i_glide_esite>
-0.0125616815138531

> <r_i_glide_emodel>
-64.00219715379

> <r_i_glide_energy>
-46.6986656188965

> <r_i_glide_einternal>
6.83634185791016

> <i_i_glide_confnum>
57

> <i_i_glide_posenum>
279

> <r_i_glide_eff_state_penalty>
0

> <s_user_duplicate_titles>
CHEMBL4581_lig95

> <s_m_subgroup_title>
dock_pv

> <s_m_subgroupid>
dock_pv

> <b_m_subgroup_collapsed>
1

$$$$
CHEMBL4581_lig876
                    3D
 Schrodinger Suite 2021-1.
 47 49  0  0  1  0            999 V2000
   18.0250   15.0902  108.4841 C   0  0  0  0  0  0
   16.8368   14.7391  107.5167 C   0  0  0  0  0  0
   17.9134   14.3063  109.8399 C   0  0  0  0  0  0
   15.5109   14.7732  107.9895 C   0  0  0  0  0  0
   14.4349   14.4237  107.1800 C   0  0  0  0  0  0
   14.6649   14.0182  105.8713 C   0  0  0  0  0  0
   15.9621   13.9543  105.3766 C   0  0  0  0  0  0
   17.0336   14.3085  106.1915 C   0  0  0  0  0  0
   17.1639   13.1149  109.9255 C   0  0  0  0  0  0
   17.1140   12.3621  111.0945 C   0  0  0  0  0  0
   17.8320   12.7642  112.2113 C   0  0  0  0  0  0
   18.6061   13.9206  112.1532 C   0  0  0  0  0  0
   18.6483   14.6865  110.9826 C   0  0  0  0  0  0
   19.4327   14.8225  107.8375 C   0  0  0  0  0  0
   19.8612   15.5757  106.7268 C   0  0  0  0  0  0
   21.0722   15.3118  106.0944 C   0  0  0  0  0  0
   21.8825   14.2832  106.5590 C   0  0  0  0  0  0
   21.5182   13.5618  107.6903 C   0  0  0  0  0  0
   20.3185   13.8479  108.3368 C   0  0  0  0  0  0
   17.9950   16.9310  108.7654 S   0  0  0  0  0  0
   16.4092   17.4914  109.4502 C   0  0  0  0  0  0
   16.1438   17.1078  110.9085 C   0  0  0  0  0  0
   14.9083   17.7187  111.3590 N   0  0  0  0  0  0
   19.4501   15.7761  110.9625 F   0  0  0  0  0  0
   19.4155   14.3368  113.3596 C   0  0  0  0  0  0
   15.3045   15.0439  109.0132 H   0  0  0  0  0  0
   13.4278   14.4551  107.5698 H   0  0  0  0  0  0
   13.8338   13.7368  105.2417 H   0  0  0  0  0  0
   16.1466   13.6152  104.3677 H   0  0  0  0  0  0
   18.0151   14.2036  105.7612 H   0  0  0  0  0  0
   16.6361   12.7167  109.0714 H   0  0  0  0  0  0
   16.5330   11.4516  111.1226 H   0  0  0  0  0  0
   17.7946   12.1680  113.1124 H   0  0  0  0  0  0
   19.2317   16.3557  106.3239 H   0  0  0  0  0  0
   21.3691   15.8858  105.2290 H   0  0  0  0  0  0
   22.8098   14.0590  106.0526 H   0  0  0  0  0  0
   22.1604   12.7768  108.0605 H   0  0  0  0  0  0
   20.0715   13.2361  109.1902 H   0  0  0  0  0  0
   16.4464   18.5799  109.3816 H   0  0  0  0  0  0
   15.5870   17.2105  108.7967 H   0  0  0  0  0  0
   16.0830   16.0277  111.0350 H   0  0  0  0  0  0
   16.9661   17.4627  111.5287 H   0  0  0  0  0  0
   15.0099   17.9603  112.3405 H   0  0  0  0  0  0
   14.7945   18.6102  110.8962 H   0  0  0  0  0  0
   19.5217   13.5338  114.0912 H   0  0  0  0  0  0
   20.4147   14.6681  113.0735 H   0  0  0  0  0  0
   18.9004   15.1738  113.8088 H   0  0  0  0  0  0
  1  2  1  0  0  0
  1  3  1  0  0  0
  1 14  1  0  0  0
  1 20  1  0  0  0
  2  4  2  0  0  0
  2  8  1  0  0  0
  3  9  2  0  0  0
  3 13  1  0  0  0
  4  5  1  0  0  0
  4 26  1  0  0  0
  5  6  2  0  0  0
  5 27  1  0  0  0
  6  7  1  0  0  0
  6 28  1  0  0  0
  7  8  2  0  0  0
  7 29  1  0  0  0
  8 30  1  0  0  0
  9 10  1  0  0  0
  9 31  1  0  0  0
 10 11  2  0  0  0
 10 32  1  0  0  0
 11 12  1  0  0  0
 11 33  1  0  0  0
 12 13  2  0  0  0
 12 25  1  0  0  0
 13 24  1  0  0  0
 14 15  2  0  0  0
 14 19  1  0  0  0
 15 16  1  0  0  0
 15 34  1  0  0  0
 16 17  2  0  0  0
 16 35  1  0  0  0
 17 18  1  0  0  0
 17 36  1  0  0  0
 18 19  2  0  0  0
 18 37  1  0  0  0
 19 38  1  0  0  0
 20 21  1  0  0  0
 21 22  1  0  0  0
 21 39  1  0  0  0
 21 40  1  0  0  0
 22 23  1  0  0  0
 22 41  1  0  0  0
 22 42  1  0  0  0
 23 43  1  0  0  0
 23 44  1  0  0  0
 25 45  1  0  0  0
 25 46  1  0  0  0
 25 47  1  0  0  0
M  END
> <s_m_entry_id>
455

> <s_m_entry_name>
dock_pv.454

> <s_m_Source_Path>
/home/csk/Desktop/cluster/DUD-E-result/kif11

> <s_m_Source_File>
dock_pv.maegz

> <i_m_Source_File_Index>
454

> <chembl_id>
CHEMBL2325404

> <chembl_pref_name>
None

> <i_lp_mmshare_version>
53161

> <i_f3d_flags>
0

> <r_lp_tautomer_probability>
1

> <s_lp_Force_Field>
OPLS_2005

> <r_lp_Energy>
27.045569

> <b_lp_Chiralities_Consistent>
1

> <s_lp_Variant>
CHEMBL4581_lig876-1

> <s_i_glide_gridfile>
glide-grid_3cjo

> <i_i_glide_lignum>
1268

> <i_i_glide_rotatable_bonds>
6

> <r_i_docking_score>
-7.21426370172357

> <r_i_glide_ligand_efficiency>
-0.288570548068943

> <r_i_glide_ligand_efficiency_sa>
-0.843785400374051

> <r_i_glide_ligand_efficiency_ln>
-1.70999669134584

> <r_i_glide_gscore>
-7.21426370172357

> <r_i_glide_lipo>
-4.06680803321794

> <r_i_glide_hbond>
-0.32

> <r_i_glide_metal>
0

> <r_i_glide_rewards>
-1.30993457715573

> <r_i_glide_evdw>
-37.3000526428223

> <r_i_glide_ecoul>
-2.8298511505127

> <r_i_glide_erotb>
0.771959213368108

> <r_i_glide_esite>
0

> <r_i_glide_emodel>
-53.5581704069679

> <r_i_glide_energy>
-40.129903793335

> <r_i_glide_einternal>
6.30619287490845

> <i_i_glide_confnum>
137

> <i_i_glide_posenum>
178

> <r_i_glide_eff_state_penalty>
0

> <s_user_duplicate_titles>
CHEMBL4581_lig876

> <s_m_subgroup_title>
dock_pv

> <s_m_subgroupid>
dock_pv

> <b_m_subgroup_collapsed>
1

$$$$
CHEMBL4581_lig529
                    3D
 Schrodinger Suite 2021-1.
 64 67  0  0  1  0            999 V2000
   18.1836   15.9101  106.0221 N   0  0  0  0  0  0
   17.7193   15.0148  106.8306 C   0  0  0  0  0  0
   18.5807   14.3352  107.7192 N   0  0  0  0  0  0
   19.9806   14.3673  107.6521 C   0  0  0  0  0  0
   19.5216   16.0349  105.8775 C   0  0  0  0  0  0
   20.4263   15.2722  106.5980 C   0  0  0  0  0  0
   22.0478   15.5086  106.0327 S   0  0  0  0  0  0
   21.5237   16.7620  104.9592 C   0  0  0  0  0  0
   20.1434   16.8940  104.9683 C   0  0  0  0  0  0
   20.7253   13.7054  108.3812 O   0  0  0  0  0  0
   16.1794   14.7422  106.8207 C   0  0  1  0  0  0
   15.3914   15.8429  106.1597 N   0  0  0  0  0  0
   15.8642   13.3150  106.2606 C   0  0  0  0  0  0
   14.9964   16.9792  106.8125 C   0  0  0  0  0  0
   15.3544   17.1648  108.2641 C   0  0  0  0  0  0
   14.3175   17.8631  106.2854 O   0  0  0  0  0  0
   14.9810   15.6692  104.7388 C   0  0  0  0  0  0
   16.1211   15.6855  103.7009 C   0  0  0  0  0  0
   18.0331   13.3782  108.7327 C   0  0  0  0  0  0
   18.1923   13.6326  110.2357 C   0  0  0  0  0  0
   17.5414   12.7456  111.0998 C   0  0  0  0  0  0
   17.6876   12.8638  112.4791 C   0  0  0  0  0  0
   18.4801   13.8829  112.9980 C   0  0  0  0  0  0
   19.1161   14.7879  112.1510 C   0  0  0  0  0  0
   18.9622   14.6722  110.7711 C   0  0  0  0  0  0
   14.4402   12.8402  106.5946 C   0  0  0  0  0  0
   15.6099   15.3728  102.2892 C   0  0  0  0  0  0
   16.7173   15.3581  101.3529 N   0  0  0  0  0  0
   14.3557   17.0666  109.2378 C   0  0  0  0  0  0
   14.6617   17.2813  110.5802 C   0  0  0  0  0  0
   15.9639   17.5991  110.9585 C   0  0  0  0  0  0
   16.9677   17.7200  109.9981 C   0  0  0  0  0  0
   16.6585   17.5016  108.6533 C   0  0  0  0  0  0
   18.3785   18.0865  110.4174 C   0  0  0  0  0  0
   22.2382   17.2832  104.3365 H   0  0  0  0  0  0
   19.5957   17.5621  104.3253 H   0  0  0  0  0  0
   15.8623   14.7319  107.8636 H   0  0  0  0  0  0
   16.0213   13.2665  105.1851 H   0  0  0  0  0  0
   16.5519   12.5637  106.6467 H   0  0  0  0  0  0
   14.4250   14.7411  104.6339 H   0  0  0  0  0  0
   14.2539   16.4227  104.4303 H   0  0  0  0  0  0
   16.6066   16.6624  103.7159 H   0  0  0  0  0  0
   16.8803   14.9470  103.9570 H   0  0  0  0  0  0
   16.9708   13.2033  108.5982 H   0  0  0  0  0  0
   18.4857   12.4026  108.5507 H   0  0  0  0  0  0
   16.9416   11.9374  110.7031 H   0  0  0  0  0  0
   17.1946   12.1651  113.1406 H   0  0  0  0  0  0
   18.6046   13.9630  114.0667 H   0  0  0  0  0  0
   19.7328   15.5735  112.5601 H   0  0  0  0  0  0
   19.4691   15.3778  110.1324 H   0  0  0  0  0  0
   14.2434   11.8595  106.1599 H   0  0  0  0  0  0
   14.3115   12.7622  107.6722 H   0  0  0  0  0  0
   13.6712   13.5185  106.2277 H   0  0  0  0  0  0
   15.1173   14.3999  102.2694 H   0  0  0  0  0  0
   14.8762   16.1157  101.9725 H   0  0  0  0  0  0
   16.3600   15.1593  100.4276 H   0  0  0  0  0  0
   17.0975   16.2922  101.3011 H   0  0  0  0  0  0
   13.3378   16.8347  108.9586 H   0  0  0  0  0  0
   13.8875   17.2124  111.3285 H   0  0  0  0  0  0
   16.1899   17.7702  111.9981 H   0  0  0  0  0  0
   17.4385   17.6056  107.9150 H   0  0  0  0  0  0
   19.1152   17.7663  109.6812 H   0  0  0  0  0  0
   18.4656   19.1619  110.5594 H   0  0  0  0  0  0
   18.6380   17.6049  111.3601 H   0  0  0  0  0  0
  1  5  1  0  0  0
  1  2  2  0  0  0
  2 11  1  0  0  0
  2  3  1  0  0  0
  3 19  1  0  0  0
  3  4  1  0  0  0
  4 10  2  0  0  0
  4  6  1  0  0  0
  5  9  1  0  0  0
  5  6  2  0  0  0
  6  7  1  0  0  0
  7  8  1  0  0  0
  8  9  2  0  0  0
  8 35  1  0  0  0
  9 36  1  0  0  0
 11 12  1  0  0  0
 11 13  1  0  0  0
 11 37  1  0  0  0
 12 17  1  0  0  0
 12 14  1  0  0  0
 13 26  1  0  0  0
 13 38  1  0  0  0
 13 39  1  0  0  0
 14 15  1  0  0  0
 14 16  2  0  0  0
 15 29  2  0  0  0
 15 33  1  0  0  0
 17 18  1  0  0  0
 17 40  1  0  0  0
 17 41  1  0  0  0
 18 27  1  0  0  0
 18 42  1  0  0  0
 18 43  1  0  0  0
 19 20  1  0  0  0
 19 44  1  0  0  0
 19 45  1  0  0  0
 20 21  2  0  0  0
 20 25  1  0  0  0
 21 22  1  0  0  0
 21 46  1  0  0  0
 22 23  2  0  0  0
 22 47  1  0  0  0
 23 24  1  0  0  0
 23 48  1  0  0  0
 24 25  2  0  0  0
 24 49  1  0  0  0
 25 50  1  0  0  0
 26 51  1  0  0  0
 26 52  1  0  0  0
 26 53  1  0  0  0
 27 28  1  0  0  0
 27 54  1  0  0  0
 27 55  1  0  0  0
 28 56  1  0  0  0
 28 57  1  0  0  0
 29 30  1  0  0  0
 29 58  1  0  0  0
 30 31  2  0  0  0
 30 59  1  0  0  0
 31 32  1  0  0  0
 31 60  1  0  0  0
 32 33  2  0  0  0
 32 34  1  0  0  0
 33 61  1  0  0  0
 34 62  1  0  0  0
 34 63  1  0  0  0
 34 64  1  0  0  0
M  END
> <s_m_entry_id>
456

> <s_m_entry_name>
dock_pv.455

> <s_m_Source_Path>
/home/csk/Desktop/cluster/DUD-E-result/kif11

> <s_m_Source_File>
dock_pv.maegz

> <i_m_Source_File_Index>
455

> <chembl_id>
CHEMBL1828638

> <chembl_pref_name>
None

> <i_lp_mmshare_version>
53161

> <i_f3d_flags>
0

> <r_lp_tautomer_probability>
1

> <s_lp_Force_Field>
OPLS_2005

> <r_lp_Energy>
51.870648

> <b_lp_Chiralities_Consistent>
1

> <s_lp_Variant>
CHEMBL4581_lig529-2

> <s_i_glide_gridfile>
glide-grid_3cjo

> <i_i_glide_lignum>
783

> <i_i_glide_rotatable_bonds>
10

> <r_i_docking_score>
-7.21322153784117

> <r_i_glide_ligand_efficiency>
-0.212153574642387

> <r_i_glide_ligand_efficiency_sa>
-0.687295223286798

> <r_i_glide_ligand_efficiency_ln>
-1.59360296172008

> <r_i_glide_gscore>
-7.21322153784117

> <r_i_glide_lipo>
-4.43869247769991

> <r_i_glide_hbond>
-0.111441019522143

> <r_i_glide_metal>
0

> <r_i_glide_rewards>
-0.526892028449414

> <r_i_glide_evdw>
-46.5301551818848

> <r_i_glide_ecoul>
-3.52240991592407

> <r_i_glide_erotb>
0.718673234313142

> <r_i_glide_esite>
0

> <r_i_glide_emodel>
-65.2559464963941

> <r_i_glide_energy>
-50.0525650978088

> <r_i_glide_einternal>
11.4470157623291

> <i_i_glide_confnum>
67

> <i_i_glide_posenum>
199

> <r_i_glide_eff_state_penalty>
0

> <s_user_duplicate_titles>
CHEMBL4581_lig529

> <s_m_subgroup_title>
dock_pv

> <s_m_subgroupid>
dock_pv

> <b_m_subgroup_collapsed>
1

$$$$
CHEMBL4581_lig820
                    3D
 Schrodinger Suite 2021-1.
 50 52  0  0  1  0            999 V2000
   15.5413   17.7889  110.2285 C   0  0  0  0  0  0
   14.6368   17.8687  111.3588 N   0  0  0  0  0  0
   16.8370   17.0823  110.6495 C   0  0  0  0  0  0
   17.9704   16.7432  109.2660 S   0  0  0  0  0  0
   18.1018   14.8964  109.0388 C   0  0  0  0  0  0
   16.8256   14.4182  108.2594 C   0  0  0  0  0  0
   19.4010   14.6824  108.1897 C   0  0  0  0  0  0
   18.2114   14.2063  110.4420 C   0  0  0  0  0  0
   15.5479   14.5776  108.8263 C   0  0  0  0  0  0
   14.3934   14.1655  108.1653 C   0  0  0  0  0  0
   14.4868   13.5629  106.9158 C   0  0  0  0  0  0
   15.7366   13.3618  106.3312 C   0  0  0  0  0  0
   16.8901   13.7811  107.0021 C   0  0  0  0  0  0
   17.4810   13.0442  110.7557 C   0  0  0  0  0  0
   17.5265   12.4853  112.0306 C   0  0  0  0  0  0
   18.3171   13.0757  113.0116 C   0  0  0  0  0  0
   19.0760   14.2051  112.7200 C   0  0  0  0  0  0
   19.0297   14.7590  111.4431 C   0  0  0  0  0  0
   19.5892   15.4177  107.0026 C   0  0  0  0  0  0
   20.7043   15.2181  106.1955 C   0  0  0  0  0  0
   21.6561   14.2743  106.5588 C   0  0  0  0  0  0
   21.5175   13.5603  107.7467 C   0  0  0  0  0  0
   20.4025   13.7659  108.5589 C   0  0  0  0  0  0
   15.8414   12.6796  104.9761 C   0  0  0  0  0  0
   15.9173   13.6820  103.8160 C   0  0  0  0  0  0
   15.7571   18.7902  109.8562 H   0  0  0  0  0  0
   15.0491   17.2522  109.4192 H   0  0  0  0  0  0
   15.0921   18.3668  112.1159 H   0  0  0  0  0  0
   13.8276   18.4210  111.1092 H   0  0  0  0  0  0
   16.6110   16.1634  111.1885 H   0  0  0  0  0  0
   17.3783   17.7120  111.3572 H   0  0  0  0  0  0
   15.4342   15.0068  109.8070 H   0  0  0  0  0  0
   13.4266   14.3074  108.6262 H   0  0  0  0  0  0
   13.5890   13.2415  106.4091 H   0  0  0  0  0  0
   17.8350   13.5788  106.5209 H   0  0  0  0  0  0
   16.8680   12.5513  110.0152 H   0  0  0  0  0  0
   16.9528   11.5957  112.2539 H   0  0  0  0  0  0
   18.3539   12.6457  114.0025 H   0  0  0  0  0  0
   19.6997   14.6500  113.4817 H   0  0  0  0  0  0
   19.6232   15.6384  111.2388 H   0  0  0  0  0  0
   18.8478   16.1361  106.6841 H   0  0  0  0  0  0
   20.8218   15.7816  105.2825 H   0  0  0  0  0  0
   22.5129   14.1008  105.9246 H   0  0  0  0  0  0
   22.2604   12.8266  108.0251 H   0  0  0  0  0  0
   20.3159   13.1716  109.4565 H   0  0  0  0  0  0
   16.7180   12.0307  104.9661 H   0  0  0  0  0  0
   14.9916   12.0089  104.8407 H   0  0  0  0  0  0
   16.0098   13.1646  102.8616 H   0  0  0  0  0  0
   15.0254   14.3086  103.7706 H   0  0  0  0  0  0
   16.7827   14.3378  103.9204 H   0  0  0  0  0  0
  1  3  1  0  0  0
  1  2  1  0  0  0
  1 26  1  0  0  0
  1 27  1  0  0  0
  2 28  1  0  0  0
  2 29  1  0  0  0
  3  4  1  0  0  0
  3 30  1  0  0  0
  3 31  1  0  0  0
  4  5  1  0  0  0
  5  7  1  0  0  0
  5  8  1  0  0  0
  5  6  1  0  0  0
  6 13  1  0  0  0
  6  9  2  0  0  0
  7 19  2  0  0  0
  7 23  1  0  0  0
  8 14  2  0  0  0
  8 18  1  0  0  0
  9 10  1  0  0  0
  9 32  1  0  0  0
 10 11  2  0  0  0
 10 33  1  0  0  0
 11 12  1  0  0  0
 11 34  1  0  0  0
 12 13  2  0  0  0
 12 24  1  0  0  0
 13 35  1  0  0  0
 14 15  1  0  0  0
 14 36  1  0  0  0
 15 16  2  0  0  0
 15 37  1  0  0  0
 16 17  1  0  0  0
 16 38  1  0  0  0
 17 18  2  0  0  0
 17 39  1  0  0  0
 18 40  1  0  0  0
 19 20  1  0  0  0
 19 41  1  0  0  0
 20 21  2  0  0  0
 20 42  1  0  0  0
 21 22  1  0  0  0
 21 43  1  0  0  0
 22 23  2  0  0  0
 22 44  1  0  0  0
 23 45  1  0  0  0
 24 25  1  0  0  0
 24 46  1  0  0  0
 24 47  1  0  0  0
 25 48  1  0  0  0
 25 49  1  0  0  0
 25 50  1  0  0  0
M  END
> <s_m_entry_id>
457

> <s_m_entry_name>
dock_pv.456

> <s_m_Source_Path>
/home/csk/Desktop/cluster/DUD-E-result/kif11

> <s_m_Source_File>
dock_pv.maegz

> <i_m_Source_File_Index>
456

> <chembl_id>
CHEMBL2022982

> <chembl_pref_name>
None

> <i_lp_mmshare_version>
53161

> <i_f3d_flags>
0

> <r_lp_tautomer_probability>
1

> <s_lp_Force_Field>
OPLS_2005

> <r_lp_Energy>
26.537268

> <b_lp_Chiralities_Consistent>
1

> <s_lp_Variant>
CHEMBL4581_lig820-1

> <s_i_glide_gridfile>
glide-grid_3cjo

> <i_i_glide_lignum>
1207

> <i_i_glide_rotatable_bonds>
7

> <r_i_docking_score>
-7.20922919239958

> <r_i_glide_ligand_efficiency>
-0.288369167695983

> <r_i_glide_ligand_efficiency_sa>
-0.84319656059202

> <r_i_glide_ligand_efficiency_ln>
-1.70880336176398

> <r_i_glide_gscore>
-7.20922919239958

> <r_i_glide_lipo>
-4.1741134359854

> <r_i_glide_hbond>
-0.32

> <r_i_glide_metal>
0

> <r_i_glide_rewards>
-1.13638014655265

> <r_i_glide_evdw>
-41.4896850585938

> <r_i_glide_ecoul>
-1.946209192276

> <r_i_glide_erotb>
0.787680021909562

> <r_i_glide_esite>
0

> <r_i_glide_emodel>
-59.4137749082673

> <r_i_glide_energy>
-43.4358942508698

> <r_i_glide_einternal>
4.27422571182251

> <i_i_glide_confnum>
185

> <i_i_glide_posenum>
51

> <r_i_glide_eff_state_penalty>
0

> <s_user_duplicate_titles>
CHEMBL4581_lig820

> <s_m_subgroup_title>
dock_pv

> <s_m_subgroupid>
dock_pv

> <b_m_subgroup_collapsed>
1

$$$$
CHEMBL4581_lig747
                    3D
 Schrodinger Suite 2021-1.
 31 32  0  0  1  0            999 V2000
   19.3526   14.1856  108.4189 S   0  0  0  0  0  0
   17.5181   12.7710  111.7335 S   0  0  0  0  0  0
   15.7340   15.9624  110.5589 O   0  0  0  0  0  0
   21.5024   14.6368  106.3222 O   0  0  0  0  0  0
   17.5604   15.9033  109.1780 N   0  0  0  0  0  0
   18.3149   16.5823  108.2728 N   0  0  0  0  0  0
   20.0718   16.3620  106.8492 N   0  0  0  0  0  0
   17.8646   14.4653  109.3975 C   0  0  2  0  0  0
   18.1761   14.1534  110.8733 C   0  0  0  0  0  0
   19.2222   15.8547  107.7798 C   0  0  0  0  0  0
   16.5235   16.5377  109.8071 C   0  0  0  0  0  0
   16.7622   13.5617  108.7770 C   0  0  0  0  0  0
   19.0212   14.8523  111.7425 C   0  0  0  0  0  0
   18.3450   13.1870  113.1938 C   0  0  0  0  0  0
   19.1164   14.3209  113.0303 C   0  0  0  0  0  0
   21.1184   15.8001  106.2079 C   0  0  0  0  0  0
   16.3181   18.0446  109.5971 C   0  0  0  0  0  0
   21.8884   16.7333  105.2789 C   0  0  0  0  0  0
   19.9192   17.3408  106.6553 H   0  0  0  0  0  0
   15.8163   13.6435  109.3133 H   0  0  0  0  0  0
   16.5648   13.8237  107.7366 H   0  0  0  0  0  0
   17.0480   12.5083  108.7898 H   0  0  0  0  0  0
   19.5576   15.7393  111.4374 H   0  0  0  0  0  0
   18.2344   12.5790  114.0805 H   0  0  0  0  0  0
   19.7277   14.7505  113.8101 H   0  0  0  0  0  0
   17.2318   18.5927  109.8306 H   0  0  0  0  0  0
   16.0420   18.2500  108.5626 H   0  0  0  0  0  0
   15.5254   18.4204  110.2449 H   0  0  0  0  0  0
   22.7603   17.1363  105.7938 H   0  0  0  0  0  0
   21.2693   17.5635  104.9388 H   0  0  0  0  0  0
   22.2339   16.1880  104.3994 H   0  0  0  0  0  0
  1  8  1  0  0  0
  1 10  1  0  0  0
  2  9  1  0  0  0
  2 14  1  0  0  0
  3 11  2  0  0  0
  4 16  2  0  0  0
  5  6  1  0  0  0
  5  8  1  0  0  0
  5 11  1  0  0  0
  6 10  2  0  0  0
  7 10  1  0  0  0
  7 16  1  0  0  0
  7 19  1  0  0  0
  8  9  1  0  0  0
  8 12  1  0  0  0
  9 13  2  0  0  0
 11 17  1  0  0  0
 12 20  1  0  0  0
 12 21  1  0  0  0
 12 22  1  0  0  0
 13 15  1  0  0  0
 13 23  1  0  0  0
 14 15  2  0  0  0
 14 24  1  0  0  0
 15 25  1  0  0  0
 16 18  1  0  0  0
 17 26  1  0  0  0
 17 27  1  0  0  0
 17 28  1  0  0  0
 18 29  1  0  0  0
 18 30  1  0  0  0
 18 31  1  0  0  0
M  END
> <s_m_entry_id>
458

> <s_m_entry_name>
dock_pv.457

> <s_m_Source_Path>
/home/csk/Desktop/cluster/DUD-E-result/kif11

> <s_m_Source_File>
dock_pv.maegz

> <i_m_Source_File_Index>
457

> <chembl_id>
CHEMBL1369692

> <chembl_pref_name>
None

> <i_lp_mmshare_version>
53161

> <i_f3d_flags>
0

> <r_lp_tautomer_probability>
1

> <s_lp_Force_Field>
OPLS_2005

> <r_lp_Energy>
11.707261

> <b_lp_Chiralities_Consistent>
1

> <s_lp_Variant>
CHEMBL4581_lig747-2

> <s_i_glide_gridfile>
glide-grid_3cjo

> <i_i_glide_lignum>
1101

> <i_i_glide_rotatable_bonds>
4

> <r_i_docking_score>
-7.20855829064499

> <r_i_glide_ligand_efficiency>
-0.400475460591388

> <r_i_glide_ligand_efficiency_sa>
-1.04954261592554

> <r_i_glide_ligand_efficiency_ln>
-1.85292273829975

> <r_i_glide_gscore>
-7.20855829064499

> <r_i_glide_lipo>
-2.47375512519993

> <r_i_glide_hbond>
-0.139757138787602

> <r_i_glide_metal>
0

> <r_i_glide_rewards>
-2.65646061757198

> <r_i_glide_evdw>
-39.875114440918

> <r_i_glide_ecoul>
-2.63916015625

> <r_i_glide_erotb>
0.451044336397914

> <r_i_glide_esite>
0

> <r_i_glide_emodel>
-58.1765609703377

> <r_i_glide_energy>
-42.514274597168

> <r_i_glide_einternal>
5.61572647094727

> <i_i_glide_confnum>
3

> <i_i_glide_posenum>
105

> <r_i_glide_eff_state_penalty>
0

> <s_user_duplicate_titles>
CHEMBL4581_lig747

> <s_m_subgroup_title>
dock_pv

> <s_m_subgroupid>
dock_pv

> <b_m_subgroup_collapsed>
1

$$$$
CHEMBL4581_lig595
                    3D
 Schrodinger Suite 2021-1.
 47 49  0  0  1  0            999 V2000
   18.8584   14.2921  108.7435 C   0  0  0  0  0  0
   17.5936   14.1392  109.6484 C   0  0  1  0  0  0
   17.9457   13.6870  111.0993 C   0  0  0  0  0  0
   18.9488   14.3674  111.8104 C   0  0  0  0  0  0
   19.2064   14.0794  113.1474 C   0  0  0  0  0  0
   18.4881   13.0751  113.7849 C   0  0  0  0  0  0
   17.5181   12.3622  113.0938 C   0  0  0  0  0  0
   17.2592   12.6520  111.7595 C   0  0  0  0  0  0
   16.6452   15.7118  109.8707 S   0  0  0  0  0  0
   17.8215   17.0250  110.3251 C   0  0  0  0  0  0
   17.2322   18.4420  110.2842 C   0  0  0  0  0  0
   16.6164   13.1288  108.9335 C   0  0  0  0  0  0
   15.9605   13.5619  107.6133 C   0  0  0  0  0  0
   14.7141   14.1996  107.6255 C   0  0  0  0  0  0
   14.0940   14.5532  106.4290 C   0  0  0  0  0  0
   14.7145   14.2578  105.2182 C   0  0  0  0  0  0
   15.9472   13.6113  105.1949 C   0  0  0  0  0  0
   16.5682   13.2646  106.3916 C   0  0  0  0  0  0
   16.7186   18.7670  108.9637 N   0  0  0  0  0  0
   18.8687   15.1755  107.6528 C   0  0  0  0  0  0
   19.9657   15.2398  106.7950 C   0  0  0  0  0  0
   21.1104   13.5704  108.1153 C   0  0  0  0  0  0
   20.0007   13.4976  108.9597 C   0  0  0  0  0  0
   21.0743   14.4279  107.0183 C   0  0  0  0  0  0
   22.1220   14.4768  106.1636 F   0  0  0  0  0  0
   19.5246   15.1427  111.3296 H   0  0  0  0  0  0
   19.9676   14.6263  113.6845 H   0  0  0  0  0  0
   18.6862   12.8381  114.8218 H   0  0  0  0  0  0
   16.9580   11.5822  113.5881 H   0  0  0  0  0  0
   16.4938   12.0600  111.2847 H   0  0  0  0  0  0
   18.1567   16.8515  111.3462 H   0  0  0  0  0  0
   18.7074   16.9721  109.6948 H   0  0  0  0  0  0
   16.4244   18.5355  111.0127 H   0  0  0  0  0  0
   17.9999   19.1619  110.5629 H   0  0  0  0  0  0
   17.1172   12.1690  108.7787 H   0  0  0  0  0  0
   15.7683   12.9007  109.5755 H   0  0  0  0  0  0
   14.2229   14.4224  108.5614 H   0  0  0  0  0  0
   13.1345   15.0489  106.4405 H   0  0  0  0  0  0
   14.2323   14.5259  104.2890 H   0  0  0  0  0  0
   16.4291   13.3788  104.2567 H   0  0  0  0  0  0
   17.5208   12.7615  106.3645 H   0  0  0  0  0  0
   16.3253   19.6990  108.9643 H   0  0  0  0  0  0
   17.4739   18.7699  108.2914 H   0  0  0  0  0  0
   18.0069   15.7930  107.4406 H   0  0  0  0  0  0
   19.9487   15.9053  105.9451 H   0  0  0  0  0  0
   21.9718   12.9430  108.2823 H   0  0  0  0  0  0
   20.0233   12.7805  109.7663 H   0  0  0  0  0  0
  1 20  2  0  0  0
  1  2  1  0  0  0
  1 23  1  0  0  0
  2  9  1  0  0  0
  2  3  1  0  0  0
  2 12  1  0  0  0
  3  4  2  0  0  0
  3  8  1  0  0  0
  4  5  1  0  0  0
  4 26  1  0  0  0
  5  6  2  0  0  0
  5 27  1  0  0  0
  6  7  1  0  0  0
  6 28  1  0  0  0
  7  8  2  0  0  0
  7 29  1  0  0  0
  8 30  1  0  0  0
  9 10  1  0  0  0
 10 11  1  0  0  0
 10 31  1  0  0  0
 10 32  1  0  0  0
 11 19  1  0  0  0
 11 33  1  0  0  0
 11 34  1  0  0  0
 12 13  1  0  0  0
 12 35  1  0  0  0
 12 36  1  0  0  0
 13 14  2  0  0  0
 13 18  1  0  0  0
 14 15  1  0  0  0
 14 37  1  0  0  0
 15 16  2  0  0  0
 15 38  1  0  0  0
 16 17  1  0  0  0
 16 39  1  0  0  0
 17 18  2  0  0  0
 17 40  1  0  0  0
 18 41  1  0  0  0
 19 42  1  0  0  0
 19 43  1  0  0  0
 20 21  1  0  0  0
 20 44  1  0  0  0
 21 24  2  0  0  0
 21 45  1  0  0  0
 22 24  1  0  0  0
 22 23  2  0  0  0
 22 46  1  0  0  0
 23 47  1  0  0  0
 24 25  1  0  0  0
M  END
> <s_m_entry_id>
459

> <s_m_entry_name>
dock_pv.458

> <s_m_Source_Path>
/home/csk/Desktop/cluster/DUD-E-result/kif11

> <s_m_Source_File>
dock_pv.maegz

> <i_m_Source_File_Index>
458

> <chembl_id>
CHEMBL2043407

> <chembl_pref_name>
None

> <i_lp_mmshare_version>
53161

> <i_f3d_flags>
0

> <r_lp_tautomer_probability>
1

> <s_lp_Force_Field>
OPLS_2005

> <r_lp_Energy>
23.718096

> <b_lp_Chiralities_Consistent>
1

> <s_lp_Variant>
CHEMBL4581_lig595-1

> <s_i_glide_gridfile>
glide-grid_3cjo

> <i_i_glide_lignum>
914

> <i_i_glide_rotatable_bonds>
7

> <r_i_docking_score>
-7.207976816485

> <r_i_glide_ligand_efficiency>
-0.2883190726594

> <r_i_glide_ligand_efficiency_sa>
-0.843050081816612

> <r_i_glide_ligand_efficiency_ln>
-1.70850651114155

> <r_i_glide_gscore>
-7.207976816485

> <r_i_glide_lipo>
-4.36093568723512

> <r_i_glide_hbond>
0

> <r_i_glide_metal>
0

> <r_i_glide_rewards>
-1.57929496439394

> <r_i_glide_evdw>
-41.5639915466309

> <r_i_glide_ecoul>
-0.772650957107544

> <r_i_glide_erotb>
0.92635105604173

> <r_i_glide_esite>
0

> <r_i_glide_emodel>
-59.6248837616925

> <r_i_glide_energy>
-42.3366425037384

> <r_i_glide_einternal>
2.9598970413208

> <i_i_glide_confnum>
91

> <i_i_glide_posenum>
42

> <r_i_glide_eff_state_penalty>
0

> <s_user_duplicate_titles>
CHEMBL4581_lig595

> <s_m_subgroup_title>
dock_pv

> <s_m_subgroupid>
dock_pv

> <b_m_subgroup_collapsed>
1

$$$$
CHEMBL4581_lig419
                    3D
 Schrodinger Suite 2021-1.
 31 33  0  0  1  0            999 V2000
   21.9190   16.3972  105.0306 C   0  0  0  0  0  0
   22.7183   15.2560  105.0227 C   0  0  0  0  0  0
   22.5239   14.2147  105.9285 C   0  0  0  0  0  0
   20.8654   16.5295  105.9339 C   0  0  0  0  0  0
   20.6432   15.4996  106.8632 C   0  0  0  0  0  0
   21.4950   14.3621  106.8573 C   0  0  0  0  0  0
   21.1180   13.5625  107.9140 N   0  0  0  0  0  0
   19.7004   15.3163  107.8934 C   0  0  0  0  0  0
   20.0286   14.1093  108.5585 C   0  0  0  0  0  0
   19.3071   13.6522  109.6606 C   0  0  0  0  0  0
   18.2162   14.4118  110.0924 C   0  0  0  0  0  0
   17.8802   15.6039  109.4446 C   0  0  0  0  0  0
   18.6093   16.0729  108.3503 C   0  0  0  0  0  0
   17.4036   13.9366  111.3011 C   0  0  0  0  0  0
   18.1802   14.1363  112.6175 C   0  0  0  0  0  0
   16.9156   12.4784  111.1539 C   0  0  0  0  0  0
   22.1044   17.1757  104.3065 H   0  0  0  0  0  0
   23.5100   15.1615  104.2928 H   0  0  0  0  0  0
   23.1362   13.3293  105.9075 H   0  0  0  0  0  0
   20.2432   17.4131  105.9238 H   0  0  0  0  0  0
   21.5632   12.6932  108.1663 H   0  0  0  0  0  0
   19.5785   12.7412  110.1592 H   0  0  0  0  0  0
   17.0417   16.1877  109.7931 H   0  0  0  0  0  0
   18.3433   17.0026  107.8727 H   0  0  0  0  0  0
   16.5076   14.5569  111.3589 H   0  0  0  0  0  0
   18.5328   15.1636  112.7170 H   0  0  0  0  0  0
   19.0534   13.4840  112.6719 H   0  0  0  0  0  0
   17.5557   13.9197  113.4839 H   0  0  0  0  0  0
   16.3027   12.3526  110.2599 H   0  0  0  0  0  0
   17.7400   11.7697  111.0875 H   0  0  0  0  0  0
   16.3174   12.1700  112.0124 H   0  0  0  0  0  0
  1  2  1  0  0  0
  1  4  2  0  0  0
  1 17  1  0  0  0
  2  3  2  0  0  0
  2 18  1  0  0  0
  3  6  1  0  0  0
  3 19  1  0  0  0
  4  5  1  0  0  0
  4 20  1  0  0  0
  5  8  1  0  0  0
  5  6  2  0  0  0
  6  7  1  0  0  0
  7  9  1  0  0  0
  7 21  1  0  0  0
  8  9  2  0  0  0
  8 13  1  0  0  0
  9 10  1  0  0  0
 10 11  2  0  0  0
 10 22  1  0  0  0
 11 12  1  0  0  0
 11 14  1  0  0  0
 12 13  2  0  0  0
 12 23  1  0  0  0
 13 24  1  0  0  0
 14 15  1  0  0  0
 14 16  1  0  0  0
 14 25  1  0  0  0
 15 26  1  0  0  0
 15 27  1  0  0  0
 15 28  1  0  0  0
 16 29  1  0  0  0
 16 30  1  0  0  0
 16 31  1  0  0  0
M  END
> <s_m_entry_id>
460

> <s_m_entry_name>
dock_pv.459

> <s_m_Source_Path>
/home/csk/Desktop/cluster/DUD-E-result/kif11

> <s_m_Source_File>
dock_pv.maegz

> <i_m_Source_File_Index>
459

> <chembl_id>
CHEMBL1170460

> <chembl_pref_name>
None

> <i_lp_mmshare_version>
53161

> <i_f3d_flags>
0

> <r_lp_tautomer_probability>
1

> <s_lp_Force_Field>
OPLS_2005

> <r_lp_Energy>
12.672023

> <b_lp_Chiralities_Consistent>
1

> <s_lp_Variant>
CHEMBL4581_lig419-1

> <s_i_glide_gridfile>
glide-grid_3cjo

> <i_i_glide_lignum>
624

> <i_i_glide_rotatable_bonds>
1

> <r_i_docking_score>
-7.2066976458448

> <r_i_glide_ligand_efficiency>
-0.4504186028653

> <r_i_glide_ligand_efficiency_sa>
-1.13498375697951

> <r_i_glide_ligand_efficiency_ln>
-1.9102791680844

> <r_i_glide_gscore>
-7.2066976458448

> <r_i_glide_lipo>
-3.88945665918636

> <r_i_glide_hbond>
0

> <r_i_glide_metal>
0

> <r_i_glide_rewards>
-1.98213886363636

> <r_i_glide_evdw>
-27.6335697174072

> <r_i_glide_ecoul>
0.310509085655212

> <r_i_glide_erotb>
0

> <r_i_glide_esite>
0

> <r_i_glide_emodel>
-39.9708889663928

> <r_i_glide_energy>
-27.323060631752

> <r_i_glide_einternal>
0.182283148169518

> <i_i_glide_confnum>
1

> <i_i_glide_posenum>
31

> <r_i_glide_eff_state_penalty>
0

> <s_user_duplicate_titles>
CHEMBL4581_lig419

> <s_m_subgroup_title>
dock_pv

> <s_m_subgroupid>
dock_pv

> <b_m_subgroup_collapsed>
1

$$$$
CHEMBL4581_lig880
                    3D
 Schrodinger Suite 2021-1.
 44 46  0  0  1  0            999 V2000
   17.4980   14.8111  108.5995 C   0  0  0  0  0  0
   17.6233   14.1501  110.0152 C   0  0  0  0  0  0
   18.8856   14.8679  107.8847 C   0  0  0  0  0  0
   18.4794   14.7065  110.9812 C   0  0  0  0  0  0
   18.6290   14.1309  112.2409 C   0  0  0  0  0  0
   17.9372   12.9662  112.5509 C   0  0  0  0  0  0
   17.1177   12.3699  111.6004 C   0  0  0  0  0  0
   16.9564   12.9568  110.3474 C   0  0  0  0  0  0
   19.9070   13.9643  108.2181 C   0  0  0  0  0  0
   21.1213   13.9667  107.5382 C   0  0  0  0  0  0
   21.3676   14.9121  106.5443 C   0  0  0  0  0  0
   20.3829   15.8505  106.2181 C   0  0  0  0  0  0
   19.1496   15.8048  106.8695 C   0  0  0  0  0  0
   16.4370   14.0949  107.6977 C   0  0  0  0  0  0
   16.7826   13.4623  106.4910 C   0  0  0  0  0  0
   15.8123   12.8994  105.6682 C   0  0  0  0  0  0
   14.4735   12.9568  106.0392 C   0  0  0  0  0  0
   14.0998   13.5626  107.2340 C   0  0  0  0  0  0
   15.0749   14.1190  108.0552 C   0  0  0  0  0  0
   16.8198   16.5260  108.7941 S   0  0  0  0  0  0
   18.1169   17.6499  109.4167 C   0  0  0  0  0  0
   17.8696   18.1643  110.8445 C   0  0  0  0  0  0
   16.5490   18.7613  110.9590 N   0  0  0  0  0  0
   20.6529   17.0823  105.0283 Cl  0  0  0  0  0  0
   22.9081   14.9096  105.7585 Cl  0  0  0  0  0  0
   19.0623   15.5820  110.7565 H   0  0  0  0  0  0
   19.2887   14.5827  112.9673 H   0  0  0  0  0  0
   18.0531   12.5127  113.5258 H   0  0  0  0  0  0
   16.5936   11.4558  111.8356 H   0  0  0  0  0  0
   16.3237   12.4420  109.6410 H   0  0  0  0  0  0
   19.7536   13.2068  108.9730 H   0  0  0  0  0  0
   21.8811   13.2417  107.7919 H   0  0  0  0  0  0
   18.3910   16.5099  106.5716 H   0  0  0  0  0  0
   17.8084   13.3986  106.1612 H   0  0  0  0  0  0
   16.1042   12.4174  104.7463 H   0  0  0  0  0  0
   13.7205   12.5187  105.4024 H   0  0  0  0  0  0
   13.0600   13.5974  107.5245 H   0  0  0  0  0  0
   14.7657   14.5897  108.9764 H   0  0  0  0  0  0
   19.1063   17.1976  109.3459 H   0  0  0  0  0  0
   18.1500   18.4975  108.7310 H   0  0  0  0  0  0
   17.9339   17.3433  111.5554 H   0  0  0  0  0  0
   18.6352   18.8903  111.1237 H   0  0  0  0  0  0
   16.3616   19.0313  111.9175 H   0  0  0  0  0  0
   16.4909   19.6049  110.4061 H   0  0  0  0  0  0
  1  2  1  0  0  0
  1  3  1  0  0  0
  1 14  1  0  0  0
  1 20  1  0  0  0
  2  4  2  0  0  0
  2  8  1  0  0  0
  3  9  2  0  0  0
  3 13  1  0  0  0
  4  5  1  0  0  0
  4 26  1  0  0  0
  5  6  2  0  0  0
  5 27  1  0  0  0
  6  7  1  0  0  0
  6 28  1  0  0  0
  7  8  2  0  0  0
  7 29  1  0  0  0
  8 30  1  0  0  0
  9 10  1  0  0  0
  9 31  1  0  0  0
 10 11  2  0  0  0
 10 32  1  0  0  0
 11 12  1  0  0  0
 11 25  1  0  0  0
 12 13  2  0  0  0
 12 24  1  0  0  0
 13 33  1  0  0  0
 14 15  2  0  0  0
 14 19  1  0  0  0
 15 16  1  0  0  0
 15 34  1  0  0  0
 16 17  2  0  0  0
 16 35  1  0  0  0
 17 18  1  0  0  0
 17 36  1  0  0  0
 18 19  2  0  0  0
 18 37  1  0  0  0
 19 38  1  0  0  0
 20 21  1  0  0  0
 21 22  1  0  0  0
 21 39  1  0  0  0
 21 40  1  0  0  0
 22 23  1  0  0  0
 22 41  1  0  0  0
 22 42  1  0  0  0
 23 43  1  0  0  0
 23 44  1  0  0  0
M  END
> <s_m_entry_id>
461

> <s_m_entry_name>
dock_pv.460

> <s_m_Source_Path>
/home/csk/Desktop/cluster/DUD-E-result/kif11

> <s_m_Source_File>
dock_pv.maegz

> <i_m_Source_File_Index>
460

> <chembl_id>
CHEMBL2325409

> <chembl_pref_name>
None

> <i_lp_mmshare_version>
53161

> <i_f3d_flags>
0

> <r_lp_tautomer_probability>
1

> <s_lp_Force_Field>
OPLS_2005

> <r_lp_Energy>
24.50628

> <b_lp_Chiralities_Consistent>
1

> <s_lp_Variant>
CHEMBL4581_lig880-1

> <s_i_glide_gridfile>
glide-grid_3cjo

> <i_i_glide_lignum>
1272

> <i_i_glide_rotatable_bonds>
6

> <r_i_docking_score>
-7.19126113505454

> <r_i_glide_ligand_efficiency>
-0.287650445402182

> <r_i_glide_ligand_efficiency_sa>
-0.84109500385835

> <r_i_glide_ligand_efficiency_ln>
-1.70454439371398

> <r_i_glide_gscore>
-7.19126113505454

> <r_i_glide_lipo>
-4.65488608095575

> <r_i_glide_hbond>
-0.244398753711164

> <r_i_glide_metal>
0

> <r_i_glide_rewards>
-0.761225045454545

> <r_i_glide_evdw>
-42.0539855957031

> <r_i_glide_ecoul>
-0.493101954460144

> <r_i_glide_erotb>
0.6459133180211

> <r_i_glide_esite>
0

> <r_i_glide_emodel>
-59.3574123335737

> <r_i_glide_energy>
-42.5470875501633

> <r_i_glide_einternal>
4.35620450973511

> <i_i_glide_confnum>
6

> <i_i_glide_posenum>
180

> <r_i_glide_eff_state_penalty>
0

> <s_user_duplicate_titles>
CHEMBL4581_lig880

> <s_m_subgroup_title>
dock_pv

> <s_m_subgroupid>
dock_pv

> <b_m_subgroup_collapsed>
1

$$$$
CHEMBL4581_lig879
                    3D
 Schrodinger Suite 2021-1.
 48 50  0  0  1  0            999 V2000
   17.7756   15.2442  108.9961 C   0  0  0  0  0  0
   17.9575   14.5954  110.4109 C   0  0  0  0  0  0
   19.0960   15.0724  108.1710 C   0  0  0  0  0  0
   17.3487   13.3732  110.7565 C   0  0  0  0  0  0
   17.5246   12.8153  112.0200 C   0  0  0  0  0  0
   18.3322   13.4588  112.9509 C   0  0  0  0  0  0
   18.9746   14.6485  112.6225 C   0  0  0  0  0  0
   18.7893   15.2109  111.3624 C   0  0  0  0  0  0
   19.4299   15.9389  107.1103 C   0  0  0  0  0  0
   20.5751   15.7432  106.3346 C   0  0  0  0  0  0
   21.4244   14.6581  106.5893 C   0  0  0  0  0  0
   21.1181   13.8159  107.6583 C   0  0  0  0  0  0
   19.9835   14.0187  108.4389 C   0  0  0  0  0  0
   16.5522   14.6602  108.2049 C   0  0  0  0  0  0
   15.2880   14.5704  108.8163 C   0  0  0  0  0  0
   14.1924   14.0347  108.1462 C   0  0  0  0  0  0
   14.3433   13.5615  106.8486 C   0  0  0  0  0  0
   15.5817   13.6217  106.2201 C   0  0  0  0  0  0
   16.6734   14.1641  106.8907 C   0  0  0  0  0  0
   17.4877   17.0758  109.2019 S   0  0  0  0  0  0
   16.1526   17.3143  110.4243 C   0  0  0  0  0  0
   15.9866   18.7532  110.9458 C   0  0  0  0  0  0
   15.5181   19.6233  109.8807 N   0  0  0  0  0  0
   22.5779   14.3630  105.8901 O   0  0  0  0  0  0
   23.0594   15.2734  104.9194 C   0  0  0  0  0  0
   21.9180   12.7622  107.9317 F   0  0  0  0  0  0
   16.7477   12.8213  110.0486 H   0  0  0  0  0  0
   17.0401   11.8814  112.2702 H   0  0  0  0  0  0
   18.4729   13.0239  113.9301 H   0  0  0  0  0  0
   19.6144   15.1331  113.3449 H   0  0  0  0  0  0
   19.3047   16.1309  111.1263 H   0  0  0  0  0  0
   18.7815   16.7615  106.8520 H   0  0  0  0  0  0
   20.7769   16.4338  105.5296 H   0  0  0  0  0  0
   19.7854   13.3075  109.2263 H   0  0  0  0  0  0
   15.1515   14.8862  109.8372 H   0  0  0  0  0  0
   13.2333   13.9697  108.6389 H   0  0  0  0  0  0
   13.4979   13.1306  106.3315 H   0  0  0  0  0  0
   15.7018   13.2389  105.2171 H   0  0  0  0  0  0
   17.6131   14.1664  106.3583 H   0  0  0  0  0  0
   15.2074   17.0188  109.9724 H   0  0  0  0  0  0
   16.3210   16.6484  111.2684 H   0  0  0  0  0  0
   15.2530   18.7742  111.7510 H   0  0  0  0  0  0
   16.9217   19.1455  111.3517 H   0  0  0  0  0  0
   15.4583   20.5764  110.2145 H   0  0  0  0  0  0
   16.1939   19.6247  109.1299 H   0  0  0  0  0  0
   23.9091   14.8137  104.4143 H   0  0  0  0  0  0
   22.3180   15.5013  104.1590 H   0  0  0  0  0  0
   23.3922   16.2011  105.3856 H   0  0  0  0  0  0
  1  2  1  0  0  0
  1  3  1  0  0  0
  1 14  1  0  0  0
  1 20  1  0  0  0
  2  4  2  0  0  0
  2  8  1  0  0  0
  3  9  2  0  0  0
  3 13  1  0  0  0
  4  5  1  0  0  0
  4 27  1  0  0  0
  5  6  2  0  0  0
  5 28  1  0  0  0
  6  7  1  0  0  0
  6 29  1  0  0  0
  7  8  2  0  0  0
  7 30  1  0  0  0
  8 31  1  0  0  0
  9 10  1  0  0  0
  9 32  1  0  0  0
 10 11  2  0  0  0
 10 33  1  0  0  0
 11 12  1  0  0  0
 11 24  1  0  0  0
 12 13  2  0  0  0
 12 26  1  0  0  0
 13 34  1  0  0  0
 14 15  2  0  0  0
 14 19  1  0  0  0
 15 16  1  0  0  0
 15 35  1  0  0  0
 16 17  2  0  0  0
 16 36  1  0  0  0
 17 18  1  0  0  0
 17 37  1  0  0  0
 18 19  2  0  0  0
 18 38  1  0  0  0
 19 39  1  0  0  0
 20 21  1  0  0  0
 21 22  1  0  0  0
 21 40  1  0  0  0
 21 41  1  0  0  0
 22 23  1  0  0  0
 22 42  1  0  0  0
 22 43  1  0  0  0
 23 44  1  0  0  0
 23 45  1  0  0  0
 24 25  1  0  0  0
 25 46  1  0  0  0
 25 47  1  0  0  0
 25 48  1  0  0  0
M  END
> <s_m_entry_id>
462

> <s_m_entry_name>
dock_pv.461

> <s_m_Source_Path>
/home/csk/Desktop/cluster/DUD-E-result/kif11

> <s_m_Source_File>
dock_pv.maegz

> <i_m_Source_File_Index>
461

> <chembl_id>
CHEMBL2325408

> <chembl_pref_name>
None

> <i_lp_mmshare_version>
53161

> <i_f3d_flags>
0

> <r_lp_tautomer_probability>
1

> <s_lp_Force_Field>
OPLS_2005

> <r_lp_Energy>
28.011071

> <b_lp_Chiralities_Consistent>
1

> <s_lp_Variant>
CHEMBL4581_lig879-1

> <s_i_glide_gridfile>
glide-grid_3cjo

> <i_i_glide_lignum>
1271

> <i_i_glide_rotatable_bonds>
7

> <r_i_docking_score>
-7.18618543910378

> <r_i_glide_ligand_efficiency>
-0.276391747657838

> <r_i_glide_ligand_efficiency_sa>
-0.818809464887333

> <r_i_glide_ligand_efficiency_ln>
-1.68765207057584

> <r_i_glide_gscore>
-7.18618543910378

> <r_i_glide_lipo>
-4.33771988216527

> <r_i_glide_hbond>
0

> <r_i_glide_metal>
0

> <r_i_glide_rewards>
-1.34837963426744

> <r_i_glide_evdw>
-41.5844917297363

> <r_i_glide_ecoul>
-0.892940700054169

> <r_i_glide_erotb>
0.713079768823877

> <r_i_glide_esite>
0

> <r_i_glide_emodel>
-58.2652767555295

> <r_i_glide_energy>
-42.4774324297905

> <r_i_glide_einternal>
5.65186166763306

> <i_i_glide_confnum>
144

> <i_i_glide_posenum>
92

> <r_i_glide_eff_state_penalty>
0

> <s_user_duplicate_titles>
CHEMBL4581_lig879

> <s_m_subgroup_title>
dock_pv

> <s_m_subgroupid>
dock_pv

> <b_m_subgroup_collapsed>
1

$$$$
CHEMBL4581_lig514
                    3D
 Schrodinger Suite 2021-1.
 66 69  0  0  1  0            999 V2000
   18.4679   16.3623  107.2910 N   0  0  0  0  0  0
   17.8083   15.5940  108.0967 C   0  0  0  0  0  0
   18.3902   14.4273  108.6284 N   0  0  0  0  0  0
   19.6938   13.9936  108.3708 C   0  0  0  0  0  0
   19.6873   15.9330  106.8876 C   0  0  0  0  0  0
   20.2997   14.7756  107.3006 C   0  0  0  0  0  0
   21.4950   14.5816  106.5964 C   0  0  0  0  0  0
   21.8688   15.5209  105.7513 N   0  0  0  0  0  0
   20.6949   16.7569  105.7575 S   0  0  0  0  0  0
   20.2474   13.0634  108.9606 O   0  0  0  0  0  0
   16.3668   16.0166  108.5008 C   0  0  2  0  0  0
   15.4019   15.5470  107.4569 N   0  0  0  0  0  0
   16.2183   17.5353  108.8175 C   0  0  0  0  0  0
   14.4084   14.6746  107.7990 C   0  0  0  0  0  0
   13.6731   13.9507  106.7125 C   0  0  0  0  0  0
   14.1413   14.3671  108.9595 O   0  0  0  0  0  0
   15.5056   16.1465  106.0996 C   0  0  0  0  0  0
   15.9002   15.1910  104.9461 C   0  0  0  0  0  0
   17.5969   13.4780  109.4549 C   0  0  0  0  0  0
   17.8505   13.4593  110.9644 C   0  0  0  0  0  0
   17.2378   12.4503  111.7114 C   0  0  0  0  0  0
   17.4666   12.3615  113.0800 C   0  0  0  0  0  0
   18.3239   13.2632  113.7015 C   0  0  0  0  0  0
   18.9289   14.2826  112.9689 C   0  0  0  0  0  0
   18.6860   14.3873  111.6012 C   0  0  0  0  0  0
   17.1415   18.0550  109.9404 C   0  0  0  0  0  0
   16.4732   15.8925  103.7099 C   0  0  0  0  0  0
   17.8067   16.3628  104.0159 N   0  0  0  0  0  0
   12.4667   14.4446  106.2054 C   0  0  0  0  0  0
   13.5422   12.0572  105.2214 C   0  0  0  0  0  0
   14.2067   12.7581  106.2206 C   0  0  0  0  0  0
   12.3378   12.5437  104.7171 C   0  0  0  0  0  0
   11.8027   13.7391  105.2053 C   0  0  0  0  0  0
   11.6222   11.7737  103.6242 C   0  0  0  0  0  0
   22.4277   13.4099  106.7174 C   0  0  0  0  0  0
   16.1313   15.5435  109.4531 H   0  0  0  0  0  0
   16.3751   18.1456  107.9258 H   0  0  0  0  0  0
   15.1862   17.7220  109.1221 H   0  0  0  0  0  0
   14.5853   16.6778  105.8507 H   0  0  0  0  0  0
   16.2591   16.9306  106.1386 H   0  0  0  0  0  0
   16.5926   14.4204  105.2979 H   0  0  0  0  0  0
   15.0178   14.6574  104.6007 H   0  0  0  0  0  0
   16.5268   13.5816  109.2834 H   0  0  0  0  0  0
   17.7995   12.4633  109.0996 H   0  0  0  0  0  0
   16.5878   11.7305  111.2332 H   0  0  0  0  0  0
   16.9892   11.5779  113.6517 H   0  0  0  0  0  0
   18.5170   13.1613  114.7598 H   0  0  0  0  0  0
   19.5907   14.9823  113.4570 H   0  0  0  0  0  0
   19.1681   15.1770  111.0442 H   0  0  0  0  0  0
   16.9228   19.0981  110.1711 H   0  0  0  0  0  0
   17.0172   17.4791  110.8623 H   0  0  0  0  0  0
   18.1942   18.0051  109.6519 H   0  0  0  0  0  0
   16.5316   15.1907  102.8733 H   0  0  0  0  0  0
   15.8392   16.7277  103.3911 H   0  0  0  0  0  0
   17.7484   17.0786  104.7316 H   0  0  0  0  0  0
   18.2888   15.5971  104.4754 H   0  0  0  0  0  0
   12.0405   15.3650  106.5806 H   0  0  0  0  0  0
   13.9614   11.1324  104.8507 H   0  0  0  0  0  0
   15.1374   12.3654  106.6041 H   0  0  0  0  0  0
   10.8731   14.1204  104.8122 H   0  0  0  0  0  0
   10.9921   12.4268  103.0195 H   0  0  0  0  0  0
   12.3420   11.3181  102.9441 H   0  0  0  0  0  0
   11.0112   10.9785  104.0541 H   0  0  0  0  0  0
   22.7180   13.2564  107.7564 H   0  0  0  0  0  0
   21.9352   12.4900  106.3996 H   0  0  0  0  0  0
   23.3381   13.5318  106.1303 H   0  0  0  0  0  0
  1  5  1  0  0  0
  1  2  2  0  0  0
  2 11  1  0  0  0
  2  3  1  0  0  0
  3 19  1  0  0  0
  3  4  1  0  0  0
  4 10  2  0  0  0
  4  6  1  0  0  0
  5  9  1  0  0  0
  5  6  2  0  0  0
  6  7  1  0  0  0
  7  8  2  0  0  0
  7 35  1  0  0  0
  8  9  1  0  0  0
 11 12  1  0  0  0
 11 13  1  0  0  0
 11 36  1  0  0  0
 12 17  1  0  0  0
 12 14  1  0  0  0
 13 26  1  0  0  0
 13 37  1  0  0  0
 13 38  1  0  0  0
 14 15  1  0  0  0
 14 16  2  0  0  0
 15 29  2  0  0  0
 15 31  1  0  0  0
 17 18  1  0  0  0
 17 39  1  0  0  0
 17 40  1  0  0  0
 18 27  1  0  0  0
 18 41  1  0  0  0
 18 42  1  0  0  0
 19 20  1  0  0  0
 19 43  1  0  0  0
 19 44  1  0  0  0
 20 21  2  0  0  0
 20 25  1  0  0  0
 21 22  1  0  0  0
 21 45  1  0  0  0
 22 23  2  0  0  0
 22 46  1  0  0  0
 23 24  1  0  0  0
 23 47  1  0  0  0
 24 25  2  0  0  0
 24 48  1  0  0  0
 25 49  1  0  0  0
 26 50  1  0  0  0
 26 51  1  0  0  0
 26 52  1  0  0  0
 27 28  1  0  0  0
 27 53  1  0  0  0
 27 54  1  0  0  0
 28 55  1  0  0  0
 28 56  1  0  0  0
 29 33  1  0  0  0
 29 57  1  0  0  0
 30 32  1  0  0  0
 30 31  2  0  0  0
 30 58  1  0  0  0
 31 59  1  0  0  0
 32 33  2  0  0  0
 32 34  1  0  0  0
 33 60  1  0  0  0
 34 61  1  0  0  0
 34 62  1  0  0  0
 34 63  1  0  0  0
 35 64  1  0  0  0
 35 65  1  0  0  0
 35 66  1  0  0  0
M  END
> <s_m_entry_id>
463

> <s_m_entry_name>
dock_pv.462

> <s_m_Source_Path>
/home/csk/Desktop/cluster/DUD-E-result/kif11

> <s_m_Source_File>
dock_pv.maegz

> <i_m_Source_File_Index>
462

> <chembl_id>
CHEMBL1829430

> <chembl_pref_name>
None

> <i_lp_mmshare_version>
53161

> <i_f3d_flags>
0

> <r_lp_tautomer_probability>
1

> <s_lp_Force_Field>
OPLS_2005

> <r_lp_Energy>
52.808455

> <b_lp_Chiralities_Consistent>
1

> <s_lp_Variant>
CHEMBL4581_lig514-1

> <s_i_glide_gridfile>
glide-grid_3cjo

> <i_i_glide_lignum>
752

> <i_i_glide_rotatable_bonds>
10

> <r_i_docking_score>
-7.18404169440631

> <r_i_glide_ligand_efficiency>
-0.205258334125895

> <r_i_glide_ligand_efficiency_sa>
-0.671413620848944

> <r_i_glide_ligand_efficiency_ln>
-1.57705659313713

> <r_i_glide_gscore>
-7.18404169440631

> <r_i_glide_lipo>
-4.02799067436082

> <r_i_glide_hbond>
-0.100945956088716

> <r_i_glide_metal>
0

> <r_i_glide_rewards>
-0.619483777392872

> <r_i_glide_evdw>
-50.5353813171387

> <r_i_glide_ecoul>
-3.91831946372986

> <r_i_glide_erotb>
0.678895698852509

> <r_i_glide_esite>
0

> <r_i_glide_emodel>
-64.7834404032893

> <r_i_glide_energy>
-54.4537007808685

> <r_i_glide_einternal>
14.1159706115723

> <i_i_glide_confnum>
3

> <i_i_glide_posenum>
233

> <r_i_glide_eff_state_penalty>
0

> <s_user_duplicate_titles>
CHEMBL4581_lig514

> <s_m_subgroup_title>
dock_pv

> <s_m_subgroupid>
dock_pv

> <b_m_subgroup_collapsed>
1

$$$$
CHEMBL4581_lig742
                    3D
 Schrodinger Suite 2021-1.
 56 58  0  0  1  0            999 V2000
   15.8494   14.1377  108.5088 N   0  0  0  0  0  0
   17.1261   13.4568  108.6183 C   0  0  0  0  0  0
   17.9725   14.2669  109.6191 C   0  0  1  0  0  0
   17.1535   15.5743  109.5553 C   0  0  0  0  0  0
   16.0225   15.4529  108.9753 N   0  0  0  0  0  0
   17.9856   13.6968  111.0690 C   0  0  0  0  0  0
   19.4297   14.3342  109.0219 C   0  0  0  0  0  0
   19.6597   15.2973  107.8234 C   0  0  0  0  0  0
   20.8045   14.8747  106.8777 C   0  0  0  0  0  0
   21.4802   16.0036  106.2280 N   0  0  0  0  0  0
   22.5681   15.5136  105.3877 C   0  0  0  0  0  0
   20.5847   16.8612  105.4544 C   0  0  0  0  0  0
   17.5735   16.8500  110.1528 C   0  0  0  0  0  0
   16.5303   17.9625  110.3020 C   0  0  0  0  0  0
   18.7168   17.0630  110.5549 O   0  0  0  0  0  0
   14.9402   13.9647  107.4561 C   0  0  0  0  0  0
   15.3950   13.8671  106.1325 C   0  0  0  0  0  0
   14.5023   13.6789  105.0760 C   0  0  0  0  0  0
   13.1349   13.5795  105.3369 C   0  0  0  0  0  0
   12.6675   13.6795  106.6462 C   0  0  0  0  0  0
   13.5609   13.8745  107.6999 C   0  0  0  0  0  0
   17.1206   12.6627  111.4654 C   0  0  0  0  0  0
   17.1206   12.1984  112.7786 C   0  0  0  0  0  0
   17.9758   12.7622  113.7182 C   0  0  0  0  0  0
   18.8401   13.7852  113.3503 C   0  0  0  0  0  0
   18.8424   14.2477  112.0377 C   0  0  0  0  0  0
   13.0711   13.9620  108.9584 F   0  0  0  0  0  0
   15.0290   13.5894  103.6560 C   0  0  0  0  0  0
   17.0416   12.3812  108.7766 H   0  0  0  0  0  0
   17.6002   13.5256  107.6404 H   0  0  0  0  0  0
   20.1646   14.6034  109.7763 H   0  0  0  0  0  0
   19.7217   13.3209  108.7375 H   0  0  0  0  0  0
   18.7606   15.3110  107.2077 H   0  0  0  0  0  0
   19.7618   16.3300  108.1536 H   0  0  0  0  0  0
   21.5277   14.2789  107.4326 H   0  0  0  0  0  0
   20.4013   14.2097  106.1120 H   0  0  0  0  0  0
   23.1180   16.3508  104.9597 H   0  0  0  0  0  0
   23.2788   14.9298  105.9749 H   0  0  0  0  0  0
   22.2052   14.8869  104.5726 H   0  0  0  0  0  0
   21.1475   17.6269  104.9202 H   0  0  0  0  0  0
   20.0042   16.2994  104.7236 H   0  0  0  0  0  0
   19.8863   17.3824  106.1083 H   0  0  0  0  0  0
   16.1971   18.3014  109.3209 H   0  0  0  0  0  0
   15.6645   17.6078  110.8626 H   0  0  0  0  0  0
   16.9577   18.8129  110.8351 H   0  0  0  0  0  0
   16.4488   13.9453  105.9098 H   0  0  0  0  0  0
   12.4323   13.4303  104.5295 H   0  0  0  0  0  0
   11.6092   13.6040  106.8492 H   0  0  0  0  0  0
   16.4192   12.2132  110.7801 H   0  0  0  0  0  0
   16.4387   11.4106  113.0690 H   0  0  0  0  0  0
   17.9719   12.4000  114.7367 H   0  0  0  0  0  0
   19.5111   14.2173  114.0786 H   0  0  0  0  0  0
   19.5181   15.0518  111.7932 H   0  0  0  0  0  0
   14.2343   13.4413  102.9229 H   0  0  0  0  0  0
   15.7356   12.7623  103.5741 H   0  0  0  0  0  0
   15.5699   14.5024  103.3985 H   0  0  0  0  0  0
  1  2  1  0  0  0
  1  5  1  0  0  0
  1 16  1  0  0  0
  2  3  1  0  0  0
  2 29  1  0  0  0
  2 30  1  0  0  0
  3  4  1  0  0  0
  3  6  1  0  0  0
  3  7  1  0  0  0
  4  5  2  0  0  0
  4 13  1  0  0  0
  6 22  2  0  0  0
  6 26  1  0  0  0
  7  8  1  0  0  0
  7 31  1  0  0  0
  7 32  1  0  0  0
  8  9  1  0  0  0
  8 33  1  0  0  0
  8 34  1  0  0  0
  9 10  1  0  0  0
  9 35  1  0  0  0
  9 36  1  0  0  0
 10 11  1  0  0  0
 10 12  1  0  0  0
 11 37  1  0  0  0
 11 38  1  0  0  0
 11 39  1  0  0  0
 12 40  1  0  0  0
 12 41  1  0  0  0
 12 42  1  0  0  0
 13 14  1  0  0  0
 13 15  2  0  0  0
 14 43  1  0  0  0
 14 44  1  0  0  0
 14 45  1  0  0  0
 16 17  2  0  0  0
 16 21  1  0  0  0
 17 18  1  0  0  0
 17 46  1  0  0  0
 18 19  2  0  0  0
 18 28  1  0  0  0
 19 20  1  0  0  0
 19 47  1  0  0  0
 20 21  2  0  0  0
 20 48  1  0  0  0
 21 27  1  0  0  0
 22 23  1  0  0  0
 22 49  1  0  0  0
 23 24  2  0  0  0
 23 50  1  0  0  0
 24 25  1  0  0  0
 24 51  1  0  0  0
 25 26  2  0  0  0
 25 52  1  0  0  0
 26 53  1  0  0  0
 28 54  1  0  0  0
 28 55  1  0  0  0
 28 56  1  0  0  0
M  END
> <s_m_entry_id>
464

> <s_m_entry_name>
dock_pv.463

> <s_m_Source_Path>
/home/csk/Desktop/cluster/DUD-E-result/kif11

> <s_m_Source_File>
dock_pv.maegz

> <i_m_Source_File_Index>
463

> <chembl_id>
CHEMBL4239814

> <chembl_pref_name>
None

> <i_lp_mmshare_version>
53161

> <i_f3d_flags>
0

> <r_lp_tautomer_probability>
1

> <s_lp_Force_Field>
OPLS_2005

> <r_lp_Energy>
40.970234

> <b_lp_Chiralities_Consistent>
1

> <s_lp_Variant>
CHEMBL4581_lig742-1

> <s_i_glide_gridfile>
glide-grid_3cjo

> <i_i_glide_lignum>
1092

> <i_i_glide_rotatable_bonds>
7

> <r_i_docking_score>
-7.18296863428418

> <r_i_glide_ligand_efficiency>
-0.256534594081578

> <r_i_glide_ligand_efficiency_sa>
-0.778990118427468

> <r_i_glide_ligand_efficiency_ln>
-1.65804006191612

> <r_i_glide_gscore>
-7.18296863428418

> <r_i_glide_lipo>
-3.8786630706421

> <r_i_glide_hbond>
0

> <r_i_glide_metal>
0

> <r_i_glide_rewards>
-1.49756062724659

> <r_i_glide_evdw>
-42.8708267211914

> <r_i_glide_ecoul>
-2.20081806182861

> <r_i_glide_erotb>
0.666919108938375

> <r_i_glide_esite>
0

> <r_i_glide_emodel>
-61.9515733460416

> <r_i_glide_energy>
-45.07164478302

> <r_i_glide_einternal>
6.60038280487061

> <i_i_glide_confnum>
91

> <i_i_glide_posenum>
154

> <r_i_glide_eff_state_penalty>
0

> <s_user_duplicate_titles>
CHEMBL4581_lig742

> <s_m_subgroup_title>
dock_pv

> <s_m_subgroupid>
dock_pv

> <b_m_subgroup_collapsed>
1

$$$$
CHEMBL4581_lig83
                    3D
 Schrodinger Suite 2021-1.
 42 44  0  0  1  0            999 V2000
   19.1820   14.4774  112.2565 C   0  0  0  0  0  0
   18.3167   13.4370  112.5735 C   0  0  0  0  0  0
   17.4316   12.9583  111.6130 C   0  0  0  0  0  0
   19.1636   15.0255  110.9764 C   0  0  0  0  0  0
   18.2803   14.5600  109.9956 C   0  0  0  0  0  0
   17.3794   13.5266  110.3365 C   0  0  0  0  0  0
   16.3172   13.0787  109.3425 C   0  0  0  0  0  0
   15.9560   14.2294  108.5044 N   0  0  0  0  0  0
   17.0843   14.6898  107.6783 C   0  0  0  0  0  0
   18.2443   15.1983  108.5903 C   0  0  2  0  0  0
   19.5621   15.1289  107.8084 C   0  0  0  0  0  0
   19.9057   16.1868  106.9582 C   0  0  0  0  0  0
   21.0361   16.1109  106.1468 C   0  0  0  0  0  0
   21.8284   14.9660  106.1587 C   0  0  0  0  0  0
   21.5180   13.9210  107.0294 C   0  0  0  0  0  0
   20.4044   14.0090  107.8707 C   0  0  0  0  0  0
   14.6670   14.6674  108.4022 C   0  0  0  0  0  0
   13.7213   13.9648  108.7694 O   0  0  0  0  0  0
   14.4380   15.9014  107.8770 N   0  0  0  0  0  0
   15.2291   17.0938  108.1936 C   0  0  0  0  0  0
   13.2079   16.2007  107.1416 C   0  0  0  0  0  0
   21.3596   17.1609  105.3336 O   0  0  0  0  0  0
   18.3157   12.7623  114.1587 Cl  0  0  0  0  0  0
   19.8695   14.8577  112.9978 H   0  0  0  0  0  0
   16.7462   12.1635  111.8744 H   0  0  0  0  0  0
   19.8448   15.8308  110.7421 H   0  0  0  0  0  0
   16.7190   12.2839  108.7125 H   0  0  0  0  0  0
   15.4606   12.6689  109.8769 H   0  0  0  0  0  0
   17.4314   13.8175  107.1201 H   0  0  0  0  0  0
   16.8003   15.4070  106.9078 H   0  0  0  0  0  0
   18.0771   16.2591  108.7806 H   0  0  0  0  0  0
   19.2836   17.0677  106.9208 H   0  0  0  0  0  0
   22.6917   14.8960  105.5135 H   0  0  0  0  0  0
   22.1405   13.0383  107.0509 H   0  0  0  0  0  0
   20.1673   13.1842  108.5286 H   0  0  0  0  0  0
   16.0267   16.8909  108.9066 H   0  0  0  0  0  0
   15.6661   17.5172  107.2886 H   0  0  0  0  0  0
   14.5923   17.8534  108.6475 H   0  0  0  0  0  0
   12.6568   15.2987  106.8690 H   0  0  0  0  0  0
   12.5489   16.8283  107.7423 H   0  0  0  0  0  0
   13.4394   16.7360  106.2200 H   0  0  0  0  0  0
   20.7807   17.9133  105.4753 H   0  0  0  0  0  0
  1  2  2  0  0  0
  1  4  1  0  0  0
  1 24  1  0  0  0
  2  3  1  0  0  0
  2 23  1  0  0  0
  3  6  2  0  0  0
  3 25  1  0  0  0
  4  5  2  0  0  0
  4 26  1  0  0  0
  5 10  1  0  0  0
  5  6  1  0  0  0
  6  7  1  0  0  0
  7  8  1  0  0  0
  7 27  1  0  0  0
  7 28  1  0  0  0
  8 17  1  0  0  0
  8  9  1  0  0  0
  9 10  1  0  0  0
  9 29  1  0  0  0
  9 30  1  0  0  0
 10 11  1  0  0  0
 10 31  1  0  0  0
 11 12  2  0  0  0
 11 16  1  0  0  0
 12 13  1  0  0  0
 12 32  1  0  0  0
 13 14  2  0  0  0
 13 22  1  0  0  0
 14 15  1  0  0  0
 14 33  1  0  0  0
 15 16  2  0  0  0
 15 34  1  0  0  0
 16 35  1  0  0  0
 17 18  2  0  0  0
 17 19  1  0  0  0
 19 20  1  0  0  0
 19 21  1  0  0  0
 20 36  1  0  0  0
 20 37  1  0  0  0
 20 38  1  0  0  0
 21 39  1  0  0  0
 21 40  1  0  0  0
 21 41  1  0  0  0
 22 42  1  0  0  0
M  END
> <s_m_entry_id>
465

> <s_m_entry_name>
dock_pv.464

> <s_m_Source_Path>
/home/csk/Desktop/cluster/DUD-E-result/kif11

> <s_m_Source_File>
dock_pv.maegz

> <i_m_Source_File_Index>
464

> <chembl_id>
CHEMBL205928

> <chembl_pref_name>
None

> <i_lp_mmshare_version>
53161

> <i_f3d_flags>
0

> <r_lp_tautomer_probability>
0.999999999997365

> <s_lp_Force_Field>
OPLS_2005

> <r_lp_Energy>
46.009212

> <b_lp_Chiralities_Consistent>
1

> <s_lp_Variant>
CHEMBL4581_lig83-1

> <s_i_glide_gridfile>
glide-grid_3cjo

> <i_i_glide_lignum>
131

> <i_i_glide_rotatable_bonds>
4

> <r_i_docking_score>
-7.18268816362652

> <r_i_glide_ligand_efficiency>
-0.312290789722892

> <r_i_glide_ligand_efficiency_sa>
-0.888113464076477

> <r_i_glide_ligand_efficiency_ln>
-1.73683912698031

> <r_i_glide_gscore>
-7.18268816362652

> <r_i_glide_lipo>
-4.03150745625087

> <r_i_glide_hbond>
0

> <r_i_glide_metal>
0

> <r_i_glide_rewards>
-1.42601236727603

> <r_i_glide_evdw>
-36.8747787475586

> <r_i_glide_ecoul>
-1.50168561935425

> <r_i_glide_erotb>
0.34382344018144

> <r_i_glide_esite>
0

> <r_i_glide_emodel>
-53.3341795754099

> <r_i_glide_energy>
-38.3764643669128

> <r_i_glide_einternal>
1.777512550354

> <i_i_glide_confnum>
6

> <i_i_glide_posenum>
201

> <r_i_glide_eff_state_penalty>
0

> <s_user_duplicate_titles>
CHEMBL4581_lig83

> <s_m_subgroup_title>
dock_pv

> <s_m_subgroupid>
dock_pv

> <b_m_subgroup_collapsed>
1

$$$$
CHEMBL4581_lig892
                    3D
 Schrodinger Suite 2021-1.
 53 55  0  0  1  0            999 V2000
   17.8345   15.0414  109.2251 C   0  0  2  0  0  0
   16.6087   14.4873  108.4148 C   0  0  0  0  0  0
   19.1766   14.7857  108.4490 C   0  0  0  0  0  0
   16.7353   13.9588  107.1160 C   0  0  0  0  0  0
   15.6254   13.5086  106.4105 C   0  0  0  0  0  0
   14.3608   13.5630  106.9910 C   0  0  0  0  0  0
   14.2124   14.0502  108.2860 C   0  0  0  0  0  0
   15.3264   14.4978  108.9899 C   0  0  0  0  0  0
   20.0901   13.7977  108.8553 C   0  0  0  0  0  0
   21.2436   13.5460  108.1229 C   0  0  0  0  0  0
   21.5177   14.2559  106.9588 C   0  0  0  0  0  0
   20.6429   15.2708  106.5595 C   0  0  0  0  0  0
   19.4972   15.5349  107.2999 C   0  0  0  0  0  0
   17.9453   14.3806  110.6448 C   0  0  0  0  0  0
   17.3775   13.1210  110.9109 C   0  0  0  0  0  0
   17.5172   12.5198  112.1593 C   0  0  0  0  0  0
   18.2455   13.1539  113.1577 C   0  0  0  0  0  0
   18.8420   14.3849  112.9118 C   0  0  0  0  0  0
   18.6934   14.9934  111.6670 C   0  0  0  0  0  0
   17.6526   16.6138  109.3550 C   0  0  0  0  0  0
   16.4566   17.2152  110.1453 C   0  0  2  0  0  0
   16.5169   18.7521  110.2542 C   0  0  0  0  0  0
   16.3172   19.3872  108.9594 N   0  0  0  0  0  0
   13.1535   13.0566  106.2231 C   0  0  0  0  0  0
   22.6663   13.9060  106.2769 O   0  0  0  0  0  0
   23.0764   14.6735  105.1489 C   0  0  0  0  0  0
   16.3181   16.6910  111.3588 F   0  0  0  0  0  0
   17.6868   13.8754  106.6170 H   0  0  0  0  0  0
   15.7547   13.1088  105.4143 H   0  0  0  0  0  0
   13.2417   14.0803  108.7551 H   0  0  0  0  0  0
   15.1861   14.8492  109.9986 H   0  0  0  0  0  0
   19.9178   13.1787  109.7238 H   0  0  0  0  0  0
   21.9211   12.7675  108.4376 H   0  0  0  0  0  0
   20.8256   15.8550  105.6701 H   0  0  0  0  0  0
   18.8365   16.2970  106.9203 H   0  0  0  0  0  0
   16.8344   12.5807  110.1496 H   0  0  0  0  0  0
   17.0553   11.5621  112.3484 H   0  0  0  0  0  0
   18.3543   12.6857  114.1246 H   0  0  0  0  0  0
   19.4194   14.8673  113.6869 H   0  0  0  0  0  0
   19.1823   15.9423  111.5050 H   0  0  0  0  0  0
   18.5712   17.0483  109.7507 H   0  0  0  0  0  0
   17.5556   17.0411  108.3591 H   0  0  0  0  0  0
   15.5236   16.9791  109.6391 H   0  0  0  0  0  0
   15.7342   19.1053  110.9294 H   0  0  0  0  0  0
   17.4681   19.0696  110.6818 H   0  0  0  0  0  0
   16.2992   20.3931  109.0702 H   0  0  0  0  0  0
   17.0990   19.1803  108.3520 H   0  0  0  0  0  0
   13.4155   12.1695  105.6425 H   0  0  0  0  0  0
   12.3444   12.7633  106.8919 H   0  0  0  0  0  0
   12.7905   13.8196  105.5357 H   0  0  0  0  0  0
   23.9195   14.1773  104.6711 H   0  0  0  0  0  0
   22.3000   14.7608  104.3900 H   0  0  0  0  0  0
   23.3927   15.6720  105.4493 H   0  0  0  0  0  0
  1  2  1  0  0  0
  1  3  1  0  0  0
  1 14  1  0  0  0
  1 20  1  0  0  0
  2  4  2  0  0  0
  2  8  1  0  0  0
  3  9  2  0  0  0
  3 13  1  0  0  0
  4  5  1  0  0  0
  4 28  1  0  0  0
  5  6  2  0  0  0
  5 29  1  0  0  0
  6  7  1  0  0  0
  6 24  1  0  0  0
  7  8  2  0  0  0
  7 30  1  0  0  0
  8 31  1  0  0  0
  9 10  1  0  0  0
  9 32  1  0  0  0
 10 11  2  0  0  0
 10 33  1  0  0  0
 11 12  1  0  0  0
 11 25  1  0  0  0
 12 13  2  0  0  0
 12 34  1  0  0  0
 13 35  1  0  0  0
 14 15  2  0  0  0
 14 19  1  0  0  0
 15 16  1  0  0  0
 15 36  1  0  0  0
 16 17  2  0  0  0
 16 37  1  0  0  0
 17 18  1  0  0  0
 17 38  1  0  0  0
 18 19  2  0  0  0
 18 39  1  0  0  0
 19 40  1  0  0  0
 20 21  1  0  0  0
 20 41  1  0  0  0
 20 42  1  0  0  0
 21 22  1  0  0  0
 21 27  1  0  0  0
 21 43  1  0  0  0
 22 23  1  0  0  0
 22 44  1  0  0  0
 22 45  1  0  0  0
 23 46  1  0  0  0
 23 47  1  0  0  0
 24 48  1  0  0  0
 24 49  1  0  0  0
 24 50  1  0  0  0
 25 26  1  0  0  0
 26 51  1  0  0  0
 26 52  1  0  0  0
 26 53  1  0  0  0
M  END
> <s_m_entry_id>
466

> <s_m_entry_name>
dock_pv.465

> <s_m_Source_Path>
/home/csk/Desktop/cluster/DUD-E-result/kif11

> <s_m_Source_File>
dock_pv.maegz

> <i_m_Source_File_Index>
465

> <chembl_id>
CHEMBL2325426

> <chembl_pref_name>
None

> <i_lp_mmshare_version>
53161

> <i_f3d_flags>
0

> <r_lp_tautomer_probability>
1

> <s_lp_Force_Field>
OPLS_2005

> <r_lp_Energy>
35.22081

> <b_lp_Chiralities_Consistent>
1

> <s_lp_Variant>
CHEMBL4581_lig892-1

> <s_i_glide_gridfile>
glide-grid_3cjo

> <i_i_glide_lignum>
1291

> <i_i_glide_rotatable_bonds>
7

> <r_i_docking_score>
-7.17776538728479

> <r_i_glide_ligand_efficiency>
-0.265843162492029

> <r_i_glide_ligand_efficiency_sa>
-0.797529486599913

> <r_i_glide_ligand_efficiency_ln>
-1.67086544744913

> <r_i_glide_gscore>
-7.17776538728479

> <r_i_glide_lipo>
-4.62824825562885

> <r_i_glide_hbond>
0

> <r_i_glide_metal>
0

> <r_i_glide_rewards>
-1.08464134177819

> <r_i_glide_evdw>
-42.1726837158203

> <r_i_glide_ecoul>
-0.556241989135742

> <r_i_glide_erotb>
0.727194694283619

> <r_i_glide_esite>
0

> <r_i_glide_emodel>
-60.0176653752065

> <r_i_glide_energy>
-42.7289257049561

> <r_i_glide_einternal>
2.66632556915283

> <i_i_glide_confnum>
37

> <i_i_glide_posenum>
39

> <r_i_glide_eff_state_penalty>
0

> <s_user_duplicate_titles>
CHEMBL4581_lig892

> <s_m_subgroup_title>
dock_pv

> <s_m_subgroupid>
dock_pv

> <b_m_subgroup_collapsed>
1

$$$$
CHEMBL4581_lig765
                    3D
 Schrodinger Suite 2021-1.
 36 39  0  0  1  0            999 V2000
   17.1204   14.7671  108.8503 C   0  0  2  0  0  0
   16.1781   13.5494  109.0366 C   0  0  0  0  0  0
   14.8323   14.0095  108.8753 O   0  0  0  0  0  0
   17.8250   14.7986  107.1887 S   0  0  0  0  0  0
   19.4522   14.8958  107.9005 C   0  0  0  0  0  0
   19.5235   14.8848  109.1660 N   0  0  0  0  0  0
   18.3018   14.8397  109.7443 N   0  0  0  0  0  0
   20.6034   14.9782  107.0063 C   0  0  0  0  0  0
   20.7546   16.0887  106.1644 C   0  0  0  0  0  0
   21.8552   16.1772  105.3164 C   0  0  0  0  0  0
   22.7919   15.1443  105.2785 C   0  0  0  0  0  0
   22.6533   14.0499  106.1240 C   0  0  0  0  0  0
   21.5656   13.9598  106.9776 C   0  0  0  0  0  0
   16.1368   15.9023  108.9621 C   0  0  0  0  0  0
   14.8580   15.3765  108.9402 C   0  0  0  0  0  0
   13.7262   16.1885  108.9604 C   0  0  0  0  0  0
   13.9034   17.5712  109.0564 C   0  0  0  0  0  0
   15.1912   18.1179  109.1196 C   0  0  0  0  0  0
   16.3116   17.2829  109.0779 C   0  0  0  0  0  0
   18.1943   14.9431  111.1035 C   0  0  0  0  0  0
   17.1205   14.8914  111.6991 O   0  0  0  0  0  0
   19.4482   15.1538  111.9631 C   0  0  0  0  0  0
   21.5180   12.9092  107.8282 F   0  0  0  0  0  0
   21.9928   17.2509  104.5079 F   0  0  0  0  0  0
   16.2634   13.1374  110.0443 H   0  0  0  0  0  0
   16.3983   12.7313  108.3470 H   0  0  0  0  0  0
   20.0337   16.8948  106.1752 H   0  0  0  0  0  0
   23.6207   15.1672  104.5913 H   0  0  0  0  0  0
   23.3832   13.2623  106.1380 H   0  0  0  0  0  0
   12.7324   15.7673  108.9235 H   0  0  0  0  0  0
   13.0445   18.2241  109.0844 H   0  0  0  0  0  0
   15.3222   19.1874  109.1965 H   0  0  0  0  0  0
   17.3025   17.7132  109.1122 H   0  0  0  0  0  0
   19.9151   16.1106  111.7279 H   0  0  0  0  0  0
   19.1965   15.1504  113.0225 H   0  0  0  0  0  0
   20.1730   14.3629  111.7878 H   0  0  0  0  0  0
  1  2  1  0  0  0
  1 14  1  0  0  0
  1  7  1  0  0  0
  1  4  1  0  0  0
  2  3  1  0  0  0
  2 25  1  0  0  0
  2 26  1  0  0  0
  3 15  1  0  0  0
  4  5  1  0  0  0
  5  6  2  0  0  0
  5  8  1  0  0  0
  6  7  1  0  0  0
  7 20  1  0  0  0
  8  9  2  0  0  0
  8 13  1  0  0  0
  9 10  1  0  0  0
  9 27  1  0  0  0
 10 11  2  0  0  0
 10 24  1  0  0  0
 11 12  1  0  0  0
 11 28  1  0  0  0
 12 13  2  0  0  0
 12 29  1  0  0  0
 13 23  1  0  0  0
 14 15  2  0  0  0
 14 19  1  0  0  0
 15 16  1  0  0  0
 16 17  2  0  0  0
 16 30  1  0  0  0
 17 18  1  0  0  0
 17 31  1  0  0  0
 18 19  2  0  0  0
 18 32  1  0  0  0
 19 33  1  0  0  0
 20 21  2  0  0  0
 20 22  1  0  0  0
 22 34  1  0  0  0
 22 35  1  0  0  0
 22 36  1  0  0  0
M  END
> <s_m_entry_id>
467

> <s_m_entry_name>
dock_pv.466

> <s_m_Source_Path>
/home/csk/Desktop/cluster/DUD-E-result/kif11

> <s_m_Source_File>
dock_pv.maegz

> <i_m_Source_File_Index>
466

> <chembl_id>
CHEMBL3402336

> <chembl_pref_name>
None

> <i_lp_mmshare_version>
53161

> <i_f3d_flags>
0

> <r_lp_tautomer_probability>
1

> <s_lp_Force_Field>
OPLS_2005

> <r_lp_Energy>
29.532329

> <b_lp_Chiralities_Consistent>
1

> <s_lp_Variant>
CHEMBL4581_lig765-2

> <s_i_glide_gridfile>
glide-grid_3cjo

> <i_i_glide_lignum>
1136

> <i_i_glide_rotatable_bonds>
2

> <r_i_docking_score>
-7.17517176053985

> <r_i_glide_ligand_efficiency>
-0.298965490022494

> <r_i_glide_ligand_efficiency_sa>
-0.862365698129822

> <r_i_glide_ligand_efficiency_ln>
-1.71734784947524

> <r_i_glide_gscore>
-7.17517176053985

> <r_i_glide_lipo>
-2.67132525643937

> <r_i_glide_hbond>
0

> <r_i_glide_metal>
0

> <r_i_glide_rewards>
-2.66567067338358

> <r_i_glide_evdw>
-35.2731513977051

> <r_i_glide_ecoul>
-1.55331206321716

> <r_i_glide_erotb>
0.158478548650934

> <r_i_glide_esite>
0

> <r_i_glide_emodel>
-52.3844687820909

> <r_i_glide_energy>
-36.8264634609222

> <r_i_glide_einternal>
0.52927553653717

> <i_i_glide_confnum>
2

> <i_i_glide_posenum>
86

> <r_i_glide_eff_state_penalty>
0

> <s_user_duplicate_titles>
CHEMBL4581_lig765

> <s_m_subgroup_title>
dock_pv

> <s_m_subgroupid>
dock_pv

> <b_m_subgroup_collapsed>
1

$$$$
CHEMBL4581_lig749
                    3D
 Schrodinger Suite 2021-1.
 31 32  0  0  1  0            999 V2000
   18.0939   13.8352  110.7163 C   0  0  0  0  0  0
   17.9822   14.1928  109.2230 C   0  0  2  0  0  0
   17.1133   13.1874  108.4157 C   0  0  0  0  0  0
   19.6227   14.1514  108.4741 S   0  0  0  0  0  0
   19.2998   15.7670  107.7600 C   0  0  0  0  0  0
   18.2625   16.3675  108.1629 N   0  0  0  0  0  0
   17.5206   15.5858  108.9938 N   0  0  0  0  0  0
   20.1281   16.3558  106.8569 N   0  0  0  0  0  0
   21.1715   15.8453  106.1666 C   0  0  0  0  0  0
   21.9061   16.8293  105.2644 C   0  0  0  0  0  0
   21.5679   14.6813  106.2059 O   0  0  0  0  0  0
   16.3365   16.0569  109.4928 C   0  0  0  0  0  0
   15.5590   15.3686  110.1575 O   0  0  0  0  0  0
   15.9363   17.5171  109.2390 C   0  0  0  0  0  0
   17.5168   12.7122  111.3460 C   0  0  0  0  0  0
   17.7559   12.6350  112.7098 C   0  0  0  0  0  0
   18.7172   13.9517  113.2708 S   0  0  0  0  0  0
   18.7821   14.5952  111.6649 C   0  0  0  0  0  0
   16.0894   13.1405  108.7875 H   0  0  0  0  0  0
   17.0572   13.4580  107.3600 H   0  0  0  0  0  0
   17.5144   12.1751  108.4617 H   0  0  0  0  0  0
   19.9218   17.3288  106.6843 H   0  0  0  0  0  0
   22.7305   17.2918  105.8065 H   0  0  0  0  0  0
   21.2390   17.6118  104.9040 H   0  0  0  0  0  0
   22.3171   16.3123  104.3964 H   0  0  0  0  0  0
   15.7365   17.6762  108.1795 H   0  0  0  0  0  0
   15.0379   17.7751  109.7999 H   0  0  0  0  0  0
   16.7335   18.1936  109.5486 H   0  0  0  0  0  0
   16.9315   11.9707  110.8219 H   0  0  0  0  0  0
   17.4101   11.8785  113.3984 H   0  0  0  0  0  0
   19.3233   15.5119  111.4825 H   0  0  0  0  0  0
  1  2  1  0  0  0
  1 15  1  0  0  0
  1 18  2  0  0  0
  2  3  1  0  0  0
  2  4  1  0  0  0
  2  7  1  0  0  0
  3 19  1  0  0  0
  3 20  1  0  0  0
  3 21  1  0  0  0
  4  5  1  0  0  0
  5  6  2  0  0  0
  5  8  1  0  0  0
  6  7  1  0  0  0
  7 12  1  0  0  0
  8  9  1  0  0  0
  8 22  1  0  0  0
  9 10  1  0  0  0
  9 11  2  0  0  0
 10 23  1  0  0  0
 10 24  1  0  0  0
 10 25  1  0  0  0
 12 13  2  0  0  0
 12 14  1  0  0  0
 14 26  1  0  0  0
 14 27  1  0  0  0
 14 28  1  0  0  0
 15 16  2  0  0  0
 15 29  1  0  0  0
 16 17  1  0  0  0
 16 30  1  0  0  0
 17 18  1  0  0  0
 18 31  1  0  0  0
M  END
> <s_m_entry_id>
468

> <s_m_entry_name>
dock_pv.467

> <s_m_Source_Path>
/home/csk/Desktop/cluster/DUD-E-result/kif11

> <s_m_Source_File>
dock_pv.maegz

> <i_m_Source_File_Index>
467

> <chembl_id>
CHEMBL4287823

> <chembl_pref_name>
None

> <i_lp_mmshare_version>
53161

> <i_f3d_flags>
0

> <r_lp_tautomer_probability>
1

> <s_lp_Force_Field>
OPLS_2005

> <r_lp_Energy>
11.378095

> <b_lp_Chiralities_Consistent>
1

> <s_lp_Variant>
CHEMBL4581_lig749-2

> <s_i_glide_gridfile>
glide-grid_3cjo

> <i_i_glide_lignum>
1105

> <i_i_glide_rotatable_bonds>
4

> <r_i_docking_score>
-7.16882482842337

> <r_i_glide_ligand_efficiency>
-0.398268046023521

> <r_i_glide_ligand_efficiency_sa>
-1.04375755319892

> <r_i_glide_ligand_efficiency_ln>
-1.84270945671787

> <r_i_glide_gscore>
-7.16882482842337

> <r_i_glide_lipo>
-2.45909525448849

> <r_i_glide_hbond>
-0.143440973429213

> <r_i_glide_metal>
0

> <r_i_glide_rewards>
-2.56265379347478

> <r_i_glide_evdw>
-39.4051856994629

> <r_i_glide_ecoul>
-3.22946572303772

> <r_i_glide_erotb>
0.451044336397914

> <r_i_glide_esite>
0

> <r_i_glide_emodel>
-58.6583799096647

> <r_i_glide_energy>
-42.6346514225006

> <r_i_glide_einternal>
4.76666879653931

> <i_i_glide_confnum>
6

> <i_i_glide_posenum>
188

> <r_i_glide_eff_state_penalty>
0

> <s_user_duplicate_titles>
CHEMBL4581_lig749

> <s_m_subgroup_title>
dock_pv

> <s_m_subgroupid>
dock_pv

> <b_m_subgroup_collapsed>
1

$$$$
CHEMBL4581_lig750
                    3D
 Schrodinger Suite 2021-1.
 33 34  0  0  1  0            999 V2000
   19.6041   14.1592  108.4821 S   0  0  0  0  0  0
   15.3725   15.2825  109.7671 O   0  0  0  0  0  0
   21.5462   14.6613  106.1804 O   0  0  0  0  0  0
   17.4522   15.5699  108.8632 N   0  0  0  0  0  0
   18.2383   16.3614  108.0878 N   0  0  0  0  0  0
   20.1662   16.3623  106.8886 N   0  0  0  0  0  0
   17.5249   12.3668  112.5214 N   0  0  0  0  0  0
   17.9248   14.1887  109.1433 C   0  0  2  0  0  0
   17.9929   13.8634  110.6568 C   0  0  0  0  0  0
   19.3016   15.7697  107.7507 C   0  0  0  0  0  0
   16.2156   16.0106  109.2422 C   0  0  0  0  0  0
   17.1184   13.1621  108.2954 C   0  0  0  0  0  0
   17.4686   12.6779  111.2006 C   0  0  0  0  0  0
   18.5926   14.7616  111.5535 C   0  0  0  0  0  0
   18.6642   14.4594  112.9137 C   0  0  0  0  0  0
   21.1976   15.8419  106.1911 C   0  0  0  0  0  0
   15.8257   17.4753  109.0039 C   0  0  0  0  0  0
   18.1207   13.2530  113.3569 C   0  0  0  0  0  0
   21.9786   16.8424  105.3484 C   0  0  0  0  0  0
   19.9865   17.3447  106.7377 H   0  0  0  0  0  0
   16.0810   13.0821  108.6211 H   0  0  0  0  0  0
   17.1026   13.4368  107.2401 H   0  0  0  0  0  0
   17.5416   12.1594  108.3486 H   0  0  0  0  0  0
   16.9908   11.9319  110.5823 H   0  0  0  0  0  0
   19.0110   15.6912  111.1939 H   0  0  0  0  0  0
   19.1232   15.1537  113.6041 H   0  0  0  0  0  0
   15.7221   17.6704  107.9358 H   0  0  0  0  0  0
   14.8731   17.7058  109.4885 H   0  0  0  0  0  0
   16.5846   18.1471  109.4114 H   0  0  0  0  0  0
   18.1564   12.9784  114.4019 H   0  0  0  0  0  0
   22.5925   17.4779  105.9881 H   0  0  0  0  0  0
   21.3059   17.4746  104.7666 H   0  0  0  0  0  0
   22.6392   16.3188  104.6534 H   0  0  0  0  0  0
  1  8  1  0  0  0
  1 10  1  0  0  0
  2 11  2  0  0  0
  3 16  2  0  0  0
  4  5  1  0  0  0
  4  8  1  0  0  0
  4 11  1  0  0  0
  5 10  2  0  0  0
  6 10  1  0  0  0
  6 16  1  0  0  0
  6 20  1  0  0  0
  7 13  2  0  0  0
  7 18  1  0  0  0
  8  9  1  0  0  0
  8 12  1  0  0  0
  9 13  1  0  0  0
  9 14  2  0  0  0
 11 17  1  0  0  0
 12 21  1  0  0  0
 12 22  1  0  0  0
 12 23  1  0  0  0
 13 24  1  0  0  0
 14 15  1  0  0  0
 14 25  1  0  0  0
 15 18  2  0  0  0
 15 26  1  0  0  0
 16 19  1  0  0  0
 17 27  1  0  0  0
 17 28  1  0  0  0
 17 29  1  0  0  0
 18 30  1  0  0  0
 19 31  1  0  0  0
 19 32  1  0  0  0
 19 33  1  0  0  0
M  END
> <s_m_entry_id>
469

> <s_m_entry_name>
dock_pv.468

> <s_m_Source_Path>
/home/csk/Desktop/cluster/DUD-E-result/kif11

> <s_m_Source_File>
dock_pv.maegz

> <i_m_Source_File_Index>
468

> <chembl_id>
CHEMBL1373238

> <chembl_pref_name>
None

> <i_lp_mmshare_version>
53161

> <i_f3d_flags>
0

> <r_lp_tautomer_probability>
1

> <s_lp_Force_Field>
OPLS_2005

> <r_lp_Energy>
14.969176

> <b_lp_Chiralities_Consistent>
1

> <s_lp_Variant>
CHEMBL4581_lig750-2

> <s_i_glide_gridfile>
glide-grid_3cjo

> <i_i_glide_lignum>
1107

> <i_i_glide_rotatable_bonds>
4

> <r_i_docking_score>
-7.16879801627672

> <r_i_glide_ligand_efficiency>
-0.377305158751407

> <r_i_glide_ligand_efficiency_sa>
-1.00680170669539

> <r_i_glide_ligand_efficiency_ln>
-1.8174442687897

> <r_i_glide_gscore>
-7.16879801627672

> <r_i_glide_lipo>
-2.42165340388943

> <r_i_glide_hbond>
-0.188173299594212

> <r_i_glide_metal>
0

> <r_i_glide_rewards>
-2.56270586808027

> <r_i_glide_evdw>
-40.3433418273926

> <r_i_glide_ecoul>
-2.96286344528198

> <r_i_glide_erotb>
0.465331163449117

> <r_i_glide_esite>
0

> <r_i_glide_emodel>
-60.1822637443762

> <r_i_glide_energy>
-43.3062052726746

> <r_i_glide_einternal>
4.36768102645874

> <i_i_glide_confnum>
6

> <i_i_glide_posenum>
376

> <r_i_glide_eff_state_penalty>
0

> <s_user_duplicate_titles>
CHEMBL4581_lig750

> <s_m_subgroup_title>
dock_pv

> <s_m_subgroupid>
dock_pv

> <b_m_subgroup_collapsed>
1

$$$$
CHEMBL4581_lig371
                    3D
 Schrodinger Suite 2021-1.
 73 76  0  0  1  0            999 V2000
   21.4000   15.7713  105.9877 C   0  0  0  0  0  0
   21.7917   14.4789  106.3377 C   0  0  0  0  0  0
   21.1718   13.8284  107.4007 C   0  0  0  0  0  0
   20.3303   16.3615  106.6706 C   0  0  0  0  0  0
   19.7166   15.7366  107.7586 C   0  0  0  0  0  0
   20.1491   14.4474  108.1181 C   0  0  0  0  0  0
   19.5822   13.7566  109.2054 N   0  0  0  0  0  0
   18.4147   14.2992  109.9055 C   0  0  2  0  0  0
   18.6436   16.4625  108.5598 C   0  0  2  0  0  0
   18.5102   15.8555  109.9779 C   0  0  1  0  0  0
   17.3383   16.5544  110.7076 C   0  0  0  0  0  0
   16.0573   16.5993  109.8602 C   0  0  0  0  0  0
   16.3263   17.0719  108.4080 C   0  0  1  0  0  0
   17.4231   16.3586  107.8325 O   0  0  0  0  0  0
   18.2275   13.6206  111.2643 C   0  0  0  0  0  0
   18.9982   14.0147  112.3642 C   0  0  0  0  0  0
   18.8078   13.4121  113.6016 C   0  0  0  0  0  0
   17.8572   12.4093  113.7420 C   0  0  0  0  0  0
   17.1178   11.9734  112.6471 C   0  0  0  0  0  0
   17.2904   12.5904  111.4092 C   0  0  0  0  0  0
   15.0952   16.9854  107.4785 C   0  0  0  0  0  0
   14.7978   15.6051  107.0326 N   0  0  2  0  0  0
   19.4256   16.1232  110.5084 H   0  0  0  0  0  0
   18.9143   17.5167  108.6522 H   0  0  0  0  0  0
   13.8421   14.5565  108.0661 S   0  0  0  0  0  0
   22.2102   16.5520  104.9547 C   0  0  0  0  0  0
   23.3546   17.3092  105.6553 C   0  0  0  0  0  0
   21.3775   17.5619  104.1617 C   0  0  0  0  0  0
   12.6624   13.7089  106.8592 C   0  0  0  0  0  0
   13.4039   12.7747  105.8826 C   0  0  0  0  0  0
   12.4591   12.2686  104.7724 C   0  0  0  0  0  0
   13.1300   11.4255  103.7776 N   0  0  0  0  0  0
   12.2854   11.2935  102.5927 C   0  0  0  0  0  0
   13.4051   10.0885  104.3038 C   0  0  0  0  0  0
   14.7669   13.5624  108.6136 O   0  0  0  0  0  0
   13.0366   15.3969  108.9576 O   0  0  0  0  0  0
   22.6088   13.9960  105.8221 H   0  0  0  0  0  0
   21.5139   12.8419  107.6777 H   0  0  0  0  0  0
   20.0066   17.3601  106.4214 H   0  0  0  0  0  0
   19.7198   12.7624  109.3183 H   0  0  0  0  0  0
   17.5382   14.0402  109.3094 H   0  0  0  0  0  0
   17.6339   17.5773  110.9514 H   0  0  0  0  0  0
   17.1323   16.0771  111.6649 H   0  0  0  0  0  0
   15.3247   17.2552  110.3350 H   0  0  0  0  0  0
   15.6106   15.6096  109.8676 H   0  0  0  0  0  0
   16.5839   18.1318  108.4476 H   0  0  0  0  0  0
   19.7482   14.7847  112.2661 H   0  0  0  0  0  0
   19.4065   13.7121  114.4467 H   0  0  0  0  0  0
   17.7057   11.9622  114.7126 H   0  0  0  0  0  0
   16.3844   11.1884  112.7697 H   0  0  0  0  0  0
   16.6982   12.2663  110.5646 H   0  0  0  0  0  0
   15.3050   17.5712  106.5828 H   0  0  0  0  0  0
   14.2151   17.4219  107.9541 H   0  0  0  0  0  0
   15.6510   15.1394  106.7070 H   0  0  0  0  0  0
   22.6302   15.8406  104.2415 H   0  0  0  0  0  0
   24.0404   16.6182  106.1400 H   0  0  0  0  0  0
   23.8985   17.9612  104.9624 H   0  0  0  0  0  0
   22.9638   17.9612  106.4282 H   0  0  0  0  0  0
   20.4515   17.1620  103.7595 H   0  0  0  0  0  0
   21.1179   18.3619  104.8476 H   0  0  0  0  0  0
   21.9377   17.9785  103.3253 H   0  0  0  0  0  0
   12.1315   14.5031  106.3346 H   0  0  0  0  0  0
   11.9425   13.1587  107.4647 H   0  0  0  0  0  0
   13.8286   11.9453  106.4496 H   0  0  0  0  0  0
   14.2391   13.3075  105.4250 H   0  0  0  0  0  0
   12.0305   13.1442  104.2807 H   0  0  0  0  0  0
   11.6026   11.7487  105.2081 H   0  0  0  0  0  0
   12.7735   10.6797  101.8341 H   0  0  0  0  0  0
   11.3228   10.8377  102.8301 H   0  0  0  0  0  0
   12.0964   12.2690  102.1429 H   0  0  0  0  0  0
   13.9175    9.4799  103.5582 H   0  0  0  0  0  0
   14.0384   10.1193  105.1900 H   0  0  0  0  0  0
   12.4823    9.5674  104.5576 H   0  0  0  0  0  0
  1  4  1  0  0  0
  1 26  1  0  0  0
  1  2  2  0  0  0
  2  3  1  0  0  0
  2 37  1  0  0  0
  3  6  2  0  0  0
  3 38  1  0  0  0
  4  5  2  0  0  0
  4 39  1  0  0  0
  5  6  1  0  0  0
  5  9  1  0  0  0
  6  7  1  0  0  0
  7  8  1  0  0  0
  7 40  1  0  0  0
  8 10  1  0  0  0
  8 15  1  0  0  0
  8 41  1  0  0  0
  9 10  1  0  0  0
  9 24  1  0  0  0
  9 14  1  0  0  0
 10 23  1  0  0  0
 10 11  1  0  0  0
 11 12  1  0  0  0
 11 42  1  0  0  0
 11 43  1  0  0  0
 12 13  1  0  0  0
 12 44  1  0  0  0
 12 45  1  0  0  0
 13 21  1  0  0  0
 13 14  1  0  0  0
 13 46  1  0  0  0
 15 20  1  0  0  0
 15 16  2  0  0  0
 16 17  1  0  0  0
 16 47  1  0  0  0
 17 18  2  0  0  0
 17 48  1  0  0  0
 18 19  1  0  0  0
 18 49  1  0  0  0
 19 20  2  0  0  0
 19 50  1  0  0  0
 20 51  1  0  0  0
 21 22  1  0  0  0
 21 52  1  0  0  0
 21 53  1  0  0  0
 22 25  1  0  0  0
 22 54  1  0  0  0
 25 29  1  0  0  0
 25 35  2  0  0  0
 25 36  2  0  0  0
 26 27  1  0  0  0
 26 28  1  0  0  0
 26 55  1  0  0  0
 27 56  1  0  0  0
 27 57  1  0  0  0
 27 58  1  0  0  0
 28 59  1  0  0  0
 28 60  1  0  0  0
 28 61  1  0  0  0
 29 30  1  0  0  0
 29 62  1  0  0  0
 29 63  1  0  0  0
 30 31  1  0  0  0
 30 64  1  0  0  0
 30 65  1  0  0  0
 31 32  1  0  0  0
 31 66  1  0  0  0
 31 67  1  0  0  0
 32 33  1  0  0  0
 32 34  1  0  0  0
 33 68  1  0  0  0
 33 69  1  0  0  0
 33 70  1  0  0  0
 34 71  1  0  0  0
 34 72  1  0  0  0
 34 73  1  0  0  0
M  END
> <s_m_entry_id>
470

> <s_m_entry_name>
dock_pv.469

> <s_m_Source_Path>
/home/csk/Desktop/cluster/DUD-E-result/kif11

> <s_m_Source_File>
dock_pv.maegz

> <i_m_Source_File_Index>
469

> <chembl_id>
CHEMBL1084143

> <chembl_pref_name>
None

> <i_lp_mmshare_version>
53161

> <i_f3d_flags>
0

> <r_lp_tautomer_probability>
1

> <s_lp_Force_Field>
OPLS_2005

> <r_lp_Energy>
27.489783

> <b_lp_Chiralities_Consistent>
1

> <s_lp_Variant>
CHEMBL4581_lig371-1

> <s_i_glide_gridfile>
glide-grid_3cjo

> <i_i_glide_lignum>
524

> <i_i_glide_rotatable_bonds>
9

> <r_i_docking_score>
-7.15893962389234

> <r_i_glide_ligand_efficiency>
-0.210557047761539

> <r_i_glide_ligand_efficiency_sa>
-0.682123095968625

> <r_i_glide_ligand_efficiency_ln>
-1.58161056437267

> <r_i_glide_gscore>
-7.15893962389234

> <r_i_glide_lipo>
-5.17534405275286

> <r_i_glide_hbond>
0

> <r_i_glide_metal>
0

> <r_i_glide_rewards>
-0.364307166977367

> <r_i_glide_evdw>
-38.9181365966797

> <r_i_glide_ecoul>
-1.84191000461578

> <r_i_glide_erotb>
0.602904926364237

> <r_i_glide_esite>
0

> <r_i_glide_emodel>
-54.010271821413

> <r_i_glide_energy>
-40.7600466012955

> <r_i_glide_einternal>
9.07844829559326

> <i_i_glide_confnum>
14

> <i_i_glide_posenum>
7

> <r_i_glide_eff_state_penalty>
0

> <s_user_duplicate_titles>
CHEMBL4581_lig371,615881

> <s_m_subgroup_title>
dock_pv

> <s_m_subgroupid>
dock_pv

> <b_m_subgroup_collapsed>
1

$$$$
CHEMBL4581_lig603
                    3D
 Schrodinger Suite 2021-1.
 50 52  0  0  1  0            999 V2000
   17.6856   14.5400  110.1496 C   0  0  0  0  0  0
   17.5661   15.4577  108.8962 C   0  0  2  0  0  0
   16.5311   16.5699  109.2436 C   0  0  0  0  0  0
   16.8825   17.9262  109.3798 C   0  0  0  0  0  0
   15.9197   18.8837  109.6857 C   0  0  0  0  0  0
   14.5964   18.4999  109.8744 C   0  0  0  0  0  0
   14.2270   17.1641  109.7597 C   0  0  0  0  0  0
   15.1893   16.2082  109.4492 C   0  0  0  0  0  0
   16.9285   14.5632  107.4034 S   0  0  0  0  0  0
   16.7428   15.8744  106.1416 C   0  0  0  0  0  0
   17.0507   15.3472  104.7215 C   0  0  2  0  0  0
   18.9882   16.0417  108.5653 C   0  0  0  0  0  0
   20.0105   15.1623  107.8393 C   0  0  0  0  0  0
   20.5142   13.9935  108.4210 C   0  0  0  0  0  0
   21.5180   13.2785  107.7698 C   0  0  0  0  0  0
   22.0228   13.7351  106.5589 C   0  0  0  0  0  0
   21.5273   14.8953  105.9745 C   0  0  0  0  0  0
   20.5160   15.6039  106.6106 C   0  0  0  0  0  0
   17.2609   16.4309  103.7414 N   0  0  0  0  0  0
   15.9149   14.4509  104.1765 C   0  0  0  0  0  0
   16.3180   13.1622  103.9957 O   0  0  0  0  0  0
   14.7917   14.8859  103.9242 O   0  0  0  0  0  0
   18.1104   15.1195  111.3581 C   0  0  0  0  0  0
   18.2364   14.3613  112.5161 C   0  0  0  0  0  0
   17.4841   12.4128  111.3104 C   0  0  0  0  0  0
   17.3763   13.1681  110.1436 C   0  0  0  0  0  0
   17.9179   13.0111  112.4887 C   0  0  0  0  0  0
   18.0255   12.2842  113.6204 F   0  0  0  0  0  0
   17.8968   18.2748  109.2657 H   0  0  0  0  0  0
   16.2001   19.9230  109.7775 H   0  0  0  0  0  0
   13.8517   19.2452  110.1133 H   0  0  0  0  0  0
   13.1978   16.8710  109.9078 H   0  0  0  0  0  0
   14.8884   15.1741  109.3634 H   0  0  0  0  0  0
   15.7313   16.2796  106.2067 H   0  0  0  0  0  0
   17.4058   16.7038  106.3757 H   0  0  0  0  0  0
   17.9684   14.7623  104.7786 H   0  0  0  0  0  0
   18.8900   16.9457  107.9667 H   0  0  0  0  0  0
   19.4662   16.3761  109.4824 H   0  0  0  0  0  0
   20.1448   13.6450  109.3734 H   0  0  0  0  0  0
   21.9076   12.3619  108.1750 H   0  0  0  0  0  0
   22.7924   13.1713  106.0530 H   0  0  0  0  0  0
   21.9193   15.2362  105.0274 H   0  0  0  0  0  0
   20.1454   16.5105  106.1541 H   0  0  0  0  0  0
   16.7190   16.2433  102.9078 H   0  0  0  0  0  0
   16.8925   17.2968  104.1098 H   0  0  0  0  0  0
   17.2690   13.0300  104.1590 H   0  0  0  0  0  0
   18.3407   16.1741  111.4074 H   0  0  0  0  0  0
   18.5687   14.8185  113.4356 H   0  0  0  0  0  0
   17.2350   11.3625  111.2950 H   0  0  0  0  0  0
   17.0465   12.6617  109.2490 H   0  0  0  0  0  0
  1 23  2  0  0  0
  1  2  1  0  0  0
  1 26  1  0  0  0
  2  9  1  0  0  0
  2  3  1  0  0  0
  2 12  1  0  0  0
  3  4  2  0  0  0
  3  8  1  0  0  0
  4  5  1  0  0  0
  4 29  1  0  0  0
  5  6  2  0  0  0
  5 30  1  0  0  0
  6  7  1  0  0  0
  6 31  1  0  0  0
  7  8  2  0  0  0
  7 32  1  0  0  0
  8 33  1  0  0  0
  9 10  1  0  0  0
 10 11  1  0  0  0
 10 34  1  0  0  0
 10 35  1  0  0  0
 11 19  1  0  0  0
 11 20  1  0  0  0
 11 36  1  0  0  0
 12 13  1  0  0  0
 12 37  1  0  0  0
 12 38  1  0  0  0
 13 14  2  0  0  0
 13 18  1  0  0  0
 14 15  1  0  0  0
 14 39  1  0  0  0
 15 16  2  0  0  0
 15 40  1  0  0  0
 16 17  1  0  0  0
 16 41  1  0  0  0
 17 18  2  0  0  0
 17 42  1  0  0  0
 18 43  1  0  0  0
 19 44  1  0  0  0
 19 45  1  0  0  0
 20 21  1  0  0  0
 20 22  2  0  0  0
 21 46  1  0  0  0
 23 24  1  0  0  0
 23 47  1  0  0  0
 24 27  2  0  0  0
 24 48  1  0  0  0
 25 27  1  0  0  0
 25 26  2  0  0  0
 25 49  1  0  0  0
 26 50  1  0  0  0
 27 28  1  0  0  0
M  END
> <s_m_entry_id>
471

> <s_m_entry_name>
dock_pv.470

> <s_m_Source_Path>
/home/csk/Desktop/cluster/DUD-E-result/kif11

> <s_m_Source_File>
dock_pv.maegz

> <i_m_Source_File_Index>
470

> <chembl_id>
CHEMBL2043399

> <chembl_pref_name>
None

> <i_lp_mmshare_version>
53161

> <i_f3d_flags>
0

> <r_lp_tautomer_probability>
1

> <s_lp_Force_Field>
OPLS_2005

> <r_lp_Energy>
21.908093

> <b_lp_Chiralities_Consistent>
1

> <s_lp_Variant>
CHEMBL4581_lig603-2

> <s_i_glide_gridfile>
glide-grid_3cjo

> <i_i_glide_lignum>
931

> <i_i_glide_rotatable_bonds>
9

> <r_i_docking_score>
-7.15716264685906

> <r_i_glide_ligand_efficiency>
-0.255612951673538

> <r_i_glide_ligand_efficiency_sa>
-0.776191469258309

> <r_i_glide_ligand_efficiency_ln>
-1.65208328232169

> <r_i_glide_gscore>
-7.15716264685906

> <r_i_glide_lipo>
-4.08833584435574

> <r_i_glide_hbond>
0

> <r_i_glide_metal>
0

> <r_i_glide_rewards>
-1.162563525

> <r_i_glide_evdw>
-38.2452278137207

> <r_i_glide_ecoul>
-6.49484157562256

> <r_i_glide_erotb>
1.00019417729032

> <r_i_glide_esite>
-0.0199698277642296

> <r_i_glide_emodel>
-60.2728763395101

> <r_i_glide_energy>
-44.7400693893433

> <r_i_glide_einternal>
6.4239559173584

> <i_i_glide_confnum>
3

> <i_i_glide_posenum>
198

> <r_i_glide_eff_state_penalty>
0

> <s_user_duplicate_titles>
CHEMBL4581_lig603

> <s_m_subgroup_title>
dock_pv

> <s_m_subgroupid>
dock_pv

> <b_m_subgroup_collapsed>
1

$$$$
CHEMBL4581_lig191
                    3D
 Schrodinger Suite 2021-1.
 50 52  0  0  1  0            999 V2000
   14.2028   13.1626  106.8267 N   0  0  0  0  0  0
   15.3910   14.0029  106.5574 C   0  0  1  0  0  0
   16.6823   13.3625  107.1105 C   0  0  0  0  0  0
   16.6688   13.1619  108.9266 S   0  0  0  0  0  0
   15.5616   14.2441  105.0619 C   0  0  0  0  0  0
   15.0791   13.5236  104.1803 O   0  0  0  0  0  0
   17.7555   14.4293  109.7578 C   0  0  0  0  0  0
   17.0145   15.7966  109.9299 C   0  0  0  0  0  0
   18.0942   13.9460  111.2088 C   0  0  0  0  0  0
   19.0178   14.5101  108.8499 C   0  0  0  0  0  0
   19.1177   14.5834  111.9295 C   0  0  0  0  0  0
   19.4174   14.2084  113.2359 C   0  0  0  0  0  0
   18.7180   13.1621  113.8322 C   0  0  0  0  0  0
   17.7110   12.5058  113.1396 C   0  0  0  0  0  0
   17.4048   12.8919  111.8412 C   0  0  0  0  0  0
   17.7551   16.9721  110.1519 C   0  0  0  0  0  0
   17.1282   18.2002  110.3296 C   0  0  0  0  0  0
   15.7408   18.2752  110.2893 C   0  0  0  0  0  0
   14.9817   17.1305  110.0699 C   0  0  0  0  0  0
   15.6132   15.9019  109.8929 C   0  0  0  0  0  0
   19.1138   15.4824  107.8361 C   0  0  0  0  0  0
   20.1488   15.4494  106.9130 C   0  0  0  0  0  0
   21.1210   14.4655  107.0177 C   0  0  0  0  0  0
   21.1177   13.5619  108.0775 C   0  0  0  0  0  0
   20.0536   13.5693  108.9772 C   0  0  0  0  0  0
   16.3174   15.3446  104.8326 O   0  0  0  0  0  0
   16.6126   15.7556  103.5066 C   0  0  0  0  0  0
   13.4220   13.4308  106.2454 H   0  0  0  0  0  0
   14.4052   12.1916  106.6189 H   0  0  0  0  0  0
   15.2565   14.9770  107.0279 H   0  0  0  0  0  0
   16.7985   12.3618  106.6929 H   0  0  0  0  0  0
   17.5617   13.8927  106.7686 H   0  0  0  0  0  0
   19.6867   15.3826  111.4822 H   0  0  0  0  0  0
   20.2015   14.7160  113.7772 H   0  0  0  0  0  0
   18.9542   12.8624  114.8429 H   0  0  0  0  0  0
   17.1574   11.7052  113.6087 H   0  0  0  0  0  0
   16.5987   12.3572  111.3653 H   0  0  0  0  0  0
   18.8343   16.9456  110.1872 H   0  0  0  0  0  0
   17.7168   19.0895  110.5039 H   0  0  0  0  0  0
   15.2519   19.2279  110.4320 H   0  0  0  0  0  0
   13.9036   17.1951  110.0414 H   0  0  0  0  0  0
   14.9876   15.0363  109.7397 H   0  0  0  0  0  0
   18.3349   16.2167  107.6916 H   0  0  0  0  0  0
   20.1839   16.1676  106.1073 H   0  0  0  0  0  0
   21.9213   14.4303  106.2921 H   0  0  0  0  0  0
   21.8994   12.8209  108.1595 H   0  0  0  0  0  0
   20.0145   12.8111  109.7460 H   0  0  0  0  0  0
   17.2363   16.6498  103.5265 H   0  0  0  0  0  0
   15.6983   15.9906  102.9596 H   0  0  0  0  0  0
   17.1499   14.9739  102.9675 H   0  0  0  0  0  0
  1  2  1  0  0  0
  1 28  1  0  0  0
  1 29  1  0  0  0
  2  5  1  0  0  0
  2  3  1  0  0  0
  2 30  1  0  0  0
  3  4  1  0  0  0
  3 31  1  0  0  0
  3 32  1  0  0  0
  4  7  1  0  0  0
  5  6  2  0  0  0
  5 26  1  0  0  0
  7  8  1  0  0  0
  7  9  1  0  0  0
  7 10  1  0  0  0
  8 16  2  0  0  0
  8 20  1  0  0  0
  9 15  1  0  0  0
  9 11  2  0  0  0
 10 21  2  0  0  0
 10 25  1  0  0  0
 11 12  1  0  0  0
 11 33  1  0  0  0
 12 13  2  0  0  0
 12 34  1  0  0  0
 13 14  1  0  0  0
 13 35  1  0  0  0
 14 15  2  0  0  0
 14 36  1  0  0  0
 15 37  1  0  0  0
 16 17  1  0  0  0
 16 38  1  0  0  0
 17 18  2  0  0  0
 17 39  1  0  0  0
 18 19  1  0  0  0
 18 40  1  0  0  0
 19 20  2  0  0  0
 19 41  1  0  0  0
 20 42  1  0  0  0
 21 22  1  0  0  0
 21 43  1  0  0  0
 22 23  2  0  0  0
 22 44  1  0  0  0
 23 24  1  0  0  0
 23 45  1  0  0  0
 24 25  2  0  0  0
 24 46  1  0  0  0
 25 47  1  0  0  0
 26 27  1  0  0  0
 27 48  1  0  0  0
 27 49  1  0  0  0
 27 50  1  0  0  0
M  END
> <s_m_entry_id>
472

> <s_m_entry_name>
dock_pv.471

> <s_m_Source_Path>
/home/csk/Desktop/cluster/DUD-E-result/kif11

> <s_m_Source_File>
dock_pv.maegz

> <i_m_Source_File_Index>
471

> <chembl_id>
CHEMBL232728

> <chembl_pref_name>
None

> <i_lp_mmshare_version>
53161

> <i_f3d_flags>
0

> <r_lp_tautomer_probability>
1

> <s_lp_Force_Field>
OPLS_2005

> <r_lp_Energy>
22.423252

> <b_lp_Chiralities_Consistent>
1

> <s_lp_Variant>
CHEMBL4581_lig191-1

> <s_i_glide_gridfile>
glide-grid_3cjo

> <i_i_glide_lignum>
287

> <i_i_glide_rotatable_bonds>
8

> <r_i_docking_score>
-7.1568593909357

> <r_i_glide_ligand_efficiency>
-0.265068866330952

> <r_i_glide_ligand_efficiency_sa>
-0.795206598119232

> <r_i_glide_ligand_efficiency_ln>
-1.66599887616135

> <r_i_glide_gscore>
-7.1568593909357

> <r_i_glide_lipo>
-4.68207372755035

> <r_i_glide_hbond>
-0.0699723101058584

> <r_i_glide_metal>
0

> <r_i_glide_rewards>
-0.960225772714384

> <r_i_glide_evdw>
-44.1423187255859

> <r_i_glide_ecoul>
-1.19642472267151

> <r_i_glide_erotb>
0.951422328143484

> <r_i_glide_esite>
-0.00943026402856618

> <r_i_glide_emodel>
-62.0546405094757

> <r_i_glide_energy>
-45.3387434482574

> <r_i_glide_einternal>
5.15732097625732

> <i_i_glide_confnum>
45

> <i_i_glide_posenum>
323

> <r_i_glide_eff_state_penalty>
0

> <s_user_duplicate_titles>
CHEMBL4581_lig191

> <s_m_subgroup_title>
dock_pv

> <s_m_subgroupid>
dock_pv

> <b_m_subgroup_collapsed>
1

$$$$
CHEMBL4581_lig821
                    3D
 Schrodinger Suite 2021-1.
 53 55  0  0  1  0            999 V2000
   16.3299   17.3284  110.9604 C   0  0  0  0  0  0
   15.0595   17.9036  111.3589 N   0  0  0  0  0  0
   16.5553   17.5341  109.4597 C   0  0  0  0  0  0
   18.1291   16.9060  108.8057 S   0  0  0  0  0  0
   18.1658   15.0421  108.7711 C   0  0  0  0  0  0
   16.9263   14.5435  107.9470 C   0  0  0  0  0  0
   19.5099   14.6783  108.0530 C   0  0  0  0  0  0
   18.1765   14.4841  110.2350 C   0  0  0  0  0  0
   17.0402   13.9613  106.6696 C   0  0  0  0  0  0
   15.9197   13.5464  105.9562 C   0  0  0  0  0  0
   14.6484   13.6990  106.4995 C   0  0  0  0  0  0
   14.4875   14.2473  107.7774 C   0  0  0  0  0  0
   15.6310   14.6306  108.4891 C   0  0  0  0  0  0
   17.4818   13.3098  110.5800 C   0  0  0  0  0  0
   17.5194   12.8067  111.8773 C   0  0  0  0  0  0
   18.2647   13.4639  112.8509 C   0  0  0  0  0  0
   18.9784   14.6145  112.5317 C   0  0  0  0  0  0
   18.9352   15.1186  111.2343 C   0  0  0  0  0  0
   19.8788   15.3324  106.8585 C   0  0  0  0  0  0
   21.0304   14.9803  106.1617 C   0  0  0  0  0  0
   21.8391   13.9617  106.6488 C   0  0  0  0  0  0
   21.5238   13.3369  107.8504 C   0  0  0  0  0  0
   20.3822   13.6978  108.5592 C   0  0  0  0  0  0
   13.1077   14.4358  108.4274 C   0  0  0  0  0  0
   11.9251   13.8169  107.6553 C   0  0  0  0  0  0
   12.8157   15.9150  108.7487 C   0  0  0  0  0  0
   16.3422   16.2729  111.2306 H   0  0  0  0  0  0
   17.1344   17.8147  111.5130 H   0  0  0  0  0  0
   15.1154   18.1270  112.3496 H   0  0  0  0  0  0
   14.9468   18.8003  110.9048 H   0  0  0  0  0  0
   16.5673   18.6058  109.2565 H   0  0  0  0  0  0
   15.7276   17.1585  108.8638 H   0  0  0  0  0  0
   17.9928   13.7999  106.1907 H   0  0  0  0  0  0
   16.0442   13.1056  104.9776 H   0  0  0  0  0  0
   13.8004   13.3772  105.9148 H   0  0  0  0  0  0
   15.5049   15.0175  109.4876 H   0  0  0  0  0  0
   16.9256   12.7512  109.8414 H   0  0  0  0  0  0
   16.9770   11.9050  112.1225 H   0  0  0  0  0  0
   18.2992   13.0698  113.8568 H   0  0  0  0  0  0
   19.5703   15.1112  113.2859 H   0  0  0  0  0  0
   19.5137   16.0021  111.0060 H   0  0  0  0  0  0
   19.2457   16.0991  106.4364 H   0  0  0  0  0  0
   21.2817   15.4776  105.2367 H   0  0  0  0  0  0
   22.7231   13.6681  106.1015 H   0  0  0  0  0  0
   22.1769   12.5687  108.2237 H   0  0  0  0  0  0
   20.1688   13.1622  109.4719 H   0  0  0  0  0  0
   13.1623   13.9007  109.3726 H   0  0  0  0  0  0
   12.0931   12.7623  107.4478 H   0  0  0  0  0  0
   11.0038   13.8850  108.2328 H   0  0  0  0  0  0
   11.7526   14.3249  106.7061 H   0  0  0  0  0  0
   13.5589   16.3394  109.4220 H   0  0  0  0  0  0
   12.8030   16.5224  107.8429 H   0  0  0  0  0  0
   11.8475   16.0307  109.2370 H   0  0  0  0  0  0
  1  3  1  0  0  0
  1  2  1  0  0  0
  1 27  1  0  0  0
  1 28  1  0  0  0
  2 29  1  0  0  0
  2 30  1  0  0  0
  3  4  1  0  0  0
  3 31  1  0  0  0
  3 32  1  0  0  0
  4  5  1  0  0  0
  5  7  1  0  0  0
  5  8  1  0  0  0
  5  6  1  0  0  0
  6 13  1  0  0  0
  6  9  2  0  0  0
  7 19  2  0  0  0
  7 23  1  0  0  0
  8 14  2  0  0  0
  8 18  1  0  0  0
  9 10  1  0  0  0
  9 33  1  0  0  0
 10 11  2  0  0  0
 10 34  1  0  0  0
 11 12  1  0  0  0
 11 35  1  0  0  0
 12 24  1  0  0  0
 12 13  2  0  0  0
 13 36  1  0  0  0
 14 15  1  0  0  0
 14 37  1  0  0  0
 15 16  2  0  0  0
 15 38  1  0  0  0
 16 17  1  0  0  0
 16 39  1  0  0  0
 17 18  2  0  0  0
 17 40  1  0  0  0
 18 41  1  0  0  0
 19 20  1  0  0  0
 19 42  1  0  0  0
 20 21  2  0  0  0
 20 43  1  0  0  0
 21 22  1  0  0  0
 21 44  1  0  0  0
 22 23  2  0  0  0
 22 45  1  0  0  0
 23 46  1  0  0  0
 24 25  1  0  0  0
 24 26  1  0  0  0
 24 47  1  0  0  0
 25 48  1  0  0  0
 25 49  1  0  0  0
 25 50  1  0  0  0
 26 51  1  0  0  0
 26 52  1  0  0  0
 26 53  1  0  0  0
M  END
> <s_m_entry_id>
473

> <s_m_entry_name>
dock_pv.472

> <s_m_Source_Path>
/home/csk/Desktop/cluster/DUD-E-result/kif11

> <s_m_Source_File>
dock_pv.maegz

> <i_m_Source_File_Index>
472

> <chembl_id>
CHEMBL2022983

> <chembl_pref_name>
None

> <i_lp_mmshare_version>
53161

> <i_f3d_flags>
0

> <r_lp_tautomer_probability>
1

> <s_lp_Force_Field>
OPLS_2005

> <r_lp_Energy>
23.963218

> <b_lp_Chiralities_Consistent>
1

> <s_lp_Variant>
CHEMBL4581_lig821-1

> <s_i_glide_gridfile>
glide-grid_3cjo

> <i_i_glide_lignum>
1208

> <i_i_glide_rotatable_bonds>
7

> <r_i_docking_score>
-7.14991321430131

> <r_i_glide_ligand_efficiency>
-0.274996662088512

> <r_i_glide_ligand_efficiency_sa>
-0.814676529377602

> <r_i_glide_ligand_efficiency_ln>
-1.67913365759986

> <r_i_glide_gscore>
-7.14991321430131

> <r_i_glide_lipo>
-4.21905435428511

> <r_i_glide_hbond>
-0.32

> <r_i_glide_metal>
0

> <r_i_glide_rewards>
-1.00017327462645

> <r_i_glide_evdw>
-38.4674263000488

> <r_i_glide_ecoul>
-2.80950570106506

> <r_i_glide_erotb>
0.734111584772451

> <r_i_glide_esite>
0

> <r_i_glide_emodel>
-52.251150266234

> <r_i_glide_energy>
-41.2769320011139

> <r_i_glide_einternal>
11.4492263793945

> <i_i_glide_confnum>
54

> <i_i_glide_posenum>
366

> <r_i_glide_eff_state_penalty>
0

> <s_user_duplicate_titles>
CHEMBL4581_lig821

> <s_m_subgroup_title>
dock_pv

> <s_m_subgroupid>
dock_pv

> <b_m_subgroup_collapsed>
1

$$$$
CHEMBL4581_lig27
                    3D
 Schrodinger Suite 2021-1.
 37 39  0  0  1  0            999 V2000
   18.5883   15.1865  107.2243 N   0  0  0  0  0  0
   18.9652   14.5924  108.3940 N   0  0  0  0  0  0
   17.9905   14.5702  109.2094 C   0  0  0  0  0  0
   17.1622   15.5399  107.2316 C   0  0  2  0  0  0
   16.7487   15.2119  108.6635 C   0  0  0  0  0  0
   19.4825   15.6180  106.2932 C   0  0  0  0  0  0
   18.0242   14.0486  110.5785 C   0  0  0  0  0  0
   16.3757   14.8258  106.1211 C   0  0  0  0  0  0
   18.6922   14.7178  111.6229 C   0  0  0  0  0  0
   15.9981   13.4798  106.2374 C   0  0  0  0  0  0
   19.1663   16.3620  105.3608 O   0  0  0  0  0  0
   15.2555   12.8641  105.2284 C   0  0  0  0  0  0
   19.5180   16.2214  111.3809 Cl  0  0  0  0  0  0
   14.8547   11.5620  105.3590 O   0  0  0  0  0  0
   16.0156   15.5337  104.9677 C   0  0  0  0  0  0
   17.3142   12.8745  110.8614 C   0  0  0  0  0  0
   20.9440   15.1656  106.3773 C   0  0  0  0  0  0
   15.2891   14.9130  103.9517 C   0  0  0  0  0  0
   18.6712   14.1851  112.9144 C   0  0  0  0  0  0
   14.9056   13.5792  104.0848 C   0  0  0  0  0  0
   17.2868   12.3620  112.1577 C   0  0  0  0  0  0
   17.9703   13.0109  113.1839 C   0  0  0  0  0  0
   17.0519   16.6168  107.0787 H   0  0  0  0  0  0
   16.5276   16.1187  109.2286 H   0  0  0  0  0  0
   15.8906   14.5423  108.7232 H   0  0  0  0  0  0
   16.2789   12.9094  107.1105 H   0  0  0  0  0  0
   15.1180   11.1676  106.2085 H   0  0  0  0  0  0
   16.3045   16.5687  104.8534 H   0  0  0  0  0  0
   16.7806   12.3480  110.0811 H   0  0  0  0  0  0
   21.5180   15.8854  106.9590 H   0  0  0  0  0  0
   21.0404   14.1813  106.8357 H   0  0  0  0  0  0
   21.3767   15.1060  105.3783 H   0  0  0  0  0  0
   15.0171   15.4680  103.0661 H   0  0  0  0  0  0
   19.1876   14.6939  113.7152 H   0  0  0  0  0  0
   14.3329   13.1006  103.3045 H   0  0  0  0  0  0
   16.7180   11.4693  112.3683 H   0  0  0  0  0  0
   17.9475   12.6118  114.1883 H   0  0  0  0  0  0
  1  2  1  0  0  0
  1  4  1  0  0  0
  1  6  1  0  0  0
  2  3  2  0  0  0
  3  7  1  0  0  0
  3  5  1  0  0  0
  4  5  1  0  0  0
  4  8  1  0  0  0
  4 23  1  0  0  0
  5 24  1  0  0  0
  5 25  1  0  0  0
  6 11  2  0  0  0
  6 17  1  0  0  0
  7  9  2  0  0  0
  7 16  1  0  0  0
  8 10  1  0  0  0
  8 15  2  0  0  0
  9 13  1  0  0  0
  9 19  1  0  0  0
 10 12  2  0  0  0
 10 26  1  0  0  0
 12 14  1  0  0  0
 12 20  1  0  0  0
 14 27  1  0  0  0
 15 18  1  0  0  0
 15 28  1  0  0  0
 16 21  2  0  0  0
 16 29  1  0  0  0
 17 30  1  0  0  0
 17 31  1  0  0  0
 17 32  1  0  0  0
 18 20  2  0  0  0
 18 33  1  0  0  0
 19 22  2  0  0  0
 19 34  1  0  0  0
 20 35  1  0  0  0
 21 22  1  0  0  0
 21 36  1  0  0  0
 22 37  1  0  0  0
M  END
> <s_m_entry_id>
474

> <s_m_entry_name>
dock_pv.473

> <s_m_Source_Path>
/home/csk/Desktop/cluster/DUD-E-result/kif11

> <s_m_Source_File>
dock_pv.maegz

> <i_m_Source_File_Index>
473

> <chembl_id>
CHEMBL364452

> <chembl_pref_name>
None

> <i_lp_mmshare_version>
53161

> <i_f3d_flags>
0

> <r_lp_tautomer_probability>
0.999999999997365

> <s_lp_Force_Field>
OPLS_2005

> <r_lp_Energy>
24.947243

> <b_lp_Chiralities_Consistent>
1

> <s_lp_Variant>
CHEMBL4581_lig27-1

> <s_i_glide_gridfile>
glide-grid_3cjo

> <i_i_glide_lignum>
40

> <i_i_glide_rotatable_bonds>
4

> <r_i_docking_score>
-7.14245263861986

> <r_i_glide_ligand_efficiency>
-0.324656938119084

> <r_i_glide_ligand_efficiency_sa>
-0.909701508642518

> <r_i_glide_ligand_efficiency_ln>
-1.74587595216878

> <r_i_glide_gscore>
-7.14245263861986

> <r_i_glide_lipo>
-2.39524684021803

> <r_i_glide_hbond>
-0.32

> <r_i_glide_metal>
0

> <r_i_glide_rewards>
-1.95196218547398

> <r_i_glide_evdw>
-35.7662658691406

> <r_i_glide_ecoul>
-7.08168983459473

> <r_i_glide_erotb>
0.37532315571839

> <r_i_glide_esite>
0

> <r_i_glide_emodel>
-58.2349182150291

> <r_i_glide_energy>
-42.8479557037354

> <r_i_glide_einternal>
5.29965782165527

> <i_i_glide_confnum>
4

> <i_i_glide_posenum>
394

> <r_i_glide_eff_state_penalty>
0

> <s_user_duplicate_titles>
CHEMBL4581_lig27

> <s_m_subgroup_title>
dock_pv

> <s_m_subgroupid>
dock_pv

> <b_m_subgroup_collapsed>
1

$$$$
CHEMBL4581_lig293
                    3D
 Schrodinger Suite 2021-1.
 52 55  0  0  1  0            999 V2000
   15.9178   16.7619  105.1461 O   0  0  0  0  0  0
   14.5916   16.1526  105.0142 S   0  0  0  0  0  0
   14.3913   14.9526  104.1968 O   0  0  0  0  0  0
   19.6280   13.8720  108.5121 N   0  0  0  0  0  0
   18.7291   15.9015  108.1316 C   0  0  0  0  0  0
   18.5922   14.7141  108.8132 C   0  0  0  0  0  0
   17.4401   14.3609  109.7259 C   0  0  2  0  0  0
   16.4163   15.4368  109.6107 N   0  0  0  0  0  0
   16.9313   16.8245  109.6053 C   0  0  0  0  0  0
   17.7511   17.0507  108.3085 C   0  0  0  0  0  0
   20.4154   14.4441  107.5400 C   0  0  0  0  0  0
   19.8638   15.7384  107.2889 C   0  0  0  0  0  0
   20.4704   16.5616  106.3470 C   0  0  0  0  0  0
   21.5936   16.1010  105.6861 C   0  0  0  0  0  0
   22.1121   14.8267  105.9166 C   0  0  0  0  0  0
   21.5347   13.9629  106.8521 C   0  0  0  0  0  0
   17.8890   14.0282  111.1391 C   0  0  0  0  0  0
   18.9696   14.6837  111.7489 C   0  0  0  0  0  0
   19.3412   14.3619  113.0522 C   0  0  0  0  0  0
   18.6173   13.4038  113.7590 C   0  0  0  0  0  0
   17.5177   12.7887  113.1694 C   0  0  0  0  0  0
   17.1720   13.0729  111.8528 C   0  0  0  0  0  0
   15.1180   15.1240  109.3589 C   0  0  0  0  0  0
   14.7137   13.9616  109.3587 O   0  0  0  0  0  0
   14.0738   16.2331  109.1127 C   0  0  0  0  0  0
   14.0778   16.8237  107.6836 C   0  0  0  0  0  0
   16.7181   11.9620  113.9009 O   0  0  0  0  0  0
   22.3169   17.1620  104.5619 Cl  0  0  0  0  0  0
   13.9891   15.7932  106.6236 N   0  0  1  0  0  0
   13.4009   17.4676  104.3970 C   0  0  0  0  0  0
   19.7081   12.9497  108.9158 H   0  0  0  0  0  0
   17.0163   13.4288  109.3459 H   0  0  0  0  0  0
   17.5897   16.9192  110.4700 H   0  0  0  0  0  0
   16.1785   17.5866  109.8009 H   0  0  0  0  0  0
   17.0993   17.1355  107.4422 H   0  0  0  0  0  0
   18.2821   18.0003  108.3833 H   0  0  0  0  0  0
   20.0787   17.5493  106.1506 H   0  0  0  0  0  0
   22.9806   14.5012  105.3627 H   0  0  0  0  0  0
   21.9404   12.9771  107.0289 H   0  0  0  0  0  0
   19.5263   15.4406  111.2158 H   0  0  0  0  0  0
   20.1825   14.8547  113.5166 H   0  0  0  0  0  0
   18.8826   13.1621  114.7783 H   0  0  0  0  0  0
   16.3192   12.5882  111.3968 H   0  0  0  0  0  0
   14.1472   17.0131  109.8689 H   0  0  0  0  0  0
   13.0940   15.7825  109.2804 H   0  0  0  0  0  0
   14.9326   17.4783  107.5167 H   0  0  0  0  0  0
   13.2099   17.4761  107.5773 H   0  0  0  0  0  0
   16.0094   11.5594  113.3880 H   0  0  0  0  0  0
   13.1456   15.2138  106.6387 H   0  0  0  0  0  0
   13.6956   17.7511  103.3876 H   0  0  0  0  0  0
   12.3937   17.0537  104.3931 H   0  0  0  0  0  0
   13.4581   18.3316  105.0567 H   0  0  0  0  0  0
  1  2  2  0  0  0
  2  3  2  0  0  0
  2 29  1  0  0  0
  2 30  1  0  0  0
  4  6  1  0  0  0
  4 11  1  0  0  0
  4 31  1  0  0  0
  5 12  1  0  0  0
  5 10  1  0  0  0
  5  6  2  0  0  0
  6  7  1  0  0  0
  7  8  1  0  0  0
  7 17  1  0  0  0
  7 32  1  0  0  0
  8  9  1  0  0  0
  8 23  1  0  0  0
  9 10  1  0  0  0
  9 33  1  0  0  0
  9 34  1  0  0  0
 10 35  1  0  0  0
 10 36  1  0  0  0
 11 16  1  0  0  0
 11 12  2  0  0  0
 12 13  1  0  0  0
 13 14  2  0  0  0
 13 37  1  0  0  0
 14 15  1  0  0  0
 14 28  1  0  0  0
 15 16  2  0  0  0
 15 38  1  0  0  0
 16 39  1  0  0  0
 17 18  2  0  0  0
 17 22  1  0  0  0
 18 19  1  0  0  0
 18 40  1  0  0  0
 19 20  2  0  0  0
 19 41  1  0  0  0
 20 21  1  0  0  0
 20 42  1  0  0  0
 21 22  2  0  0  0
 21 27  1  0  0  0
 22 43  1  0  0  0
 23 24  2  0  0  0
 23 25  1  0  0  0
 25 26  1  0  0  0
 25 44  1  0  0  0
 25 45  1  0  0  0
 26 29  1  0  0  0
 26 46  1  0  0  0
 26 47  1  0  0  0
 27 48  1  0  0  0
 29 49  1  0  0  0
 30 50  1  0  0  0
 30 51  1  0  0  0
 30 52  1  0  0  0
M  END
> <s_m_entry_id>
475

> <s_m_entry_name>
dock_pv.474

> <s_m_Source_Path>
/home/csk/Desktop/cluster/DUD-E-result/kif11

> <s_m_Source_File>
dock_pv.maegz

> <i_m_Source_File_Index>
474

> <chembl_id>
CHEMBL589153

> <chembl_pref_name>
None

> <i_lp_mmshare_version>
53161

> <i_f3d_flags>
0

> <r_lp_tautomer_probability>
0.999999999997365

> <s_lp_Force_Field>
OPLS_2005

> <r_lp_Energy>
19.423205

> <b_lp_Chiralities_Consistent>
1

> <s_lp_Variant>
CHEMBL4581_lig293-1

> <s_i_glide_gridfile>
glide-grid_3cjo

> <i_i_glide_lignum>
422

> <i_i_glide_rotatable_bonds>
7

> <r_i_docking_score>
-7.13794930019967

> <r_i_glide_ligand_efficiency>
-0.237931643339989

> <r_i_glide_ligand_efficiency_sa>
-0.739308935542855

> <r_i_glide_ligand_efficiency_ln>
-1.62181985519221

> <r_i_glide_gscore>
-7.13794930019967

> <r_i_glide_lipo>
-4.50494465798819

> <r_i_glide_hbond>
-0.121259155735939

> <r_i_glide_metal>
0

> <r_i_glide_rewards>
-0.714038128673103

> <r_i_glide_evdw>
-38.5894470214844

> <r_i_glide_ecoul>
-2.44892382621765

> <r_i_glide_erotb>
0.499103567204422

> <r_i_glide_esite>
0

> <r_i_glide_emodel>
-49.5618462772967

> <r_i_glide_energy>
-41.038370847702

> <r_i_glide_einternal>
4.99098205566406

> <i_i_glide_confnum>
13

> <i_i_glide_posenum>
279

> <r_i_glide_eff_state_penalty>
0

> <s_user_duplicate_titles>
CHEMBL4581_lig293,590313

> <s_m_subgroup_title>
dock_pv

> <s_m_subgroupid>
dock_pv

> <b_m_subgroup_collapsed>
1

$$$$
CHEMBL4581_lig562
                    3D
 Schrodinger Suite 2021-1.
 65 69  0  0  1  0            999 V2000
   18.0289   16.9186  108.4217 N   0  0  0  0  0  0
   18.1926   15.6368  108.5156 C   0  0  0  0  0  0
   17.4329   14.8634  109.3907 N   0  0  0  0  0  0
   16.2714   15.3061  109.9977 C   0  0  0  0  0  0
   16.9773   17.4770  109.0834 C   0  0  0  0  0  0
   16.1015   16.7368  109.8655 C   0  0  0  0  0  0
   14.8274   17.6870  110.5590 S   0  0  0  0  0  0
   15.4694   19.1036  109.7935 C   0  0  0  0  0  0
   16.5958   18.8202  109.0288 C   0  0  0  0  0  0
   15.5180   14.5315  110.5590 O   0  0  0  0  0  0
   19.1758   14.8982  107.5895 C   0  0  1  0  0  0
   19.2926   15.5074  106.2135 N   0  0  0  0  0  0
   20.4855   14.6654  108.4156 C   0  0  0  0  0  0
   18.2552   15.8705  105.3591 C   0  0  0  0  0  0
   16.7683   15.7573  105.6839 C   0  0  0  0  0  0
   18.4713   16.3669  104.2528 O   0  0  0  0  0  0
   20.6228   15.2775  105.5870 C   0  0  0  0  0  0
   21.3850   16.4682  104.9589 C   0  0  0  0  0  0
   17.7684   13.4369  109.6964 C   0  0  0  0  0  0
   17.9188   13.1313  111.1857 C   0  0  0  0  0  0
   18.7576   13.9141  111.9835 C   0  0  0  0  0  0
   18.7766   13.7218  113.3590 C   0  0  0  0  0  0
   17.9460   12.7619  113.9308 C   0  0  0  0  0  0
   17.1180   11.9698  113.1376 C   0  0  0  0  0  0
   17.1183   12.1437  111.7589 C   0  0  0  0  0  0
   21.2279   13.3231  108.2070 C   0  0  0  0  0  0
   22.0215   17.3984  106.0044 C   0  0  0  0  0  0
   23.4420   17.5620  105.7590 N   0  0  0  0  0  0
   16.1895   14.6904  106.3905 C   0  0  0  0  0  0
   14.5649   16.8142  105.4937 C   0  0  0  0  0  0
   15.9181   16.7620  105.1911 C   0  0  0  0  0  0
   14.0022   15.8225  106.3113 C   0  0  0  0  0  0
   14.8165   14.7344  106.7558 C   0  0  0  0  0  0
   14.2877   13.7648  107.5557 N   0  0  0  0  0  0
   12.9877   13.9051  107.9256 C   0  0  0  0  0  0
   12.1993   14.9629  107.4856 C   0  0  0  0  0  0
   12.6911   15.9236  106.6689 N   0  0  0  0  0  0
   14.9849   20.0603  109.9267 H   0  0  0  0  0  0
   17.1180   19.5620  108.4517 H   0  0  0  0  0  0
   18.7852   13.9067  107.3707 H   0  0  0  0  0  0
   21.1180   15.5149  108.2200 H   0  0  0  0  0  0
   20.3175   14.7265  109.4912 H   0  0  0  0  0  0
   21.3599   14.9223  106.2866 H   0  0  0  0  0  0
   20.5438   14.4072  104.9544 H   0  0  0  0  0  0
   22.1634   16.0260  104.3335 H   0  0  0  0  0  0
   20.7870   17.0536  104.2629 H   0  0  0  0  0  0
   16.9855   12.8034  109.2731 H   0  0  0  0  0  0
   18.6811   13.0842  109.2314 H   0  0  0  0  0  0
   19.3665   14.6925  111.5493 H   0  0  0  0  0  0
   19.4209   14.3262  113.9802 H   0  0  0  0  0  0
   17.9449   12.6228  115.0003 H   0  0  0  0  0  0
   16.4625   11.2364  113.5861 H   0  0  0  0  0  0
   16.4500   11.5548  111.1468 H   0  0  0  0  0  0
   22.1557   13.3141  108.7791 H   0  0  0  0  0  0
   20.6373   12.4787  108.5590 H   0  0  0  0  0  0
   21.4969   13.1128  107.1730 H   0  0  0  0  0  0
   21.5181   18.3620  106.0067 H   0  0  0  0  0  0
   21.9081   17.0053  107.0088 H   0  0  0  0  0  0
   23.8930   16.6583  105.7735 H   0  0  0  0  0  0
   23.5878   17.9386  104.8324 H   0  0  0  0  0  0
   16.7752   13.8444  106.7148 H   0  0  0  0  0  0
   13.9476   17.6243  105.1323 H   0  0  0  0  0  0
   16.3169   17.5561  104.5731 H   0  0  0  0  0  0
   12.5772   13.1620  108.5875 H   0  0  0  0  0  0
   11.1652   15.0549  107.7845 H   0  0  0  0  0  0
  1  5  1  0  0  0
  1  2  2  0  0  0
  2 11  1  0  0  0
  2  3  1  0  0  0
  3 19  1  0  0  0
  3  4  1  0  0  0
  4 10  2  0  0  0
  4  6  1  0  0  0
  5  9  1  0  0  0
  5  6  2  0  0  0
  6  7  1  0  0  0
  7  8  1  0  0  0
  8  9  2  0  0  0
  8 38  1  0  0  0
  9 39  1  0  0  0
 11 12  1  0  0  0
 11 13  1  0  0  0
 11 40  1  0  0  0
 12 14  1  0  0  0
 12 17  1  0  0  0
 13 26  1  0  0  0
 13 41  1  0  0  0
 13 42  1  0  0  0
 14 15  1  0  0  0
 14 16  2  0  0  0
 15 29  2  0  0  0
 15 31  1  0  0  0
 17 18  1  0  0  0
 17 43  1  0  0  0
 17 44  1  0  0  0
 18 27  1  0  0  0
 18 45  1  0  0  0
 18 46  1  0  0  0
 19 20  1  0  0  0
 19 47  1  0  0  0
 19 48  1  0  0  0
 20 21  2  0  0  0
 20 25  1  0  0  0
 21 22  1  0  0  0
 21 49  1  0  0  0
 22 23  2  0  0  0
 22 50  1  0  0  0
 23 24  1  0  0  0
 23 51  1  0  0  0
 24 25  2  0  0  0
 24 52  1  0  0  0
 25 53  1  0  0  0
 26 54  1  0  0  0
 26 55  1  0  0  0
 26 56  1  0  0  0
 27 28  1  0  0  0
 27 57  1  0  0  0
 27 58  1  0  0  0
 28 59  1  0  0  0
 28 60  1  0  0  0
 29 33  1  0  0  0
 29 61  1  0  0  0
 30 32  1  0  0  0
 30 31  2  0  0  0
 30 62  1  0  0  0
 31 63  1  0  0  0
 32 33  2  0  0  0
 32 37  1  0  0  0
 33 34  1  0  0  0
 34 35  2  0  0  0
 35 36  1  0  0  0
 35 64  1  0  0  0
 36 37  2  0  0  0
 36 65  1  0  0  0
M  END
> <s_m_entry_id>
476

> <s_m_entry_name>
dock_pv.475

> <s_m_Source_Path>
/home/csk/Desktop/cluster/DUD-E-result/kif11

> <s_m_Source_File>
dock_pv.maegz

> <i_m_Source_File_Index>
475

> <chembl_id>
CHEMBL1829419

> <chembl_pref_name>
None

> <i_lp_mmshare_version>
53161

> <i_f3d_flags>
0

> <r_lp_tautomer_probability>
1

> <s_lp_Force_Field>
OPLS_2005

> <r_lp_Energy>
64.288904

> <b_lp_Chiralities_Consistent>
1

> <s_lp_Variant>
CHEMBL4581_lig562-2

> <s_i_glide_gridfile>
glide-grid_3cjo

> <i_i_glide_lignum>
853

> <i_i_glide_rotatable_bonds>
10

> <r_i_docking_score>
-7.13716617298701

> <r_i_glide_ligand_efficiency>
-0.192896383053703

> <r_i_glide_ligand_efficiency_sa>
-0.642773541941349

> <r_i_glide_ligand_efficiency_ln>
-1.54788402400642

> <r_i_glide_gscore>
-7.13716617298701

> <r_i_glide_lipo>
-4.39952778331664

> <r_i_glide_hbond>
-0.115932685776958

> <r_i_glide_metal>
0

> <r_i_glide_rewards>
-0.403101927986968

> <r_i_glide_evdw>
-43.0929222106934

> <r_i_glide_ecoul>
-4.06700468063354

> <r_i_glide_erotb>
0.546093036723257

> <r_i_glide_esite>
0

> <r_i_glide_emodel>
-48.3354700412512

> <r_i_glide_energy>
-47.1599268913269

> <r_i_glide_einternal>
13.3598976135254

> <i_i_glide_confnum>
2

> <i_i_glide_posenum>
97

> <r_i_glide_eff_state_penalty>
0

> <s_user_duplicate_titles>
CHEMBL4581_lig562

> <s_m_subgroup_title>
dock_pv

> <s_m_subgroupid>
dock_pv

> <b_m_subgroup_collapsed>
1

$$$$
CHEMBL4581_lig768
                    3D
 Schrodinger Suite 2021-1.
 40 43  0  0  1  0            999 V2000
   17.1309   14.8724  108.9419 C   0  0  2  0  0  0
   16.1706   13.6467  108.8779 C   0  0  0  0  0  0
   14.8403   14.0229  108.1971 C   0  0  0  0  0  0
   14.1758   15.0284  108.9588 O   0  0  0  0  0  0
   17.8201   15.0684  107.2829 S   0  0  0  0  0  0
   19.4593   14.9039  107.9583 C   0  0  0  0  0  0
   19.5431   14.7063  109.2054 N   0  0  0  0  0  0
   18.3262   14.6652  109.7974 N   0  0  0  0  0  0
   20.5970   15.0065  107.0527 C   0  0  0  0  0  0
   20.7289   16.1479  106.2495 C   0  0  0  0  0  0
   21.7931   16.2575  105.3589 C   0  0  0  0  0  0
   22.7179   15.2231  105.2532 C   0  0  0  0  0  0
   22.6012   14.0948  106.0579 C   0  0  0  0  0  0
   21.5493   13.9768  106.9595 C   0  0  0  0  0  0
   18.2410   14.5300  111.1550 C   0  0  0  0  0  0
   17.1682   14.3658  111.7432 O   0  0  0  0  0  0
   19.5400   14.6293  111.9920 C   0  0  0  0  0  0
   21.5181   12.8924  107.7695 F   0  0  0  0  0  0
   21.9154   17.3543  104.5781 F   0  0  0  0  0  0
   16.3381   16.1555  109.2709 C   0  0  0  0  0  0
   14.9280   16.1532  109.2342 C   0  0  0  0  0  0
   14.1935   17.2986  109.5393 C   0  0  0  0  0  0
   14.8522   18.4788  109.8738 C   0  0  0  0  0  0
   16.2431   18.5104  109.9064 C   0  0  0  0  0  0
   16.9746   17.3613  109.6118 C   0  0  0  0  0  0
   19.2969   14.3332  113.3583 O   0  0  0  0  0  0
   15.9327   13.2791  109.8758 H   0  0  0  0  0  0
   16.6355   12.8038  108.3629 H   0  0  0  0  0  0
   14.1818   13.1621  108.1140 H   0  0  0  0  0  0
   15.0156   14.3845  107.1819 H   0  0  0  0  0  0
   20.0147   16.9581  106.3095 H   0  0  0  0  0  0
   23.5178   15.2874  104.5362 H   0  0  0  0  0  0
   23.3180   13.2979  105.9788 H   0  0  0  0  0  0
   20.3105   13.9631  111.5983 H   0  0  0  0  0  0
   19.9269   15.6469  111.9239 H   0  0  0  0  0  0
   13.1146   17.2680  109.5174 H   0  0  0  0  0  0
   14.2859   19.3689  110.1066 H   0  0  0  0  0  0
   16.7559   19.4254  110.1596 H   0  0  0  0  0  0
   18.0536   17.4125  109.6387 H   0  0  0  0  0  0
   18.4948   13.7988  113.4060 H   0  0  0  0  0  0
  1  2  1  0  0  0
  1 20  1  0  0  0
  1  8  1  0  0  0
  1  5  1  0  0  0
  2  3  1  0  0  0
  2 27  1  0  0  0
  2 28  1  0  0  0
  3  4  1  0  0  0
  3 29  1  0  0  0
  3 30  1  0  0  0
  4 21  1  0  0  0
  5  6  1  0  0  0
  6  7  2  0  0  0
  6  9  1  0  0  0
  7  8  1  0  0  0
  8 15  1  0  0  0
  9 10  2  0  0  0
  9 14  1  0  0  0
 10 11  1  0  0  0
 10 31  1  0  0  0
 11 12  2  0  0  0
 11 19  1  0  0  0
 12 13  1  0  0  0
 12 32  1  0  0  0
 13 14  2  0  0  0
 13 33  1  0  0  0
 14 18  1  0  0  0
 15 16  2  0  0  0
 15 17  1  0  0  0
 17 26  1  0  0  0
 17 34  1  0  0  0
 17 35  1  0  0  0
 20 21  2  0  0  0
 20 25  1  0  0  0
 21 22  1  0  0  0
 22 23  2  0  0  0
 22 36  1  0  0  0
 23 24  1  0  0  0
 23 37  1  0  0  0
 24 25  2  0  0  0
 24 38  1  0  0  0
 25 39  1  0  0  0
 26 40  1  0  0  0
M  END
> <s_m_entry_id>
477

> <s_m_entry_name>
dock_pv.476

> <s_m_Source_Path>
/home/csk/Desktop/cluster/DUD-E-result/kif11

> <s_m_Source_File>
dock_pv.maegz

> <i_m_Source_File_Index>
476

> <chembl_id>
CHEMBL3402346

> <chembl_pref_name>
None

> <i_lp_mmshare_version>
53161

> <i_f3d_flags>
0

> <r_lp_tautomer_probability>
1

> <s_lp_Force_Field>
OPLS_2005

> <r_lp_Energy>
28.024938

> <b_lp_Chiralities_Consistent>
1

> <s_lp_Variant>
CHEMBL4581_lig768-1

> <s_i_glide_gridfile>
glide-grid_3cjo

> <i_i_glide_lignum>
1141

> <i_i_glide_rotatable_bonds>
4

> <r_i_docking_score>
-7.13600341560488

> <r_i_glide_ligand_efficiency>
-0.274461669830957

> <r_i_glide_ligand_efficiency_sa>
-0.813091616919688

> <r_i_glide_ligand_efficiency_ln>
-1.67586698701778

> <r_i_glide_gscore>
-7.13600341560488

> <r_i_glide_lipo>
-2.86558252522184

> <r_i_glide_hbond>
0

> <r_i_glide_metal>
0

> <r_i_glide_rewards>
-2.46019965929394

> <r_i_glide_evdw>
-37.7907028198242

> <r_i_glide_ecoul>
-2.20411586761475

> <r_i_glide_erotb>
0.409931290044323

> <r_i_glide_esite>
0

> <r_i_glide_emodel>
-55.5697291217438

> <r_i_glide_energy>
-39.994818687439

> <r_i_glide_einternal>
3.21246266365051

> <i_i_glide_confnum>
23

> <i_i_glide_posenum>
178

> <r_i_glide_eff_state_penalty>
0

> <s_user_duplicate_titles>
CHEMBL4581_lig768

> <s_m_subgroup_title>
dock_pv

> <s_m_subgroupid>
dock_pv

> <b_m_subgroup_collapsed>
1

$$$$
CHEMBL4581_lig858
                    3D
 Schrodinger Suite 2021-1.
 50 52  0  0  1  0            999 V2000
   12.8971   12.7714  106.0428 O   0  0  0  0  0  0
   12.6710   13.7280  107.1306 S   0  0  0  0  0  0
   11.7709   13.4090  108.2433 O   0  0  0  0  0  0
   16.5981   19.0126  109.3619 C   0  0  0  0  0  0
   15.3062   18.5651  109.8579 N   0  0  0  0  0  0
   17.4584   17.8278  108.8961 C   0  0  0  0  0  0
   18.1393   16.8199  110.2532 S   0  0  0  0  0  0
   18.0858   15.0212  109.7591 C   0  0  0  0  0  0
   16.7222   14.7002  109.0650 C   0  0  0  0  0  0
   19.2830   14.7637  108.7869 C   0  0  0  0  0  0
   18.2110   14.1985  111.0902 C   0  0  0  0  0  0
   15.5284   15.2439  109.5629 C   0  0  0  0  0  0
   14.3075   14.9643  108.9587 C   0  0  0  0  0  0
   14.2580   14.1176  107.8542 C   0  0  0  0  0  0
   15.4284   13.5618  107.3426 C   0  0  0  0  0  0
   16.6477   13.8481  107.9482 C   0  0  0  0  0  0
   17.4185   13.0608  111.3334 C   0  0  0  0  0  0
   17.4710   12.3966  112.5562 C   0  0  0  0  0  0
   18.3145   12.8543  113.5616 C   0  0  0  0  0  0
   19.1240   13.9614  113.3401 C   0  0  0  0  0  0
   19.0868   14.6135  112.1108 C   0  0  0  0  0  0
   19.3392   15.4272  107.5471 C   0  0  0  0  0  0
   20.3501   15.1649  106.6290 C   0  0  0  0  0  0
   21.3242   14.2245  106.9359 C   0  0  0  0  0  0
   21.3024   13.5612  108.1585 C   0  0  0  0  0  0
   20.2901   13.8269  109.0760 C   0  0  0  0  0  0
   12.1225   15.3555  106.3697 C   0  0  0  0  0  0
   17.1147   19.5620  110.1500 H   0  0  0  0  0  0
   16.4348   19.7083  108.5372 H   0  0  0  0  0  0
   14.7915   19.3531  110.2243 H   0  0  0  0  0  0
   14.7571   18.1953  109.0935 H   0  0  0  0  0  0
   18.3155   18.2267  108.3566 H   0  0  0  0  0  0
   16.9065   17.2214  108.1801 H   0  0  0  0  0  0
   15.5423   15.8853  110.4304 H   0  0  0  0  0  0
   13.3985   15.3898  109.3585 H   0  0  0  0  0  0
   15.3980   12.8871  106.4984 H   0  0  0  0  0  0
   17.5305   13.3757  107.5416 H   0  0  0  0  0  0
   16.7398   12.6767  110.5871 H   0  0  0  0  0  0
   16.8273   11.5492  112.7337 H   0  0  0  0  0  0
   18.3419   12.3516  114.5185 H   0  0  0  0  0  0
   19.7858   14.3129  114.1169 H   0  0  0  0  0  0
   19.7360   15.4642  111.9658 H   0  0  0  0  0  0
   18.5761   16.1289  107.2622 H   0  0  0  0  0  0
   20.3693   15.6739  105.6767 H   0  0  0  0  0  0
   22.1033   14.0050  106.2201 H   0  0  0  0  0  0
   22.0673   12.8326  108.3832 H   0  0  0  0  0  0
   20.2989   13.2728  110.0022 H   0  0  0  0  0  0
   11.1602   15.1970  105.8859 H   0  0  0  0  0  0
   12.0336   16.1017  107.1586 H   0  0  0  0  0  0
   12.8654   15.6652  105.6364 H   0  0  0  0  0  0
  1  2  2  0  0  0
  2  3  2  0  0  0
  2 14  1  0  0  0
  2 27  1  0  0  0
  4  5  1  0  0  0
  4  6  1  0  0  0
  4 28  1  0  0  0
  4 29  1  0  0  0
  5 30  1  0  0  0
  5 31  1  0  0  0
  6  7  1  0  0  0
  6 32  1  0  0  0
  6 33  1  0  0  0
  7  8  1  0  0  0
  8  9  1  0  0  0
  8 10  1  0  0  0
  8 11  1  0  0  0
  9 16  1  0  0  0
  9 12  2  0  0  0
 10 22  2  0  0  0
 10 26  1  0  0  0
 11 17  2  0  0  0
 11 21  1  0  0  0
 12 13  1  0  0  0
 12 34  1  0  0  0
 13 14  2  0  0  0
 13 35  1  0  0  0
 14 15  1  0  0  0
 15 16  2  0  0  0
 15 36  1  0  0  0
 16 37  1  0  0  0
 17 18  1  0  0  0
 17 38  1  0  0  0
 18 19  2  0  0  0
 18 39  1  0  0  0
 19 20  1  0  0  0
 19 40  1  0  0  0
 20 21  2  0  0  0
 20 41  1  0  0  0
 21 42  1  0  0  0
 22 23  1  0  0  0
 22 43  1  0  0  0
 23 24  2  0  0  0
 23 44  1  0  0  0
 24 25  1  0  0  0
 24 45  1  0  0  0
 25 26  2  0  0  0
 25 46  1  0  0  0
 26 47  1  0  0  0
 27 48  1  0  0  0
 27 49  1  0  0  0
 27 50  1  0  0  0
M  END
> <s_m_entry_id>
478

> <s_m_entry_name>
dock_pv.477

> <s_m_Source_Path>
/home/csk/Desktop/cluster/DUD-E-result/kif11

> <s_m_Source_File>
dock_pv.maegz

> <i_m_Source_File_Index>
477

> <chembl_id>
CHEMBL2024136

> <chembl_pref_name>
None

> <i_lp_mmshare_version>
53161

> <i_f3d_flags>
0

> <r_lp_tautomer_probability>
1

> <s_lp_Force_Field>
OPLS_2005

> <r_lp_Energy>
21.325138

> <b_lp_Chiralities_Consistent>
1

> <s_lp_Variant>
CHEMBL4581_lig858-1

> <s_i_glide_gridfile>
glide-grid_3cjo

> <i_i_glide_lignum>
1245

> <i_i_glide_rotatable_bonds>
7

> <r_i_docking_score>
-7.13005786834364

> <r_i_glide_ligand_efficiency>
-0.264076217346061

> <r_i_glide_ligand_efficiency_sa>
-0.79222865116783

> <r_i_glide_ligand_efficiency_ln>
-1.65975992355955

> <r_i_glide_gscore>
-7.13005786834364

> <r_i_glide_lipo>
-4.47246401322106

> <r_i_glide_hbond>
0

> <r_i_glide_metal>
0

> <r_i_glide_rewards>
-0.83487382963546

> <r_i_glide_evdw>
-43.1027412414551

> <r_i_glide_ecoul>
-1.91251194477081

> <r_i_glide_erotb>
0.619293828301251

> <r_i_glide_esite>
0

> <r_i_glide_emodel>
-60.8623257818483

> <r_i_glide_energy>
-45.0152531862259

> <r_i_glide_einternal>
6.03437280654907

> <i_i_glide_confnum>
28

> <i_i_glide_posenum>
182

> <r_i_glide_eff_state_penalty>
0

> <s_user_duplicate_titles>
CHEMBL4581_lig858

> <s_m_subgroup_title>
dock_pv

> <s_m_subgroupid>
dock_pv

> <b_m_subgroup_collapsed>
1

$$$$
CHEMBL4581_lig314
                    3D
 Schrodinger Suite 2021-1.
 44 47  0  0  1  0            999 V2000
   18.7181   15.9755  109.2722 N   0  0  0  0  0  0
   17.4296   14.2411  108.6841 C   0  0  0  0  0  0
   18.1345   15.3295  108.2141 C   0  0  0  0  0  0
   18.2405   15.7659  106.7524 C   0  0  2  0  0  0
   17.3182   14.9293  105.9375 N   0  0  0  0  0  0
   17.2102   13.5072  106.3209 C   0  0  0  0  0  0
   16.5978   13.3989  107.7396 C   0  0  0  0  0  0
   18.5608   15.2370  110.4236 C   0  0  0  0  0  0
   17.7259   14.1288  110.0842 C   0  0  0  0  0  0
   17.3945   13.2050  111.0858 C   0  0  0  0  0  0
   17.9180   13.3791  112.3683 C   0  0  0  0  0  0
   18.7384   14.4673  112.6664 C   0  0  0  0  0  0
   19.0756   15.4242  111.7098 C   0  0  0  0  0  0
   19.7045   15.7703  106.2756 C   0  0  0  0  0  0
   16.8476   15.3773  104.7418 C   0  0  0  0  0  0
   17.1284   16.4867  104.2835 O   0  0  0  0  0  0
   15.8189   14.5426  103.9733 C   0  0  0  0  0  0
   20.1728   16.7764  105.4251 C   0  0  0  0  0  0
   21.4975   16.7829  104.9823 C   0  0  0  0  0  0
   22.3569   15.7505  105.3503 C   0  0  0  0  0  0
   21.8920   14.7198  106.1589 C   0  0  0  0  0  0
   20.5839   14.7444  106.6387 C   0  0  0  0  0  0
   22.7178   13.6766  106.4665 O   0  0  0  0  0  0
   17.5935   12.3676  113.4456 C   0  0  0  0  0  0
   19.2549   16.8223  109.1534 H   0  0  0  0  0  0
   17.8676   16.7720  106.6753 H   0  0  0  0  0  0
   18.2388   13.1618  106.3446 H   0  0  0  0  0  0
   16.6994   12.8700  105.5990 H   0  0  0  0  0  0
   15.5487   13.6949  107.7399 H   0  0  0  0  0  0
   16.6257   12.3621  108.0592 H   0  0  0  0  0  0
   16.7698   12.3534  110.8562 H   0  0  0  0  0  0
   19.1307   14.5757  113.6669 H   0  0  0  0  0  0
   19.7125   16.2619  111.9548 H   0  0  0  0  0  0
   15.0566   14.1436  104.6431 H   0  0  0  0  0  0
   15.3153   15.1537  103.2237 H   0  0  0  0  0  0
   16.3113   13.7153  103.4614 H   0  0  0  0  0  0
   19.5109   17.5639  105.1053 H   0  0  0  0  0  0
   21.8475   17.5653  104.3267 H   0  0  0  0  0  0
   23.3713   15.7288  104.9830 H   0  0  0  0  0  0
   20.2361   13.9542  107.2825 H   0  0  0  0  0  0
   22.2640   12.9576  106.9088 H   0  0  0  0  0  0
   17.6211   12.8139  114.4412 H   0  0  0  0  0  0
   16.5937   11.9525  113.3087 H   0  0  0  0  0  0
   18.3221   11.5618  113.3919 H   0  0  0  0  0  0
  1  8  1  0  0  0
  1  3  1  0  0  0
  1 25  1  0  0  0
  2  7  1  0  0  0
  2  9  1  0  0  0
  2  3  2  0  0  0
  3  4  1  0  0  0
  4 14  1  0  0  0
  4  5  1  0  0  0
  4 26  1  0  0  0
  5 15  1  0  0  0
  5  6  1  0  0  0
  6  7  1  0  0  0
  6 27  1  0  0  0
  6 28  1  0  0  0
  7 29  1  0  0  0
  7 30  1  0  0  0
  8 13  1  0  0  0
  8  9  2  0  0  0
  9 10  1  0  0  0
 10 11  2  0  0  0
 10 31  1  0  0  0
 11 12  1  0  0  0
 11 24  1  0  0  0
 12 13  2  0  0  0
 12 32  1  0  0  0
 13 33  1  0  0  0
 14 18  2  0  0  0
 14 22  1  0  0  0
 15 16  2  0  0  0
 15 17  1  0  0  0
 17 34  1  0  0  0
 17 35  1  0  0  0
 17 36  1  0  0  0
 18 19  1  0  0  0
 18 37  1  0  0  0
 19 20  2  0  0  0
 19 38  1  0  0  0
 20 21  1  0  0  0
 20 39  1  0  0  0
 21 22  2  0  0  0
 21 23  1  0  0  0
 22 40  1  0  0  0
 23 41  1  0  0  0
 24 42  1  0  0  0
 24 43  1  0  0  0
 24 44  1  0  0  0
M  END
> <s_m_entry_id>
479

> <s_m_entry_name>
dock_pv.478

> <s_m_Source_Path>
/home/csk/Desktop/cluster/DUD-E-result/kif11

> <s_m_Source_File>
dock_pv.maegz

> <i_m_Source_File_Index>
478

> <chembl_id>
CHEMBL591332

> <chembl_pref_name>
None

> <i_lp_mmshare_version>
53161

> <i_f3d_flags>
0

> <r_lp_tautomer_probability>
0.999999999997365

> <s_lp_Force_Field>
OPLS_2005

> <r_lp_Energy>
24.030197

> <b_lp_Chiralities_Consistent>
1

> <s_lp_Variant>
CHEMBL4581_lig314-2

> <s_i_glide_gridfile>
glide-grid_3cjo

> <i_i_glide_lignum>
467

> <i_i_glide_rotatable_bonds>
3

> <r_i_docking_score>
-7.12736039599722

> <r_i_glide_ligand_efficiency>
-0.296973349833218

> <r_i_glide_ligand_efficiency_sa>
-0.856619371471959

> <r_i_glide_ligand_efficiency_ln>
-1.70590439601963

> <r_i_glide_gscore>
-7.12736039599722

> <r_i_glide_lipo>
-3.93433515101239

> <r_i_glide_hbond>
0

> <r_i_glide_metal>
0

> <r_i_glide_rewards>
-1.29472639247235

> <r_i_glide_evdw>
-39.1255340576172

> <r_i_glide_ecoul>
-0.538490295410156

> <r_i_glide_erotb>
0.181905863515534

> <r_i_glide_esite>
-0.0431544688356315

> <r_i_glide_emodel>
-54.4896824218931

> <r_i_glide_energy>
-39.6640243530273

> <r_i_glide_einternal>
1.21834206581116

> <i_i_glide_confnum>
2

> <i_i_glide_posenum>
257

> <r_i_glide_eff_state_penalty>
0

> <s_user_duplicate_titles>
CHEMBL4581_lig314,590440

> <s_m_subgroup_title>
dock_pv

> <s_m_subgroupid>
dock_pv

> <b_m_subgroup_collapsed>
1

$$$$
CHEMBL4581_lig444
                    3D
 Schrodinger Suite 2021-1.
 50 54  0  0  1  0            999 V2000
   16.3871   12.7748  108.4834 N   0  0  0  0  0  0
   16.6077   13.5877  107.3983 C   0  0  0  0  0  0
   17.3256   14.7435  107.4855 C   0  0  0  0  0  0
   18.0413   15.1756  108.7987 C   0  0  2  0  0  0
   16.7255   12.3619  110.7859 N   0  0  0  0  0  0
   16.8833   13.0861  109.7174 C   0  0  0  0  0  0
   17.7487   14.1627  109.8469 N   0  0  0  0  0  0
   15.9725   12.9794  106.1465 C   0  0  0  0  0  0
   17.5141   15.5954  106.3213 C   0  0  0  0  0  0
   16.3543   15.9385  105.7157 N   0  0  0  0  0  0
   18.6265   15.9618  105.9406 O   0  0  0  0  0  0
   16.1936   16.3976  104.4038 C   0  0  0  0  0  0
   16.8667   15.7851  103.3433 C   0  0  0  0  0  0
   16.6123   16.1906  102.0381 C   0  0  0  0  0  0
   15.6985   17.2105  101.7754 C   0  0  0  0  0  0
   15.0186   17.8154  102.8443 C   0  0  0  0  0  0
   15.2491   17.3924  104.1518 C   0  0  0  0  0  0
   17.6332   16.5682  109.2724 C   0  0  0  0  0  0
   15.5180   17.5407  100.4469 O   0  0  0  0  0  0
   14.6882   18.6457  100.1121 C   0  0  0  0  0  0
   18.4741   17.1783  110.1481 O   0  0  0  0  0  0
   17.9170   18.3620  110.4977 C   0  0  0  0  0  0
   16.7176   18.5386  109.8329 C   0  0  0  0  0  0
   16.5363   17.3960  109.0538 C   0  0  0  0  0  0
   17.5563   12.9399  111.6947 C   0  0  0  0  0  0
   18.2358   14.0629  111.1453 C   0  0  0  0  0  0
   19.1678   14.7881  111.8996 C   0  0  0  0  0  0
   19.3889   14.3619  113.2125 C   0  0  0  0  0  0
   18.7179   13.2680  113.7591 C   0  0  0  0  0  0
   17.7905   12.5440  113.0152 C   0  0  0  0  0  0
   15.9893   11.8529  108.3106 H   0  0  0  0  0  0
   19.1177   15.1564  108.6171 H   0  0  0  0  0  0
   16.2271   13.4794  105.2159 H   0  0  0  0  0  0
   16.3271   11.9618  106.0150 H   0  0  0  0  0  0
   14.8862   12.9547  106.2364 H   0  0  0  0  0  0
   15.5064   15.7852  106.2386 H   0  0  0  0  0  0
   17.5517   14.9702  103.5302 H   0  0  0  0  0  0
   17.1173   15.7047  101.2172 H   0  0  0  0  0  0
   14.2972   18.6012  102.6776 H   0  0  0  0  0  0
   14.7035   17.8501  104.9643 H   0  0  0  0  0  0
   14.7020   18.7902   99.0318 H   0  0  0  0  0  0
   15.0542   19.5617  100.5732 H   0  0  0  0  0  0
   13.6528   18.4808  100.4120 H   0  0  0  0  0  0
   18.4762   18.9617  111.2012 H   0  0  0  0  0  0
   16.0558   19.3894  109.9093 H   0  0  0  0  0  0
   15.6946   17.1856  108.4119 H   0  0  0  0  0  0
   19.7124   15.6267  111.4948 H   0  0  0  0  0  0
   20.1105   14.8855  113.8222 H   0  0  0  0  0  0
   18.9251   12.9717  114.7787 H   0  0  0  0  0  0
   17.2713   11.6958  113.4359 H   0  0  0  0  0  0
  1  6  1  0  0  0
  1  2  1  0  0  0
  1 31  1  0  0  0
  2  8  1  0  0  0
  2  3  2  0  0  0
  3  9  1  0  0  0
  3  4  1  0  0  0
  4 18  1  0  0  0
  4  7  1  0  0  0
  4 32  1  0  0  0
  5  6  2  0  0  0
  5 25  1  0  0  0
  6  7  1  0  0  0
  7 26  1  0  0  0
  8 33  1  0  0  0
  8 34  1  0  0  0
  8 35  1  0  0  0
  9 10  1  0  0  0
  9 11  2  0  0  0
 10 12  1  0  0  0
 10 36  1  0  0  0
 12 17  1  0  0  0
 12 13  2  0  0  0
 13 14  1  0  0  0
 13 37  1  0  0  0
 14 15  2  0  0  0
 14 38  1  0  0  0
 15 16  1  0  0  0
 15 19  1  0  0  0
 16 17  2  0  0  0
 16 39  1  0  0  0
 17 40  1  0  0  0
 18 21  1  0  0  0
 18 24  2  0  0  0
 19 20  1  0  0  0
 20 41  1  0  0  0
 20 42  1  0  0  0
 20 43  1  0  0  0
 21 22  1  0  0  0
 22 23  2  0  0  0
 22 44  1  0  0  0
 23 24  1  0  0  0
 23 45  1  0  0  0
 24 46  1  0  0  0
 25 26  2  0  0  0
 25 30  1  0  0  0
 26 27  1  0  0  0
 27 28  2  0  0  0
 27 47  1  0  0  0
 28 29  1  0  0  0
 28 48  1  0  0  0
 29 30  2  0  0  0
 29 49  1  0  0  0
 30 50  1  0  0  0
M  END
> <s_m_entry_id>
480

> <s_m_entry_name>
dock_pv.479

> <s_m_Source_Path>
/home/csk/Desktop/cluster/DUD-E-result/kif11

> <s_m_Source_File>
dock_pv.maegz

> <i_m_Source_File_Index>
479

> <chembl_id>
CHEMBL1277293

> <chembl_pref_name>
None

> <i_lp_mmshare_version>
53161

> <i_f3d_flags>
0

> <r_lp_tautomer_probability>
0.999999999997873

> <s_lp_Force_Field>
OPLS_2005

> <r_lp_Energy>
32.961129

> <b_lp_Chiralities_Consistent>
1

> <s_lp_Variant>
CHEMBL4581_lig444-1

> <s_i_glide_gridfile>
glide-grid_3cjo

> <i_i_glide_lignum>
662

> <i_i_glide_rotatable_bonds>
5

> <r_i_docking_score>
-7.12153703806671

> <r_i_glide_ligand_efficiency>
-0.237384567935557

> <r_i_glide_ligand_efficiency_sa>
-0.737609045064923

> <r_i_glide_ligand_efficiency_ln>
-1.61809081040969

> <r_i_glide_gscore>
-7.12153703806671

> <r_i_glide_lipo>
-3.29367223463193

> <r_i_glide_hbond>
-0.32

> <r_i_glide_metal>
0

> <r_i_glide_rewards>
-1.09149718687977

> <r_i_glide_evdw>
-44.238697052002

> <r_i_glide_ecoul>
-4.62324142456055

> <r_i_glide_erotb>
0.48905344972918

> <r_i_glide_esite>
0

> <r_i_glide_emodel>
-61.3369649816133

> <r_i_glide_energy>
-48.8619384765625

> <r_i_glide_einternal>
15.5099058151245

> <i_i_glide_confnum>
16

> <i_i_glide_posenum>
245

> <r_i_glide_eff_state_penalty>
0

> <s_user_duplicate_titles>
CHEMBL4581_lig444

> <s_m_subgroup_title>
dock_pv

> <s_m_subgroupid>
dock_pv

> <b_m_subgroup_collapsed>
1

$$$$
CHEMBL4581_lig509
                    3D
 Schrodinger Suite 2021-1.
 56 60  0  0  1  0            999 V2000
   14.8624   16.9254  106.0222 C   0  0  0  0  0  0
   15.5430   16.2650  104.9855 C   0  0  0  0  0  0
   16.4653   15.2536  105.2604 C   0  0  0  0  0  0
   15.1173   16.5290  107.3433 C   0  0  0  0  0  0
   16.0733   15.5480  107.6324 C   0  0  0  0  0  0
   16.7206   14.8858  106.5796 C   0  0  0  0  0  0
   17.7400   13.9668  106.8733 N   0  0  0  0  0  0
   18.4195   14.1967  108.1597 C   0  0  2  0  0  0
   17.4109   14.3617  109.2516 N   0  0  0  0  0  0
   16.3023   15.1505  109.0758 C   0  0  0  0  0  0
   15.5238   15.4452  109.9894 O   0  0  0  0  0  0
   17.7437   13.8921  110.5377 C   0  0  0  0  0  0
   19.4132   15.3878  108.0174 C   0  0  0  0  0  0
   13.9903   17.9847  105.7831 N   0  0  0  0  0  0
   13.9940   18.7461  104.5196 C   0  0  0  0  0  0
   13.3921   20.1564  104.7043 C   0  0  0  0  0  0
   12.0709   20.0571  105.2203 O   0  0  0  0  0  0
   12.0396   19.3946  106.4777 C   0  0  0  0  0  0
   12.6270   17.9704  106.3434 C   0  0  0  0  0  0
   18.6933   14.5644  111.3172 C   0  0  0  0  0  0
   18.9797   14.1202  112.6059 C   0  0  0  0  0  0
   18.3069   13.0232  113.1368 C   0  0  0  0  0  0
   17.3562   12.3591  112.3664 C   0  0  0  0  0  0
   17.0855   12.7758  111.0629 C   0  0  0  0  0  0
   20.5457   15.2431  107.0056 C   0  0  0  0  0  0
   21.3287   14.0842  106.9699 C   0  0  0  0  0  0
   22.4505   14.0303  106.1552 C   0  0  0  0  0  0
   22.7740   15.1220  105.3555 C   0  0  0  0  0  0
   21.9849   16.2707  105.3580 C   0  0  0  0  0  0
   20.8679   16.3302  106.1860 C   0  0  0  0  0  0
   19.9208   14.7619  113.3589 O   0  0  0  0  0  0
   15.3731   16.5424  103.9555 H   0  0  0  0  0  0
   16.9946   14.7686  104.4509 H   0  0  0  0  0  0
   14.6096   17.0345  108.1539 H   0  0  0  0  0  0
   18.2975   13.5617  106.1262 H   0  0  0  0  0  0
   18.9754   13.2830  108.3774 H   0  0  0  0  0  0
   19.9143   15.5591  108.9646 H   0  0  0  0  0  0
   18.8591   16.3045  107.8137 H   0  0  0  0  0  0
   15.0155   18.8673  104.1582 H   0  0  0  0  0  0
   13.4511   18.1926  103.7519 H   0  0  0  0  0  0
   13.3506   20.6838  103.7536 H   0  0  0  0  0  0
   14.0183   20.7649  105.3603 H   0  0  0  0  0  0
   11.0058   19.3390  106.8153 H   0  0  0  0  0  0
   12.5828   19.9728  107.2300 H   0  0  0  0  0  0
   11.9829   17.3477  105.7194 H   0  0  0  0  0  0
   12.6241   17.5175  107.3345 H   0  0  0  0  0  0
   19.1872   15.4465  110.9429 H   0  0  0  0  0  0
   18.5183   12.6902  114.1426 H   0  0  0  0  0  0
   16.8173   11.5230  112.7816 H   0  0  0  0  0  0
   16.3432   12.2515  110.4787 H   0  0  0  0  0  0
   21.1170   13.2477  107.6195 H   0  0  0  0  0  0
   23.0694   13.1485  106.1396 H   0  0  0  0  0  0
   23.6379   15.0715  104.7104 H   0  0  0  0  0  0
   22.2412   17.1082  104.7264 H   0  0  0  0  0  0
   20.2735   17.2325  106.2070 H   0  0  0  0  0  0
   20.3414   15.4824  112.8874 H   0  0  0  0  0  0
  1  4  1  0  0  0
  1 14  1  0  0  0
  1  2  2  0  0  0
  2  3  1  0  0  0
  2 32  1  0  0  0
  3  6  2  0  0  0
  3 33  1  0  0  0
  4  5  2  0  0  0
  4 34  1  0  0  0
  5 10  1  0  0  0
  5  6  1  0  0  0
  6  7  1  0  0  0
  7  8  1  0  0  0
  7 35  1  0  0  0
  8  9  1  0  0  0
  8 13  1  0  0  0
  8 36  1  0  0  0
  9 10  1  0  0  0
  9 12  1  0  0  0
 10 11  2  0  0  0
 12 20  2  0  0  0
 12 24  1  0  0  0
 13 25  1  0  0  0
 13 37  1  0  0  0
 13 38  1  0  0  0
 14 19  1  0  0  0
 14 15  1  0  0  0
 15 16  1  0  0  0
 15 39  1  0  0  0
 15 40  1  0  0  0
 16 17  1  0  0  0
 16 41  1  0  0  0
 16 42  1  0  0  0
 17 18  1  0  0  0
 18 19  1  0  0  0
 18 43  1  0  0  0
 18 44  1  0  0  0
 19 45  1  0  0  0
 19 46  1  0  0  0
 20 21  1  0  0  0
 20 47  1  0  0  0
 21 22  2  0  0  0
 21 31  1  0  0  0
 22 23  1  0  0  0
 22 48  1  0  0  0
 23 24  2  0  0  0
 23 49  1  0  0  0
 24 50  1  0  0  0
 25 26  2  0  0  0
 25 30  1  0  0  0
 26 27  1  0  0  0
 26 51  1  0  0  0
 27 28  2  0  0  0
 27 52  1  0  0  0
 28 29  1  0  0  0
 28 53  1  0  0  0
 29 30  2  0  0  0
 29 54  1  0  0  0
 30 55  1  0  0  0
 31 56  1  0  0  0
M  END
> <s_m_entry_id>
481

> <s_m_entry_name>
dock_pv.480

> <s_m_Source_Path>
/home/csk/Desktop/cluster/DUD-E-result/kif11

> <s_m_Source_File>
dock_pv.maegz

> <i_m_Source_File_Index>
480

> <chembl_id>
CHEMBL1818770

> <chembl_pref_name>
None

> <i_lp_mmshare_version>
53161

> <i_f3d_flags>
0

> <r_lp_tautomer_probability>
0.999999999997365

> <s_lp_Force_Field>
OPLS_2005

> <r_lp_Energy>
56.963693

> <b_lp_Chiralities_Consistent>
1

> <s_lp_Variant>
CHEMBL4581_lig509-1

> <s_i_glide_gridfile>
glide-grid_3cjo

> <i_i_glide_lignum>
742

> <i_i_glide_rotatable_bonds>
5

> <r_i_docking_score>
-7.12026481404376

> <r_i_glide_ligand_efficiency>
-0.229685961743347

> <r_i_glide_ligand_efficiency_sa>
-0.721531035520551

> <r_i_glide_ligand_efficiency_ln>
-1.6058379254774

> <r_i_glide_gscore>
-7.12026481404376

> <r_i_glide_lipo>
-4.01406272078319

> <r_i_glide_hbond>
-0.0776459128447997

> <r_i_glide_metal>
0

> <r_i_glide_rewards>
-1.12866121738812

> <r_i_glide_evdw>
-42.4321250915527

> <r_i_glide_ecoul>
-1.57238066196442

> <r_i_glide_erotb>
0.457568390844646

> <r_i_glide_esite>
0

> <r_i_glide_emodel>
-62.2216738504157

> <r_i_glide_energy>
-44.0045057535172

> <r_i_glide_einternal>
2.18747687339783

> <i_i_glide_confnum>
8

> <i_i_glide_posenum>
192

> <r_i_glide_eff_state_penalty>
0

> <s_user_duplicate_titles>
CHEMBL4581_lig509

> <s_m_subgroup_title>
dock_pv

> <s_m_subgroupid>
dock_pv

> <b_m_subgroup_collapsed>
1

$$$$
CHEMBL4581_lig610
                    3D
 Schrodinger Suite 2021-1.
 50 52  0  0  1  0            999 V2000
   15.6976   14.4079  104.0158 C   0  0  0  0  0  0
   15.7535   13.8346  105.4471 C   0  0  2  0  0  0
   17.0034   14.3368  106.2020 C   0  0  0  0  0  0
   14.8210   15.1938  103.6651 O   0  0  0  0  0  0
   16.7180   13.9619  103.2246 O   0  0  0  0  0  0
   16.9598   13.7930  107.9343 S   0  0  0  0  0  0
   18.1565   14.8621  108.8529 C   0  0  0  0  0  0
   17.7225   16.3745  108.7803 C   0  0  0  0  0  0
   18.2052   14.4410  110.3613 C   0  0  0  0  0  0
   17.3929   13.4269  110.9116 C   0  0  0  0  0  0
   17.5183   13.0445  112.2430 C   0  0  0  0  0  0
   18.4461   13.6800  113.0576 C   0  0  0  0  0  0
   19.2460   14.6964  112.5484 C   0  0  0  0  0  0
   19.1185   15.0785  111.2153 C   0  0  0  0  0  0
   19.5350   14.6233  108.1546 C   0  0  0  0  0  0
   20.3600   13.5620  108.5642 C   0  0  0  0  0  0
   21.5180   13.2319  107.8625 C   0  0  0  0  0  0
   21.8763   13.9620  106.7364 C   0  0  0  0  0  0
   21.1137   15.0572  106.3450 C   0  0  0  0  0  0
   19.9586   15.3879  107.0496 C   0  0  0  0  0  0
   16.3232   16.7221  109.2876 C   0  0  0  0  0  0
   15.2219   16.6362  108.4254 C   0  0  0  0  0  0
   13.9487   16.9968  108.8615 C   0  0  0  0  0  0
   13.7682   17.4674  110.1596 C   0  0  0  0  0  0
   14.8605   17.5648  111.0222 C   0  0  0  0  0  0
   16.1334   17.1891  110.5912 C   0  0  0  0  0  0
   12.6023   16.8636  107.7902 Cl  0  0  0  0  0  0
   15.6866   12.3619  105.3572 N   0  0  0  0  0  0
   14.8790   14.2069  105.9848 H   0  0  0  0  0  0
   17.0619   15.4224  106.1514 H   0  0  0  0  0  0
   17.9184   13.9550  105.7591 H   0  0  0  0  0  0
   17.3284   13.3840  103.7122 H   0  0  0  0  0  0
   18.4481   17.0046  109.2975 H   0  0  0  0  0  0
   17.7412   16.7568  107.7638 H   0  0  0  0  0  0
   16.6618   12.8891  110.3292 H   0  0  0  0  0  0
   16.8998   12.2509  112.6379 H   0  0  0  0  0  0
   18.5514   13.3741  114.0882 H   0  0  0  0  0  0
   19.9801   15.1643  113.1853 H   0  0  0  0  0  0
   19.7654   15.8555  110.8361 H   0  0  0  0  0  0
   20.0738   12.9328  109.3943 H   0  0  0  0  0  0
   22.1106   12.3818  108.1587 H   0  0  0  0  0  0
   22.7568   13.6891  106.1740 H   0  0  0  0  0  0
   21.4033   15.6339  105.4779 H   0  0  0  0  0  0
   19.3886   16.2195  106.6713 H   0  0  0  0  0  0
   15.3457   16.2950  107.4103 H   0  0  0  0  0  0
   12.7842   17.7578  110.4986 H   0  0  0  0  0  0
   14.7181   17.9420  112.0247 H   0  0  0  0  0  0
   16.9726   17.2818  111.2662 H   0  0  0  0  0  0
   15.9178   11.9214  106.2457 H   0  0  0  0  0  0
   14.7524   12.0506  105.1321 H   0  0  0  0  0  0
  1  2  1  0  0  0
  1  4  2  0  0  0
  1  5  1  0  0  0
  2  3  1  0  0  0
  2 28  1  0  0  0
  2 29  1  0  0  0
  3  6  1  0  0  0
  3 30  1  0  0  0
  3 31  1  0  0  0
  5 32  1  0  0  0
  6  7  1  0  0  0
  7  8  1  0  0  0
  7  9  1  0  0  0
  7 15  1  0  0  0
  8 21  1  0  0  0
  8 33  1  0  0  0
  8 34  1  0  0  0
  9 10  1  0  0  0
  9 14  2  0  0  0
 10 11  2  0  0  0
 10 35  1  0  0  0
 11 12  1  0  0  0
 11 36  1  0  0  0
 12 13  2  0  0  0
 12 37  1  0  0  0
 13 14  1  0  0  0
 13 38  1  0  0  0
 14 39  1  0  0  0
 15 16  1  0  0  0
 15 20  2  0  0  0
 16 17  2  0  0  0
 16 40  1  0  0  0
 17 18  1  0  0  0
 17 41  1  0  0  0
 18 19  2  0  0  0
 18 42  1  0  0  0
 19 20  1  0  0  0
 19 43  1  0  0  0
 20 44  1  0  0  0
 21 22  1  0  0  0
 21 26  2  0  0  0
 22 23  2  0  0  0
 22 45  1  0  0  0
 23 24  1  0  0  0
 23 27  1  0  0  0
 24 25  2  0  0  0
 24 46  1  0  0  0
 25 26  1  0  0  0
 25 47  1  0  0  0
 26 48  1  0  0  0
 28 49  1  0  0  0
 28 50  1  0  0  0
M  END
> <s_m_entry_id>
482

> <s_m_entry_name>
dock_pv.481

> <s_m_Source_Path>
/home/csk/Desktop/cluster/DUD-E-result/kif11

> <s_m_Source_File>
dock_pv.maegz

> <i_m_Source_File_Index>
481

> <chembl_id>
CHEMBL2043391

> <chembl_pref_name>
None

> <i_lp_mmshare_version>
53161

> <i_f3d_flags>
0

> <r_lp_tautomer_probability>
1

> <s_lp_Force_Field>
OPLS_2005

> <r_lp_Energy>
19.789706

> <b_lp_Chiralities_Consistent>
1

> <s_lp_Variant>
CHEMBL4581_lig610-1

> <s_i_glide_gridfile>
glide-grid_3cjo

> <i_i_glide_lignum>
941

> <i_i_glide_rotatable_bonds>
9

> <r_i_docking_score>
-7.10216008138659

> <r_i_glide_ligand_efficiency>
-0.253648574335235

> <r_i_glide_ligand_efficiency_sa>
-0.770226462702842

> <r_i_glide_ligand_efficiency_ln>
-1.63938707526514

> <r_i_glide_gscore>
-7.10216008138659

> <r_i_glide_lipo>
-4.01521641438323

> <r_i_glide_hbond>
-0.298828314868398

> <r_i_glide_metal>
0

> <r_i_glide_rewards>
-0.658708469696969

> <r_i_glide_evdw>
-38.089714050293

> <r_i_glide_ecoul>
-7.59559345245361

> <r_i_glide_erotb>
0.929380525067386

> <r_i_glide_esite>
-0.0149626871226919

> <r_i_glide_emodel>
-64.3380923298229

> <r_i_glide_energy>
-45.6853075027466

> <r_i_glide_einternal>
4.73434352874756

> <i_i_glide_confnum>
163

> <i_i_glide_posenum>
135

> <r_i_glide_eff_state_penalty>
0

> <s_user_duplicate_titles>
CHEMBL4581_lig610

> <s_m_subgroup_title>
dock_pv

> <s_m_subgroupid>
dock_pv

> <b_m_subgroup_collapsed>
1

$$$$
CHEMBL4581_lig803
                    3D
 Schrodinger Suite 2021-1.
 53 55  0  0  1  0            999 V2000
   17.0780   13.2391  108.2361 S   0  0  0  0  0  0
   17.1785   13.5446  106.4395 C   0  0  0  0  0  0
   16.0892   14.5126  105.9131 C   0  0  1  0  0  0
   16.6050   15.6101  104.9535 C   0  0  0  0  0  0
   17.5178   15.1621  104.0370 O   0  0  0  0  0  0
   16.1712   16.7589  105.0058 O   0  0  0  0  0  0
   14.9645   13.8239  105.2537 N   0  0  0  0  0  0
   18.0791   14.5139  109.1532 C   0  0  0  0  0  0
   17.3053   15.8981  109.1676 C   0  0  0  0  0  0
   18.2522   14.0452  110.6427 C   0  0  0  0  0  0
   19.4267   14.6031  108.3599 C   0  0  0  0  0  0
   19.2487   14.6232  111.4406 C   0  0  0  0  0  0
   19.3636   14.3204  112.7944 C   0  0  0  0  0  0
   18.5092   13.3822  113.3627 C   0  0  0  0  0  0
   17.5284   12.7641  112.5937 C   0  0  0  0  0  0
   17.3969   13.1030  111.2504 C   0  0  0  0  0  0
   19.6187   15.5529  107.3333 C   0  0  0  0  0  0
   20.6864   15.4541  106.4474 C   0  0  0  0  0  0
   21.6053   14.4243  106.5931 C   0  0  0  0  0  0
   21.5176   13.5613  107.6837 C   0  0  0  0  0  0
   20.4324   13.6434  108.5590 C   0  0  0  0  0  0
   15.9180   15.8504  109.8720 C   0  0  0  0  0  0
   15.1431   17.1722  109.6954 C   0  0  0  0  0  0
   15.9548   18.3780  110.2166 C   0  0  0  0  0  0
   17.3854   18.4129  109.6406 C   0  0  0  0  0  0
   18.1002   17.0698  109.8233 C   0  0  0  0  0  0
   18.1863   13.8426  106.1700 H   0  0  0  0  0  0
   17.0697   12.5682  105.9638 H   0  0  0  0  0  0
   15.6868   15.0612  106.7674 H   0  0  0  0  0  0
   17.7888   14.2395  104.1613 H   0  0  0  0  0  0
   14.3996   14.4508  104.6971 H   0  0  0  0  0  0
   15.2557   13.0510  104.6748 H   0  0  0  0  0  0
   17.0932   16.1799  108.1373 H   0  0  0  0  0  0
   19.9179   15.3529  111.0184 H   0  0  0  0  0  0
   20.1242   14.7957  113.3947 H   0  0  0  0  0  0
   18.6063   13.1281  114.4083 H   0  0  0  0  0  0
   16.8646   12.0347  113.0357 H   0  0  0  0  0  0
   16.5974   12.6233  110.7090 H   0  0  0  0  0  0
   18.9038   16.3337  107.1290 H   0  0  0  0  0  0
   20.7804   16.1556  105.6303 H   0  0  0  0  0  0
   22.4214   14.3290  105.8917 H   0  0  0  0  0  0
   22.2565   12.7836  107.8150 H   0  0  0  0  0  0
   20.3305   12.9031  109.3399 H   0  0  0  0  0  0
   15.3162   15.0398  109.4596 H   0  0  0  0  0  0
   16.0252   15.6009  110.9294 H   0  0  0  0  0  0
   14.9059   17.3185  108.6402 H   0  0  0  0  0  0
   14.1839   17.1186  110.2135 H   0  0  0  0  0  0
   15.4369   19.3068  109.9806 H   0  0  0  0  0  0
   16.0060   18.3321  111.3061 H   0  0  0  0  0  0
   17.3642   18.6894  108.5851 H   0  0  0  0  0  0
   17.9695   19.1684  110.1590 H   0  0  0  0  0  0
   18.2541   16.8983  110.8855 H   0  0  0  0  0  0
   19.1144   17.1488  109.4160 H   0  0  0  0  0  0
  1  8  1  0  0  0
  1  2  1  0  0  0
  2  3  1  0  0  0
  2 27  1  0  0  0
  2 28  1  0  0  0
  3  7  1  0  0  0
  3  4  1  0  0  0
  3 29  1  0  0  0
  4  5  1  0  0  0
  4  6  2  0  0  0
  5 30  1  0  0  0
  7 31  1  0  0  0
  7 32  1  0  0  0
  8  9  1  0  0  0
  8 10  1  0  0  0
  8 11  1  0  0  0
  9 22  1  0  0  0
  9 26  1  0  0  0
  9 33  1  0  0  0
 10 16  1  0  0  0
 10 12  2  0  0  0
 11 17  2  0  0  0
 11 21  1  0  0  0
 12 13  1  0  0  0
 12 34  1  0  0  0
 13 14  2  0  0  0
 13 35  1  0  0  0
 14 15  1  0  0  0
 14 36  1  0  0  0
 15 16  2  0  0  0
 15 37  1  0  0  0
 16 38  1  0  0  0
 17 18  1  0  0  0
 17 39  1  0  0  0
 18 19  2  0  0  0
 18 40  1  0  0  0
 19 20  1  0  0  0
 19 41  1  0  0  0
 20 21  2  0  0  0
 20 42  1  0  0  0
 21 43  1  0  0  0
 22 23  1  0  0  0
 22 44  1  0  0  0
 22 45  1  0  0  0
 23 24  1  0  0  0
 23 46  1  0  0  0
 23 47  1  0  0  0
 24 25  1  0  0  0
 24 48  1  0  0  0
 24 49  1  0  0  0
 25 26  1  0  0  0
 25 50  1  0  0  0
 25 51  1  0  0  0
 26 52  1  0  0  0
 26 53  1  0  0  0
M  END
> <s_m_entry_id>
483

> <s_m_entry_name>
dock_pv.482

> <s_m_Source_Path>
/home/csk/Desktop/cluster/DUD-E-result/kif11

> <s_m_Source_File>
dock_pv.maegz

> <i_m_Source_File_Index>
482

> <chembl_id>
CHEMBL270138

> <chembl_pref_name>
None

> <i_lp_mmshare_version>
53161

> <i_f3d_flags>
0

> <r_lp_tautomer_probability>
1

> <s_lp_Force_Field>
OPLS_2005

> <r_lp_Energy>
33.977548

> <b_lp_Chiralities_Consistent>
1

> <s_lp_Variant>
CHEMBL4581_lig803-1

> <s_i_glide_gridfile>
glide-grid_3cjo

> <i_i_glide_lignum>
1188

> <i_i_glide_rotatable_bonds>
8

> <r_i_docking_score>
-7.0994523057013

> <r_i_glide_ligand_efficiency>
-0.273055857911588

> <r_i_glide_ligand_efficiency_sa>
-0.808926904640162

> <r_i_glide_ligand_efficiency_ln>
-1.66728307879089

> <r_i_glide_gscore>
-7.0994523057013

> <r_i_glide_lipo>
-4.47593604569035

> <r_i_glide_hbond>
0

> <r_i_glide_metal>
0

> <r_i_glide_rewards>
-0.955878857652584

> <r_i_glide_evdw>
-39.4559020996094

> <r_i_glide_ecoul>
-4.55550479888916

> <r_i_glide_erotb>
0.988483422455471

> <r_i_glide_esite>
0

> <r_i_glide_emodel>
-62.4300105356993

> <r_i_glide_energy>
-44.0114068984985

> <r_i_glide_einternal>
3.71207785606384

> <i_i_glide_confnum>
96

> <i_i_glide_posenum>
39

> <r_i_glide_eff_state_penalty>
0

> <s_user_duplicate_titles>
CHEMBL4581_lig803

> <s_m_subgroup_title>
dock_pv

> <s_m_subgroupid>
dock_pv

> <b_m_subgroup_collapsed>
1

$$$$
CHEMBL4581_lig395
                    3D
 Schrodinger Suite 2021-1.
 42 45  0  0  1  0            999 V2000
   17.9180   13.1619  113.0915 C   0  0  0  0  0  0
   19.0018   14.0129  113.2986 C   0  0  0  0  0  0
   19.4961   14.8392  112.2936 C   0  0  0  0  0  0
   17.3348   13.0435  111.8273 C   0  0  0  0  0  0
   17.7986   13.8581  110.7841 C   0  0  0  0  0  0
   18.8747   14.7567  111.0464 C   0  0  0  0  0  0
   19.1182   15.4328  109.8744 N   0  0  0  0  0  0
   17.4326   14.0366  109.4086 C   0  0  0  0  0  0
   18.3028   14.9691  108.8761 C   0  0  0  0  0  0
   18.3539   15.4089  107.4072 C   0  0  2  0  0  0
   17.4579   14.5441  106.5982 N   0  0  1  0  0  0
   16.1794   14.2217  107.2548 C   0  0  0  0  0  0
   16.3867   13.3742  108.5365 C   0  0  0  0  0  0
   19.7913   15.4211  106.8590 C   0  0  0  0  0  0
   20.6598   14.3619  107.1472 C   0  0  0  0  0  0
   21.9182   14.2808  106.5585 C   0  0  0  0  0  0
   22.3480   15.2916  105.7035 C   0  0  0  0  0  0
   21.5064   16.3671  105.4265 C   0  0  0  0  0  0
   20.2339   16.4328  105.9984 C   0  0  0  0  0  0
   21.9175   17.3363  104.5576 O   0  0  0  0  0  0
   17.1654   15.1362  105.2927 C   0  0  0  0  0  0
   17.3616   12.3774  114.2615 C   0  0  0  0  0  0
   19.4752   14.0456  114.2673 H   0  0  0  0  0  0
   20.3179   15.5134  112.4804 H   0  0  0  0  0  0
   16.5133   12.3616  111.6600 H   0  0  0  0  0  0
   19.8267   16.1306  109.7055 H   0  0  0  0  0  0
   17.9804   16.4340  107.3625 H   0  0  0  0  0  0
   15.5549   13.6322  106.5805 H   0  0  0  0  0  0
   15.6096   15.1304  107.4579 H   0  0  0  0  0  0
   15.4346   13.2533  109.0529 H   0  0  0  0  0  0
   16.6852   12.3621  108.2658 H   0  0  0  0  0  0
   20.3378   13.5646  107.8007 H   0  0  0  0  0  0
   22.5601   13.4374  106.7674 H   0  0  0  0  0  0
   23.3260   15.2247  105.2504 H   0  0  0  0  0  0
   19.5846   17.2577  105.7482 H   0  0  0  0  0  0
   22.7688   17.1387  104.1615 H   0  0  0  0  0  0
   16.5416   14.4698  104.6950 H   0  0  0  0  0  0
   16.6509   16.0937  105.3879 H   0  0  0  0  0  0
   18.0813   15.2942  104.7238 H   0  0  0  0  0  0
   16.7185   11.5621  113.9321 H   0  0  0  0  0  0
   18.1772   11.9620  114.8529 H   0  0  0  0  0  0
   16.7870   13.0321  114.9174 H   0  0  0  0  0  0
  1  2  2  0  0  0
  1  4  1  0  0  0
  1 22  1  0  0  0
  2  3  1  0  0  0
  2 23  1  0  0  0
  3  6  2  0  0  0
  3 24  1  0  0  0
  4  5  2  0  0  0
  4 25  1  0  0  0
  5  8  1  0  0  0
  5  6  1  0  0  0
  6  7  1  0  0  0
  7  9  1  0  0  0
  7 26  1  0  0  0
  8 13  1  0  0  0
  8  9  2  0  0  0
  9 10  1  0  0  0
 10 11  1  0  0  0
 10 14  1  0  0  0
 10 27  1  0  0  0
 11 12  1  0  0  0
 11 21  1  0  0  0
 12 13  1  0  0  0
 12 28  1  0  0  0
 12 29  1  0  0  0
 13 30  1  0  0  0
 13 31  1  0  0  0
 14 15  2  0  0  0
 14 19  1  0  0  0
 15 16  1  0  0  0
 15 32  1  0  0  0
 16 17  2  0  0  0
 16 33  1  0  0  0
 17 18  1  0  0  0
 17 34  1  0  0  0
 18 19  2  0  0  0
 18 20  1  0  0  0
 19 35  1  0  0  0
 20 36  1  0  0  0
 21 37  1  0  0  0
 21 38  1  0  0  0
 21 39  1  0  0  0
 22 40  1  0  0  0
 22 41  1  0  0  0
 22 42  1  0  0  0
M  END
> <s_m_entry_id>
484

> <s_m_entry_name>
dock_pv.483

> <s_m_Source_Path>
/home/csk/Desktop/cluster/DUD-E-result/kif11

> <s_m_Source_File>
dock_pv.maegz

> <i_m_Source_File_Index>
483

> <chembl_id>
CHEMBL1163742

> <chembl_pref_name>
None

> <i_lp_mmshare_version>
53161

> <i_f3d_flags>
0

> <r_lp_tautomer_probability>
0.999999999997365

> <s_lp_Force_Field>
OPLS_2005

> <r_lp_Energy>
21.30754

> <b_lp_Chiralities_Consistent>
1

> <s_lp_Variant>
CHEMBL4581_lig395-1

> <s_i_glide_gridfile>
glide-grid_3cjo

> <i_i_glide_lignum>
566

> <i_i_glide_rotatable_bonds>
2

> <r_i_docking_score>
-7.0985241861887

> <r_i_glide_ligand_efficiency>
-0.322660190281305

> <r_i_glide_ligand_efficiency_sa>
-0.904106542673423

> <r_i_glide_ligand_efficiency_ln>
-1.73513823606537

> <r_i_glide_gscore>
-7.0985241861887

> <r_i_glide_lipo>
-4.08587733162949

> <r_i_glide_hbond>
0

> <r_i_glide_metal>
0

> <r_i_glide_rewards>
-1.52127879381032

> <r_i_glide_evdw>
-37.290599822998

> <r_i_glide_ecoul>
1.06399691104889

> <r_i_glide_erotb>
0.213562393743674

> <r_i_glide_esite>
0

> <r_i_glide_emodel>
-50.2811909524046

> <r_i_glide_energy>
-36.2266029119492

> <r_i_glide_einternal>
0.927497625350952

> <i_i_glide_confnum>
1

> <i_i_glide_posenum>
329

> <r_i_glide_eff_state_penalty>
0

> <s_user_duplicate_titles>
CHEMBL4581_lig395

> <s_m_subgroup_title>
dock_pv

> <s_m_subgroupid>
dock_pv

> <b_m_subgroup_collapsed>
1

$$$$
CHEMBL4581_lig604
                    3D
 Schrodinger Suite 2021-1.
 51 53  0  0  1  0            999 V2000
   18.9301   14.9313  107.9638 C   0  0  0  0  0  0
   17.4995   14.8372  108.5875 C   0  0  1  0  0  0
   16.9873   16.1525  109.2531 C   0  0  0  0  0  0
   15.6302   16.2822  109.5913 C   0  0  0  0  0  0
   15.1545   17.4207  110.2359 C   0  0  0  0  0  0
   16.0326   18.4504  110.5551 C   0  0  0  0  0  0
   17.3804   18.3513  110.2319 C   0  0  0  0  0  0
   17.8526   17.2108  109.5890 C   0  0  0  0  0  0
   16.3230   14.2887  107.2553 S   0  0  0  0  0  0
   16.7475   15.0672  105.6589 C   0  0  0  0  0  0
   15.7524   14.6982  104.5328 C   0  0  2  0  0  0
   17.3225   13.6483  109.6083 C   0  0  0  0  0  0
   17.9677   13.6717  110.9979 C   0  0  0  0  0  0
   18.9754   14.5699  111.3642 C   0  0  0  0  0  0
   19.5068   14.5335  112.6496 C   0  0  0  0  0  0
   19.0426   13.5936  113.5656 C   0  0  0  0  0  0
   18.0420   12.6954  113.2141 C   0  0  0  0  0  0
   17.5156   12.7287  111.9281 C   0  0  0  0  0  0
   15.5297   13.2372  104.4293 N   0  0  0  0  0  0
   16.2882   15.2226  103.1763 C   0  0  0  0  0  0
   17.1181   14.3339  102.5538 O   0  0  0  0  0  0
   16.0224   16.3500  102.7630 O   0  0  0  0  0  0
   19.2630   15.9836  107.0952 C   0  0  0  0  0  0
   21.3810   14.9741  106.5573 C   0  0  0  0  0  0
   21.1165   13.9619  107.4776 C   0  0  0  0  0  0
   19.9161   13.9616  108.1897 C   0  0  0  0  0  0
   20.4693   16.0104  106.3961 C   0  0  0  0  0  0
   20.7563   17.0455  105.5481 O   0  0  0  0  0  0
   14.9310   15.4908  109.3669 H   0  0  0  0  0  0
   14.1088   17.5030  110.4910 H   0  0  0  0  0  0
   15.6673   19.3316  111.0633 H   0  0  0  0  0  0
   18.0591   19.1527  110.4894 H   0  0  0  0  0  0
   18.9097   17.1631  109.3819 H   0  0  0  0  0  0
   16.7689   16.1500  105.7869 H   0  0  0  0  0  0
   17.7484   14.7318  105.3813 H   0  0  0  0  0  0
   14.8086   15.2006  104.7502 H   0  0  0  0  0  0
   16.2551   13.5318  109.8104 H   0  0  0  0  0  0
   17.6040   12.7045  109.1378 H   0  0  0  0  0  0
   19.3655   15.2901  110.6650 H   0  0  0  0  0  0
   20.2953   15.2184  112.9282 H   0  0  0  0  0  0
   19.4751   13.5528  114.5527 H   0  0  0  0  0  0
   17.6859   11.9701  113.9306 H   0  0  0  0  0  0
   16.7450   12.0196  111.6573 H   0  0  0  0  0  0
   15.7001   12.8018  105.3290 H   0  0  0  0  0  0
   14.5717   13.0278  104.1840 H   0  0  0  0  0  0
   17.2476   13.5735  103.1406 H   0  0  0  0  0  0
   18.5432   16.7624  106.9276 H   0  0  0  0  0  0
   22.3083   14.9760  106.0034 H   0  0  0  0  0  0
   21.8367   13.1720  107.6312 H   0  0  0  0  0  0
   19.7473   13.1398  108.8682 H   0  0  0  0  0  0
   20.1555   17.7873  105.6537 H   0  0  0  0  0  0
  1 23  2  0  0  0
  1  2  1  0  0  0
  1 26  1  0  0  0
  2  9  1  0  0  0
  2  3  1  0  0  0
  2 12  1  0  0  0
  3  4  2  0  0  0
  3  8  1  0  0  0
  4  5  1  0  0  0
  4 29  1  0  0  0
  5  6  2  0  0  0
  5 30  1  0  0  0
  6  7  1  0  0  0
  6 31  1  0  0  0
  7  8  2  0  0  0
  7 32  1  0  0  0
  8 33  1  0  0  0
  9 10  1  0  0  0
 10 11  1  0  0  0
 10 34  1  0  0  0
 10 35  1  0  0  0
 11 19  1  0  0  0
 11 20  1  0  0  0
 11 36  1  0  0  0
 12 13  1  0  0  0
 12 37  1  0  0  0
 12 38  1  0  0  0
 13 14  2  0  0  0
 13 18  1  0  0  0
 14 15  1  0  0  0
 14 39  1  0  0  0
 15 16  2  0  0  0
 15 40  1  0  0  0
 16 17  1  0  0  0
 16 41  1  0  0  0
 17 18  2  0  0  0
 17 42  1  0  0  0
 18 43  1  0  0  0
 19 44  1  0  0  0
 19 45  1  0  0  0
 20 21  1  0  0  0
 20 22  2  0  0  0
 21 46  1  0  0  0
 23 27  1  0  0  0
 23 47  1  0  0  0
 24 27  2  0  0  0
 24 25  1  0  0  0
 24 48  1  0  0  0
 25 26  2  0  0  0
 25 49  1  0  0  0
 26 50  1  0  0  0
 27 28  1  0  0  0
 28 51  1  0  0  0
M  END
> <s_m_entry_id>
485

> <s_m_entry_name>
dock_pv.484

> <s_m_Source_Path>
/home/csk/Desktop/cluster/DUD-E-result/kif11

> <s_m_Source_File>
dock_pv.maegz

> <i_m_Source_File_Index>
484

> <chembl_id>
CHEMBL2043398

> <chembl_pref_name>
None

> <i_lp_mmshare_version>
53161

> <i_f3d_flags>
0

> <r_lp_tautomer_probability>
0.999999999997365

> <s_lp_Force_Field>
OPLS_2005

> <r_lp_Energy>
19.195767

> <b_lp_Chiralities_Consistent>
1

> <s_lp_Variant>
CHEMBL4581_lig604-1

> <s_i_glide_gridfile>
glide-grid_3cjo

> <i_i_glide_lignum>
932

> <i_i_glide_rotatable_bonds>
10

> <r_i_docking_score>
-7.09577498032317

> <r_i_glide_ligand_efficiency>
-0.253420535011542

> <r_i_glide_ligand_efficiency_sa>
-0.76953400100813

> <r_i_glide_ligand_efficiency_ln>
-1.63791320646499

> <r_i_glide_gscore>
-7.09577498032317

> <r_i_glide_lipo>
-4.46191586561359

> <r_i_glide_hbond>
0

> <r_i_glide_metal>
0

> <r_i_glide_rewards>
-0.81780562121212

> <r_i_glide_evdw>
-43.755931854248

> <r_i_glide_ecoul>
-4.14276313781738

> <r_i_glide_erotb>
1.00931082573152

> <r_i_glide_esite>
-0.0161532558439664

> <r_i_glide_emodel>
-59.0854275907064

> <r_i_glide_energy>
-47.8986949920654

> <r_i_glide_einternal>
15.2581701278687

> <i_i_glide_confnum>
115

> <i_i_glide_posenum>
205

> <r_i_glide_eff_state_penalty>
0

> <s_user_duplicate_titles>
CHEMBL4581_lig604

> <s_m_subgroup_title>
dock_pv

> <s_m_subgroupid>
dock_pv

> <b_m_subgroup_collapsed>
1

$$$$
CHEMBL4581_lig104
                    3D
 Schrodinger Suite 2021-1.
 48 50  0  0  1  0            999 V2000
   22.3177   13.9616  106.3661 C   0  0  0  0  0  0
   22.5642   15.0199  105.4925 C   0  0  0  0  0  0
   21.7264   16.1315  105.4968 C   0  0  0  0  0  0
   20.6318   16.1758  106.3575 C   0  0  0  0  0  0
   20.3603   15.1143  107.2379 C   0  0  0  0  0  0
   21.2399   14.0124  107.2527 C   0  0  0  0  0  0
   21.1187   13.0180  108.1599 F   0  0  0  0  0  0
   21.9620   17.1616  104.6549 F   0  0  0  0  0  0
   19.1760   15.2007  108.1172 C   0  0  0  0  0  0
   18.5707   16.2688  108.4418 N   0  0  0  0  0  0
   17.4358   16.0012  109.1587 N   0  0  0  0  0  0
   17.1636   14.5406  109.2175 C   0  0  2  0  0  0
   18.5250   13.9993  108.7346 C   0  0  0  0  0  0
   15.9561   14.2321  108.2792 C   0  0  0  0  0  0
   14.6439   14.3744  108.7572 C   0  0  0  0  0  0
   13.5493   14.0567  107.9584 C   0  0  0  0  0  0
   13.7534   13.5976  106.6616 C   0  0  0  0  0  0
   15.0427   13.4700  106.1556 C   0  0  0  0  0  0
   16.1353   13.7898  106.9561 C   0  0  0  0  0  0
   16.7992   16.9924  109.8490 C   0  0  0  0  0  0
   16.6871   18.1599  109.1805 N   0  0  0  0  0  0
   16.2587   16.8209  110.9436 O   0  0  0  0  0  0
   15.9299   19.3282  109.6285 C   0  0  0  0  0  0
   16.9357   13.9718  110.6658 C   0  0  0  0  0  0
   14.4186   19.1871  109.3938 C   0  0  0  0  0  0
   16.7251   12.4479  110.7158 C   0  0  0  0  0  0
   16.7184   11.9632  112.0430 O   0  0  0  0  0  0
   22.9771   13.1081  106.3735 H   0  0  0  0  0  0
   23.4038   14.9812  104.8146 H   0  0  0  0  0  0
   19.9954   17.0494  106.3275 H   0  0  0  0  0  0
   19.1586   13.6526  109.5527 H   0  0  0  0  0  0
   18.4294   13.1623  108.0492 H   0  0  0  0  0  0
   14.4575   14.7407  109.7531 H   0  0  0  0  0  0
   12.5459   14.1688  108.3419 H   0  0  0  0  0  0
   12.9064   13.3459  106.0402 H   0  0  0  0  0  0
   15.1988   13.1183  105.1461 H   0  0  0  0  0  0
   17.1139   13.6895  106.5124 H   0  0  0  0  0  0
   17.1424   18.2298  108.2838 H   0  0  0  0  0  0
   16.1263   19.5281  110.6844 H   0  0  0  0  0  0
   16.2997   20.1994  109.0838 H   0  0  0  0  0  0
   17.7803   14.2419  111.3020 H   0  0  0  0  0  0
   16.0734   14.4252  111.1420 H   0  0  0  0  0  0
   13.8925   20.0773  109.7391 H   0  0  0  0  0  0
   14.1901   19.0628  108.3350 H   0  0  0  0  0  0
   14.0072   18.3360  109.9375 H   0  0  0  0  0  0
   15.8215   12.1616  110.1814 H   0  0  0  0  0  0
   17.5202   11.9620  110.1652 H   0  0  0  0  0  0
   15.9759   11.3512  112.1455 H   0  0  0  0  0  0
  1  2  2  0  0  0
  1  6  1  0  0  0
  1 28  1  0  0  0
  2  3  1  0  0  0
  2 29  1  0  0  0
  3  4  2  0  0  0
  3  8  1  0  0  0
  4  5  1  0  0  0
  4 30  1  0  0  0
  5  9  1  0  0  0
  5  6  2  0  0  0
  6  7  1  0  0  0
  9 13  1  0  0  0
  9 10  2  0  0  0
 10 11  1  0  0  0
 11 20  1  0  0  0
 11 12  1  0  0  0
 12 14  1  0  0  0
 12 24  1  0  0  0
 12 13  1  0  0  0
 13 31  1  0  0  0
 13 32  1  0  0  0
 14 15  2  0  0  0
 14 19  1  0  0  0
 15 16  1  0  0  0
 15 33  1  0  0  0
 16 17  2  0  0  0
 16 34  1  0  0  0
 17 18  1  0  0  0
 17 35  1  0  0  0
 18 19  2  0  0  0
 18 36  1  0  0  0
 19 37  1  0  0  0
 20 21  1  0  0  0
 20 22  2  0  0  0
 21 23  1  0  0  0
 21 38  1  0  0  0
 23 25  1  0  0  0
 23 39  1  0  0  0
 23 40  1  0  0  0
 24 26  1  0  0  0
 24 41  1  0  0  0
 24 42  1  0  0  0
 25 43  1  0  0  0
 25 44  1  0  0  0
 25 45  1  0  0  0
 26 27  1  0  0  0
 26 46  1  0  0  0
 26 47  1  0  0  0
 27 48  1  0  0  0
M  END
> <s_m_entry_id>
486

> <s_m_entry_name>
dock_pv.485

> <s_m_Source_Path>
/home/csk/Desktop/cluster/DUD-E-result/kif11

> <s_m_Source_File>
dock_pv.maegz

> <i_m_Source_File_Index>
485

> <chembl_id>
CHEMBL382406

> <chembl_pref_name>
None

> <i_lp_mmshare_version>
53161

> <i_f3d_flags>
0

> <r_lp_tautomer_probability>
1

> <s_lp_Force_Field>
OPLS_2005

> <r_lp_Energy>
31.405701

> <b_lp_Chiralities_Consistent>
1

> <s_lp_Variant>
CHEMBL4581_lig104-2

> <s_i_glide_gridfile>
glide-grid_3cjo

> <i_i_glide_lignum>
177

> <i_i_glide_rotatable_bonds>
8

> <r_i_docking_score>
-7.0928072995696

> <r_i_glide_ligand_efficiency>
-0.262696566650726

> <r_i_glide_ligand_efficiency_sa>
-0.788089699086373

> <r_i_glide_ligand_efficiency_ln>
-1.65108860527258

> <r_i_glide_gscore>
-7.0928072995696

> <r_i_glide_lipo>
-2.80209922247478

> <r_i_glide_hbond>
-0.32

> <r_i_glide_metal>
0

> <r_i_glide_rewards>
-2.38263012550919

> <r_i_glide_evdw>
-37.2040519714355

> <r_i_glide_ecoul>
-3.7299337387085

> <r_i_glide_erotb>
0.831614707792419

> <r_i_glide_esite>
0

> <r_i_glide_emodel>
-54.0389177428619

> <r_i_glide_energy>
-40.933985710144

> <r_i_glide_einternal>
9.00926113128662

> <i_i_glide_confnum>
35

> <i_i_glide_posenum>
339

> <r_i_glide_eff_state_penalty>
0

> <s_user_duplicate_titles>
CHEMBL4581_lig104

> <s_m_subgroup_title>
dock_pv

> <s_m_subgroupid>
dock_pv

> <b_m_subgroup_collapsed>
1

$$$$
CHEMBL4581_lig401
                    3D
 Schrodinger Suite 2021-1.
 46 49  0  0  1  0            999 V2000
   14.1733   20.1024  108.1707 C   0  0  0  0  0  0
   13.7547   19.2572  107.1463 C   0  0  0  0  0  0
   14.3043   17.9879  106.9703 C   0  0  0  0  0  0
   15.1667   19.7113  109.0663 C   0  0  0  0  0  0
   15.7530   18.4438  108.9254 C   0  0  0  0  0  0
   15.3026   17.5931  107.8690 C   0  0  0  0  0  0
   16.0367   16.4268  107.9608 N   0  0  0  0  0  0
   16.7798   17.7326  109.6311 C   0  0  0  0  0  0
   16.9380   16.5138  108.9921 C   0  0  0  0  0  0
   17.9613   15.4374  109.3741 C   0  0  2  0  0  0
   18.4795   15.7909  110.7251 N   0  0  0  0  0  0
   18.8810   17.2112  110.8900 C   0  0  0  0  0  0
   17.6152   18.1068  110.8443 C   0  0  0  0  0  0
   19.0691   15.1956  108.3228 C   0  0  0  0  0  0
   19.1651   15.9731  107.1563 C   0  0  0  0  0  0
   20.1836   15.7688  106.2296 C   0  0  0  0  0  0
   21.1171   14.7586  106.4368 C   0  0  0  0  0  0
   21.0300   13.9623  107.5755 C   0  0  0  0  0  0
   20.0283   14.1908  108.5209 C   0  0  0  0  0  0
   21.9180   12.9439  107.7592 O   0  0  0  0  0  0
   18.7708   14.8764  111.6909 C   0  0  0  0  0  0
   19.4791   15.1584  112.6569 O   0  0  0  0  0  0
   18.0858   13.4879  111.6501 C   0  0  0  0  0  0
   18.3176   12.5938  112.8912 C   0  0  0  0  0  0
   13.7775   16.9635  105.6831 Cl  0  0  0  0  0  0
   17.5180   13.0062  114.0338 N   0  0  0  0  0  0
   13.7212   21.0794  108.2699 H   0  0  0  0  0  0
   12.9840   19.5968  106.4685 H   0  0  0  0  0  0
   15.4838   20.3776  109.8574 H   0  0  0  0  0  0
   15.9716   15.6155  107.3627 H   0  0  0  0  0  0
   17.4668   14.4679  109.4391 H   0  0  0  0  0  0
   19.5175   17.4771  110.0498 H   0  0  0  0  0  0
   19.4995   17.3950  111.7692 H   0  0  0  0  0  0
   17.9283   19.1503  110.7928 H   0  0  0  0  0  0
   17.0322   18.0141  111.7590 H   0  0  0  0  0  0
   18.4599   16.7610  106.9546 H   0  0  0  0  0  0
   20.2429   16.3863  105.3456 H   0  0  0  0  0  0
   21.8907   14.5839  105.7005 H   0  0  0  0  0  0
   20.0027   13.5646  109.3983 H   0  0  0  0  0  0
   22.5205   12.8573  107.0169 H   0  0  0  0  0  0
   18.4685   12.9430  110.7906 H   0  0  0  0  0  0
   17.0149   13.6186  111.4901 H   0  0  0  0  0  0
   19.3697   12.5968  113.1747 H   0  0  0  0  0  0
   18.0648   11.5622  112.6515 H   0  0  0  0  0  0
   16.5495   12.7612  113.8862 H   0  0  0  0  0  0
   17.8167   12.5046  114.8613 H   0  0  0  0  0  0
  1  2  2  0  0  0
  1  4  1  0  0  0
  1 27  1  0  0  0
  2  3  1  0  0  0
  2 28  1  0  0  0
  3  6  2  0  0  0
  3 25  1  0  0  0
  4  5  2  0  0  0
  4 29  1  0  0  0
  5  8  1  0  0  0
  5  6  1  0  0  0
  6  7  1  0  0  0
  7  9  1  0  0  0
  7 30  1  0  0  0
  8  9  2  0  0  0
  8 13  1  0  0  0
  9 10  1  0  0  0
 10 11  1  0  0  0
 10 14  1  0  0  0
 10 31  1  0  0  0
 11 12  1  0  0  0
 11 21  1  0  0  0
 12 13  1  0  0  0
 12 32  1  0  0  0
 12 33  1  0  0  0
 13 34  1  0  0  0
 13 35  1  0  0  0
 14 15  2  0  0  0
 14 19  1  0  0  0
 15 16  1  0  0  0
 15 36  1  0  0  0
 16 17  2  0  0  0
 16 37  1  0  0  0
 17 18  1  0  0  0
 17 38  1  0  0  0
 18 19  2  0  0  0
 18 20  1  0  0  0
 19 39  1  0  0  0
 20 40  1  0  0  0
 21 22  2  0  0  0
 21 23  1  0  0  0
 23 24  1  0  0  0
 23 41  1  0  0  0
 23 42  1  0  0  0
 24 26  1  0  0  0
 24 43  1  0  0  0
 24 44  1  0  0  0
 26 45  1  0  0  0
 26 46  1  0  0  0
M  END
> <s_m_entry_id>
487

> <s_m_entry_name>
dock_pv.486

> <s_m_Source_Path>
/home/csk/Desktop/cluster/DUD-E-result/kif11

> <s_m_Source_File>
dock_pv.maegz

> <i_m_Source_File_Index>
486

> <chembl_id>
CHEMBL1163527

> <chembl_pref_name>
None

> <i_lp_mmshare_version>
53161

> <i_f3d_flags>
0

> <r_lp_tautomer_probability>
0.999999999997365

> <s_lp_Force_Field>
OPLS_2005

> <r_lp_Energy>
27.505107

> <b_lp_Chiralities_Consistent>
1

> <s_lp_Variant>
CHEMBL4581_lig401-1

> <s_i_glide_gridfile>
glide-grid_3cjo

> <i_i_glide_lignum>
578

> <i_i_glide_rotatable_bonds>
5

> <r_i_docking_score>
-7.08335964250348

> <r_i_glide_ligand_efficiency>
-0.272436909327057

> <r_i_glide_ligand_efficiency_sa>
-0.807093271893933

> <r_i_glide_ligand_efficiency_ln>
-1.66350376964322

> <r_i_glide_gscore>
-7.08335964250348

> <r_i_glide_lipo>
-3.57018797032295

> <r_i_glide_hbond>
0

> <r_i_glide_metal>
0

> <r_i_glide_rewards>
-1.58843067736364

> <r_i_glide_evdw>
-37.0508613586426

> <r_i_glide_ecoul>
-3.30114984512329

> <r_i_glide_erotb>
0.42297454988372

> <r_i_glide_esite>
0

> <r_i_glide_emodel>
-56.1155934424601

> <r_i_glide_energy>
-40.3520112037659

> <r_i_glide_einternal>
2.52602124214172

> <i_i_glide_confnum>
4

> <i_i_glide_posenum>
257

> <r_i_glide_eff_state_penalty>
0

> <s_user_duplicate_titles>
CHEMBL4581_lig401

> <s_m_subgroup_title>
dock_pv

> <s_m_subgroupid>
dock_pv

> <b_m_subgroup_collapsed>
1

$$$$
CHEMBL4581_lig731
                    3D
 Schrodinger Suite 2021-1.
 71 73  0  0  1  0            999 V2000
   11.7173   12.5064  104.9332 C   0  0  0  0  0  0
   13.2493   12.6627  105.0180 C   0  0  2  0  0  0
   13.8444   11.3752  104.9587 O   0  0  0  0  0  0
   13.7512   13.3692  106.3085 C   0  0  0  0  0  0
   13.0401   13.2873  107.3148 O   0  0  0  0  0  0
   14.9497   14.0359  106.3188 N   0  0  0  0  0  0
   15.8655   13.9592  105.1512 C   0  0  0  0  0  0
   16.0263   15.2781  104.3790 C   0  0  0  0  0  0
   16.7162   15.1262  103.0134 C   0  0  2  0  0  0
   17.1160   16.4498  102.5601 N   0  0  0  0  0  0
   15.8264   14.4722  101.9361 C   0  0  0  0  0  0
   14.6474   15.0800  101.7638 F   0  0  0  0  0  0
   15.4158   14.7502  107.5606 C   0  0  1  0  0  0
   16.8788   14.4599  107.9393 C   0  0  0  0  0  0
   17.8551   14.9517  107.1877 N   0  0  0  0  0  0
   19.0478   14.5532  107.5566 C   0  0  0  0  0  0
   19.0276   13.5621  108.9605 S   0  0  0  0  0  0
   17.2933   13.7281  109.0543 C   0  0  0  0  0  0
   16.4974   13.1562  110.2131 C   0  0  0  0  0  0
   17.2308   13.3455  111.5319 C   0  0  0  0  0  0
   17.3461   12.2720  112.4097 C   0  0  0  0  0  0
   18.1688   12.3839  113.5222 C   0  0  0  0  0  0
   18.8574   13.5620  113.7585 C   0  0  0  0  0  0
   18.7070   14.6549  112.9180 C   0  0  0  0  0  0
   17.8625   14.5619  111.8225 C   0  0  0  0  0  0
   20.3285   14.8864  106.8490 C   0  0  0  0  0  0
   20.3740   16.0638  106.0875 C   0  0  0  0  0  0
   21.5234   16.4148  105.3847 C   0  0  0  0  0  0
   21.5590   17.5610  104.6691 F   0  0  0  0  0  0
   22.6303   15.5720  105.4106 C   0  0  0  0  0  0
   22.6079   14.3999  106.1536 C   0  0  0  0  0  0
   21.4797   14.0692  106.8974 C   0  0  0  0  0  0
   21.5428   12.9561  107.6615 F   0  0  0  0  0  0
   14.8991   16.2216  107.8616 C   0  0  0  0  0  0
   13.3650   16.3445  107.6929 C   0  0  0  0  0  0
   15.5410   17.3067  106.9711 C   0  0  0  0  0  0
   15.2184   16.5885  109.3353 C   0  0  0  0  0  0
   11.2235   13.4791  104.9457 H   0  0  0  0  0  0
   11.4270   12.0049  104.0096 H   0  0  0  0  0  0
   11.3087   11.9263  105.7584 H   0  0  0  0  0  0
   13.5332   13.2344  104.1330 H   0  0  0  0  0  0
   13.9264   11.0306  105.8585 H   0  0  0  0  0  0
   15.5528   13.1983  104.4416 H   0  0  0  0  0  0
   16.8402   13.5708  105.4430 H   0  0  0  0  0  0
   16.6424   15.9312  104.9907 H   0  0  0  0  0  0
   15.0574   15.7635  104.2566 H   0  0  0  0  0  0
   17.6265   14.5369  103.1358 H   0  0  0  0  0  0
   16.2844   16.9583  102.2883 H   0  0  0  0  0  0
   17.5069   16.9625  103.3343 H   0  0  0  0  0  0
   15.6005   13.4352  102.1910 H   0  0  0  0  0  0
   16.3224   14.4793  100.9648 H   0  0  0  0  0  0
   14.8836   14.2176  108.3475 H   0  0  0  0  0  0
   15.5292   13.6441  110.3127 H   0  0  0  0  0  0
   16.2901   12.0998  110.0375 H   0  0  0  0  0  0
   16.8251   11.3482  112.2071 H   0  0  0  0  0  0
   18.3179   11.5620  114.1920 H   0  0  0  0  0  0
   19.5181   13.6175  114.6009 H   0  0  0  0  0  0
   19.2557   15.5611  113.0972 H   0  0  0  0  0  0
   17.7684   15.4063  111.1551 H   0  0  0  0  0  0
   19.5196   16.7225  106.0438 H   0  0  0  0  0  0
   23.5179   15.8198  104.8659 H   0  0  0  0  0  0
   23.4746   13.7578  106.1608 H   0  0  0  0  0  0
   12.8315   15.6598  108.3535 H   0  0  0  0  0  0
   13.0144   17.3500  107.9306 H   0  0  0  0  0  0
   13.0483   16.1360  106.6704 H   0  0  0  0  0  0
   16.6232   17.2057  106.9387 H   0  0  0  0  0  0
   15.1494   17.2897  105.9554 H   0  0  0  0  0  0
   15.3329   18.3101  107.3474 H   0  0  0  0  0  0
   16.2918   16.6002  109.5278 H   0  0  0  0  0  0
   14.8423   17.5790  109.5975 H   0  0  0  0  0  0
   14.7671   15.8847  110.0351 H   0  0  0  0  0  0
  1  2  1  0  0  0
  1 38  1  0  0  0
  1 39  1  0  0  0
  1 40  1  0  0  0
  2  3  1  0  0  0
  2  4  1  0  0  0
  2 41  1  0  0  0
  3 42  1  0  0  0
  4  5  2  0  0  0
  4  6  1  0  0  0
  6  7  1  0  0  0
  6 13  1  0  0  0
  7  8  1  0  0  0
  7 43  1  0  0  0
  7 44  1  0  0  0
  8  9  1  0  0  0
  8 45  1  0  0  0
  8 46  1  0  0  0
  9 10  1  0  0  0
  9 11  1  0  0  0
  9 47  1  0  0  0
 10 48  1  0  0  0
 10 49  1  0  0  0
 11 12  1  0  0  0
 11 50  1  0  0  0
 11 51  1  0  0  0
 13 14  1  0  0  0
 13 34  1  0  0  0
 13 52  1  0  0  0
 14 15  1  0  0  0
 14 18  2  0  0  0
 15 16  2  0  0  0
 16 17  1  0  0  0
 16 26  1  0  0  0
 17 18  1  0  0  0
 18 19  1  0  0  0
 19 20  1  0  0  0
 19 53  1  0  0  0
 19 54  1  0  0  0
 20 21  2  0  0  0
 20 25  1  0  0  0
 21 22  1  0  0  0
 21 55  1  0  0  0
 22 23  2  0  0  0
 22 56  1  0  0  0
 23 24  1  0  0  0
 23 57  1  0  0  0
 24 25  2  0  0  0
 24 58  1  0  0  0
 25 59  1  0  0  0
 26 27  2  0  0  0
 26 32  1  0  0  0
 27 28  1  0  0  0
 27 60  1  0  0  0
 28 29  1  0  0  0
 28 30  2  0  0  0
 30 31  1  0  0  0
 30 61  1  0  0  0
 31 32  2  0  0  0
 31 62  1  0  0  0
 32 33  1  0  0  0
 34 35  1  0  0  0
 34 36  1  0  0  0
 34 37  1  0  0  0
 35 63  1  0  0  0
 35 64  1  0  0  0
 35 65  1  0  0  0
 36 66  1  0  0  0
 36 67  1  0  0  0
 36 68  1  0  0  0
 37 69  1  0  0  0
 37 70  1  0  0  0
 37 71  1  0  0  0
M  END
> <s_m_entry_id>
488

> <s_m_entry_name>
dock_pv.487

> <s_m_Source_Path>
/home/csk/Desktop/cluster/DUD-E-result/kif11

> <s_m_Source_File>
dock_pv.maegz

> <i_m_Source_File_Index>
487

> <chembl_id>
CHEMBL3680848

> <chembl_pref_name>
None

> <i_lp_mmshare_version>
53161

> <i_f3d_flags>
0

> <r_lp_tautomer_probability>
1

> <s_lp_Force_Field>
OPLS_2005

> <r_lp_Energy>
38.772686

> <b_lp_Chiralities_Consistent>
1

> <s_lp_Variant>
CHEMBL4581_lig731-1

> <s_i_glide_gridfile>
glide-grid_3cjo

> <i_i_glide_lignum>
1078

> <i_i_glide_rotatable_bonds>
13

> <r_i_docking_score>
-7.08270426729313

> <r_i_glide_ligand_efficiency>
-0.191424439656571

> <r_i_glide_ligand_efficiency_sa>
-0.637868699994945

> <r_i_glide_ligand_efficiency_ln>
-1.53607251342963

> <r_i_glide_gscore>
-7.08270426729313

> <r_i_glide_lipo>
-4.44354414852838

> <r_i_glide_hbond>
0

> <r_i_glide_metal>
0

> <r_i_glide_rewards>
-0.798114933317146

> <r_i_glide_evdw>
-43.714111328125

> <r_i_glide_ecoul>
-2.51629996299744

> <r_i_glide_erotb>
0.724537098601111

> <r_i_glide_esite>
-0.00243172319284666

> <r_i_glide_emodel>
-56.9481859286968

> <r_i_glide_energy>
-46.2304112911224

> <r_i_glide_einternal>
17.6508903503418

> <i_i_glide_confnum>
21

> <i_i_glide_posenum>
331

> <r_i_glide_eff_state_penalty>
0

> <s_user_duplicate_titles>
CHEMBL4581_lig731

> <s_m_subgroup_title>
dock_pv

> <s_m_subgroupid>
dock_pv

> <b_m_subgroup_collapsed>
1

$$$$
CHEMBL4581_lig33
                    3D
 Schrodinger Suite 2021-1.
 36 37  0  0  1  0            999 V2000
   17.4841   13.4551  110.6325 C   0  0  0  0  0  0
   18.4343   14.3673  111.1118 C   0  0  0  0  0  0
   18.9123   14.2290  112.4193 C   0  0  0  0  0  0
   18.4630   13.1855  113.2271 C   0  0  0  0  0  0
   17.5178   12.2858  112.7412 C   0  0  0  0  0  0
   17.0461   12.4055  111.4362 C   0  0  0  0  0  0
   18.9322   15.5216  110.2400 C   0  0  2  0  0  0
   18.0462   16.7111  110.3296 N   0  0  0  0  0  0
   17.2116   17.1751  109.3547 C   0  0  0  0  0  0
   17.2575   16.4992  108.1740 N   0  0  0  0  0  0
   18.2383   15.6291  107.8062 C   0  0  0  0  0  0
   19.1177   15.1595  108.7355 C   0  0  0  0  0  0
   18.9775   13.0411  114.4855 O   0  0  0  0  0  0
   20.1866   14.1943  108.4259 C   0  0  0  0  0  0
   20.8788   14.4999  107.3056 O   0  0  0  0  0  0
   21.9283   13.6568  106.8488 C   0  0  0  0  0  0
   22.7181   14.3865  105.7590 C   0  0  0  0  0  0
   18.1482   15.2470  106.3313 C   0  0  0  0  0  0
   20.4568   13.2387  109.1562 O   0  0  0  0  0  0
   16.3183   18.5512  109.5496 S   0  0  0  0  0  0
   17.0977   13.5417  109.6274 H   0  0  0  0  0  0
   19.6476   14.9180  112.8086 H   0  0  0  0  0  0
   17.1529   11.4815  113.3587 H   0  0  0  0  0  0
   16.3271   11.6962  111.0527 H   0  0  0  0  0  0
   19.9167   15.7547  110.6461 H   0  0  0  0  0  0
   18.0145   17.2444  111.1864 H   0  0  0  0  0  0
   16.5982   16.8564  107.4993 H   0  0  0  0  0  0
   18.5752   12.3604  115.0345 H   0  0  0  0  0  0
   21.5183   12.7286  106.4562 H   0  0  0  0  0  0
   22.5977   13.3937  107.6693 H   0  0  0  0  0  0
   23.4907   13.7443  105.3376 H   0  0  0  0  0  0
   23.2038   15.2784  106.1596 H   0  0  0  0  0  0
   22.0650   14.6988  104.9433 H   0  0  0  0  0  0
   18.4986   16.0685  105.7067 H   0  0  0  0  0  0
   18.7313   14.3629  106.0827 H   0  0  0  0  0  0
   17.1202   15.0169  106.0503 H   0  0  0  0  0  0
  1  2  2  0  0  0
  1  6  1  0  0  0
  1 21  1  0  0  0
  2  3  1  0  0  0
  2  7  1  0  0  0
  3  4  2  0  0  0
  3 22  1  0  0  0
  4  5  1  0  0  0
  4 13  1  0  0  0
  5  6  2  0  0  0
  5 23  1  0  0  0
  6 24  1  0  0  0
  7  8  1  0  0  0
  7 12  1  0  0  0
  7 25  1  0  0  0
  8  9  1  0  0  0
  8 26  1  0  0  0
  9 10  1  0  0  0
  9 20  2  0  0  0
 10 11  1  0  0  0
 10 27  1  0  0  0
 11 12  2  0  0  0
 11 18  1  0  0  0
 12 14  1  0  0  0
 13 28  1  0  0  0
 14 15  1  0  0  0
 14 19  2  0  0  0
 15 16  1  0  0  0
 16 17  1  0  0  0
 16 29  1  0  0  0
 16 30  1  0  0  0
 17 31  1  0  0  0
 17 32  1  0  0  0
 17 33  1  0  0  0
 18 34  1  0  0  0
 18 35  1  0  0  0
 18 36  1  0  0  0
M  END
> <s_m_entry_id>
489

> <s_m_entry_name>
dock_pv.488

> <s_m_Source_Path>
/home/csk/Desktop/cluster/DUD-E-result/kif11

> <s_m_Source_File>
dock_pv.maegz

> <i_m_Source_File_Index>
488

> <chembl_id>
CHEMBL254432

> <chembl_pref_name>
S-MENASTROL

> <i_lp_mmshare_version>
53161

> <i_f3d_flags>
0

> <r_lp_tautomer_probability>
0.999999999995238

> <s_lp_Force_Field>
OPLS_2005

> <r_lp_Energy>
33.211777

> <b_lp_Chiralities_Consistent>
1

> <s_lp_Variant>
CHEMBL4581_lig33-1

> <s_i_glide_gridfile>
glide-grid_3cjo

> <i_i_glide_lignum>
51

> <i_i_glide_rotatable_bonds>
5

> <r_i_docking_score>
-7.07743594517177

> <r_i_glide_ligand_efficiency>
-0.353871797258588

> <r_i_glide_ligand_efficiency_sa>
-0.960555839535624

> <r_i_glide_ligand_efficiency_ln>
-1.77124878761628

> <r_i_glide_gscore>
-7.07743594517177

> <r_i_glide_lipo>
-2.90352995482544

> <r_i_glide_hbond>
-0.106098567189619

> <r_i_glide_metal>
0

> <r_i_glide_rewards>
-2.33793922804135

> <r_i_glide_evdw>
-39.3428153991699

> <r_i_glide_ecoul>
-2.68995237350464

> <r_i_glide_erotb>
0.64076543086884

> <r_i_glide_esite>
0

> <r_i_glide_emodel>
-58.9291812796044

> <r_i_glide_energy>
-42.0327677726746

> <r_i_glide_einternal>
2.66822624206543

> <i_i_glide_confnum>
4

> <i_i_glide_posenum>
3

> <r_i_glide_eff_state_penalty>
0

> <s_user_duplicate_titles>
CHEMBL4581_lig33,CHEMBL4581_lig19

> <s_m_subgroup_title>
dock_pv

> <s_m_subgroupid>
dock_pv

> <b_m_subgroup_collapsed>
1

$$$$
CHEMBL4581_lig894
                    3D
 Schrodinger Suite 2021-1.
 56 58  0  0  1  0            999 V2000
   17.5219   14.9654  108.4214 C   0  0  1  0  0  0
   18.9758   15.0252  107.8637 C   0  0  0  0  0  0
   17.4978   14.1639  109.7572 C   0  0  0  0  0  0
   19.3443   16.0128  106.9435 C   0  0  0  0  0  0
   20.5661   15.9708  106.2805 C   0  0  0  0  0  0
   21.4466   14.9251  106.5371 C   0  0  0  0  0  0
   21.1197   13.9620  107.4910 C   0  0  0  0  0  0
   19.9053   14.0177  108.1609 C   0  0  0  0  0  0
   16.8154   12.9446  109.8882 C   0  0  0  0  0  0
   16.8426   12.2481  111.0861 C   0  0  0  0  0  0
   17.5179   12.7532  112.1876 C   0  0  0  0  0  0
   18.2220   13.9551  112.0721 C   0  0  0  0  0  0
   18.2160   14.6433  110.8658 C   0  0  0  0  0  0
   16.8976   16.3573  108.7585 C   0  0  0  0  0  0
   15.5162   16.5929  108.6312 C   0  0  0  0  0  0
   14.9572   17.8071  109.0210 C   0  0  0  0  0  0
   15.7661   18.7963  109.5678 C   0  0  0  0  0  0
   17.1323   18.5839  109.7071 C   0  0  0  0  0  0
   17.6972   17.3888  109.2789 C   0  0  0  0  0  0
   16.7048   14.2239  107.2929 C   0  0  0  0  0  0
   16.6150   14.8922  105.8911 C   0  0  0  0  0  0
   15.7764   14.1115  104.8602 C   0  0  2  0  0  0
   16.3178   12.7616  104.7618 N   0  0  0  0  0  0
   22.7447   14.8182  105.7556 C   0  0  0  0  0  0
   17.4166   12.0177  113.3442 O   0  0  0  0  0  0
   17.8190   12.6216  114.5584 C   0  0  0  0  0  0
   15.7185   14.8030  103.4686 C   0  0  0  0  0  0
   15.1630   16.0117  103.5559 F   0  0  0  0  0  0
   16.9290   14.9681  102.9300 F   0  0  0  0  0  0
   14.9919   14.0966  102.6018 F   0  0  0  0  0  0
   18.6256   16.7622  106.6694 H   0  0  0  0  0  0
   20.8038   16.7212  105.5416 H   0  0  0  0  0  0
   21.7990   13.1467  107.6941 H   0  0  0  0  0  0
   19.6731   13.2189  108.8483 H   0  0  0  0  0  0
   16.2673   12.4919  109.0774 H   0  0  0  0  0  0
   16.3179   11.3080  111.1668 H   0  0  0  0  0  0
   18.7785   14.3670  112.9003 H   0  0  0  0  0  0
   18.7899   15.5543  110.8036 H   0  0  0  0  0  0
   14.8470   15.8377  108.2533 H   0  0  0  0  0  0
   13.8947   17.9719  108.9194 H   0  0  0  0  0  0
   15.3330   19.7296  109.8981 H   0  0  0  0  0  0
   17.7577   19.3367  110.1589 H   0  0  0  0  0  0
   18.7617   17.2567  109.3962 H   0  0  0  0  0  0
   17.1585   13.2405  107.1515 H   0  0  0  0  0  0
   15.6891   14.0074  107.6217 H   0  0  0  0  0  0
   16.2239   15.9052  105.9921 H   0  0  0  0  0  0
   17.6113   14.9873  105.4616 H   0  0  0  0  0  0
   14.7554   14.0278  105.2368 H   0  0  0  0  0  0
   15.8762   12.2513  104.0124 H   0  0  0  0  0  0
   17.3257   12.7629  104.5585 H   0  0  0  0  0  0
   22.5784   15.0834  104.7115 H   0  0  0  0  0  0
   23.5018   15.4912  106.1593 H   0  0  0  0  0  0
   23.1306   13.7984  105.7587 H   0  0  0  0  0  0
   17.5172   11.9620  115.3603 H   0  0  0  0  0  0
   18.8988   12.7583  114.6110 H   0  0  0  0  0  0
   17.3139   13.5736  114.7168 H   0  0  0  0  0  0
  1  2  1  0  0  0
  1  3  1  0  0  0
  1 14  1  0  0  0
  1 20  1  0  0  0
  2  4  2  0  0  0
  2  8  1  0  0  0
  3  9  2  0  0  0
  3 13  1  0  0  0
  4  5  1  0  0  0
  4 31  1  0  0  0
  5  6  2  0  0  0
  5 32  1  0  0  0
  6  7  1  0  0  0
  6 24  1  0  0  0
  7  8  2  0  0  0
  7 33  1  0  0  0
  8 34  1  0  0  0
  9 10  1  0  0  0
  9 35  1  0  0  0
 10 11  2  0  0  0
 10 36  1  0  0  0
 11 12  1  0  0  0
 11 25  1  0  0  0
 12 13  2  0  0  0
 12 37  1  0  0  0
 13 38  1  0  0  0
 14 15  2  0  0  0
 14 19  1  0  0  0
 15 16  1  0  0  0
 15 39  1  0  0  0
 16 17  2  0  0  0
 16 40  1  0  0  0
 17 18  1  0  0  0
 17 41  1  0  0  0
 18 19  2  0  0  0
 18 42  1  0  0  0
 19 43  1  0  0  0
 20 21  1  0  0  0
 20 44  1  0  0  0
 20 45  1  0  0  0
 21 22  1  0  0  0
 21 46  1  0  0  0
 21 47  1  0  0  0
 22 23  1  0  0  0
 22 27  1  0  0  0
 22 48  1  0  0  0
 23 49  1  0  0  0
 23 50  1  0  0  0
 24 51  1  0  0  0
 24 52  1  0  0  0
 24 53  1  0  0  0
 25 26  1  0  0  0
 26 54  1  0  0  0
 26 55  1  0  0  0
 26 56  1  0  0  0
 27 28  1  0  0  0
 27 29  1  0  0  0
 27 30  1  0  0  0
M  END
> <s_m_entry_id>
490

> <s_m_entry_name>
dock_pv.489

> <s_m_Source_Path>
/home/csk/Desktop/cluster/DUD-E-result/kif11

> <s_m_Source_File>
dock_pv.maegz

> <i_m_Source_File_Index>
489

> <chembl_id>
CHEMBL2325428

> <chembl_pref_name>
None

> <i_lp_mmshare_version>
53161

> <i_f3d_flags>
0

> <r_lp_tautomer_probability>
1

> <s_lp_Force_Field>
OPLS_2005

> <r_lp_Energy>
37.562668

> <b_lp_Chiralities_Consistent>
1

> <s_lp_Variant>
CHEMBL4581_lig894-2

> <s_i_glide_gridfile>
glide-grid_3cjo

> <i_i_glide_lignum>
1298

> <i_i_glide_rotatable_bonds>
8

> <r_i_docking_score>
-7.07071523571175

> <r_i_glide_ligand_efficiency>
-0.235690507857058

> <r_i_glide_ligand_efficiency_sa>
-0.732345206527941

> <r_i_glide_ligand_efficiency_ln>
-1.60654354316675

> <r_i_glide_gscore>
-7.07071523571175

> <r_i_glide_lipo>
-4.40344854084847

> <r_i_glide_hbond>
-0.16

> <r_i_glide_metal>
0

> <r_i_glide_rewards>
-0.589752862871417

> <r_i_glide_evdw>
-38.4826164245605

> <r_i_glide_ecoul>
-4.18192386627197

> <r_i_glide_erotb>
0.692386040291556

> <r_i_glide_esite>
-0.058480471114591

> <r_i_glide_emodel>
-59.2742176748006

> <r_i_glide_energy>
-42.6645402908325

> <r_i_glide_einternal>
3.4448299407959

> <i_i_glide_confnum>
72

> <i_i_glide_posenum>
71

> <r_i_glide_eff_state_penalty>
0

> <s_user_duplicate_titles>
CHEMBL4581_lig894

> <s_m_subgroup_title>
dock_pv

> <s_m_subgroupid>
dock_pv

> <b_m_subgroup_collapsed>
1

$$$$
CHEMBL4581_lig410
                    3D
 Schrodinger Suite 2021-1.
 50 53  0  0  1  0            999 V2000
   17.8544   12.7489  112.7492 C   0  0  0  0  0  0
   18.7187   13.7498  113.1848 C   0  0  0  0  0  0
   19.1740   14.7584  112.3359 C   0  0  0  0  0  0
   17.4063   12.7113  111.4305 C   0  0  0  0  0  0
   17.8511   13.6966  110.5365 C   0  0  0  0  0  0
   18.7351   14.7130  111.0091 C   0  0  0  0  0  0
   19.0126   15.5315  109.9343 N   0  0  0  0  0  0
   17.6142   13.9708  109.1533 C   0  0  0  0  0  0
   18.3734   15.0705  108.8100 C   0  0  0  0  0  0
   18.4862   15.6729  107.3994 C   0  0  2  0  0  0
   17.4157   15.0773  106.5108 N   0  0  0  0  0  0
   16.2262   14.3939  107.1402 C   0  0  1  0  0  0
   16.7432   13.2978  108.1204 C   0  0  0  0  0  0
   19.9351   15.5321  106.8909 C   0  0  0  0  0  0
   20.6652   14.3618  107.1306 C   0  0  0  0  0  0
   21.9178   14.1612  106.5576 C   0  0  0  0  0  0
   22.4774   15.1538  105.7571 C   0  0  0  0  0  0
   21.7780   16.3388  105.5358 C   0  0  0  0  0  0
   20.5215   16.5328  106.1095 C   0  0  0  0  0  0
   22.3072   17.2966  104.7213 O   0  0  0  0  0  0
   15.2223   15.3702  107.8324 C   0  0  0  0  0  0
   15.4312   16.6830  107.5497 O   0  0  0  0  0  0
   14.3436   14.9424  108.5845 O   0  0  0  0  0  0
   17.2854   15.5039  105.2130 C   0  0  0  0  0  0
   16.3149   14.7818  104.2698 C   0  0  0  0  0  0
   17.9992   16.3619  104.6918 O   0  0  0  0  0  0
   14.7175   17.7147  108.2212 C   0  0  0  0  0  0
   15.4192   18.0822  109.5401 C   0  0  0  0  0  0
   17.5351   11.9863  113.4443 H   0  0  0  0  0  0
   19.0589   13.7321  114.2060 H   0  0  0  0  0  0
   19.8512   15.5249  112.6828 H   0  0  0  0  0  0
   16.7388   11.9288  111.0989 H   0  0  0  0  0  0
   19.6129   16.3414  109.9201 H   0  0  0  0  0  0
   18.2587   16.7356  107.4934 H   0  0  0  0  0  0
   15.6197   13.8783  106.3979 H   0  0  0  0  0  0
   17.3082   12.5379  107.5799 H   0  0  0  0  0  0
   15.9109   12.7713  108.5895 H   0  0  0  0  0  0
   20.2475   13.5727  107.7361 H   0  0  0  0  0  0
   22.4551   13.2393  106.7299 H   0  0  0  0  0  0
   23.4463   14.9918  105.3054 H   0  0  0  0  0  0
   19.9862   17.4510  105.9047 H   0  0  0  0  0  0
   23.1181   17.0118  104.2955 H   0  0  0  0  0  0
   16.4314   13.6999  104.3499 H   0  0  0  0  0  0
   15.2823   15.0558  104.4902 H   0  0  0  0  0  0
   16.5204   15.0547  103.2345 H   0  0  0  0  0  0
   13.6785   17.4286  108.3955 H   0  0  0  0  0  0
   14.6945   18.5884  107.5671 H   0  0  0  0  0  0
   14.9000   18.8941  110.0478 H   0  0  0  0  0  0
   15.4527   17.2309  110.2257 H   0  0  0  0  0  0
   16.4450   18.4081  109.3624 H   0  0  0  0  0  0
  1  2  2  0  0  0
  1  4  1  0  0  0
  1 29  1  0  0  0
  2  3  1  0  0  0
  2 30  1  0  0  0
  3  6  2  0  0  0
  3 31  1  0  0  0
  4  5  2  0  0  0
  4 32  1  0  0  0
  5  8  1  0  0  0
  5  6  1  0  0  0
  6  7  1  0  0  0
  7  9  1  0  0  0
  7 33  1  0  0  0
  8  9  2  0  0  0
  8 13  1  0  0  0
  9 10  1  0  0  0
 10 14  1  0  0  0
 10 11  1  0  0  0
 10 34  1  0  0  0
 11 24  1  0  0  0
 11 12  1  0  0  0
 12 13  1  0  0  0
 12 21  1  0  0  0
 12 35  1  0  0  0
 13 36  1  0  0  0
 13 37  1  0  0  0
 14 15  2  0  0  0
 14 19  1  0  0  0
 15 16  1  0  0  0
 15 38  1  0  0  0
 16 17  2  0  0  0
 16 39  1  0  0  0
 17 18  1  0  0  0
 17 40  1  0  0  0
 18 19  2  0  0  0
 18 20  1  0  0  0
 19 41  1  0  0  0
 20 42  1  0  0  0
 21 22  1  0  0  0
 21 23  2  0  0  0
 22 27  1  0  0  0
 24 25  1  0  0  0
 24 26  2  0  0  0
 25 43  1  0  0  0
 25 44  1  0  0  0
 25 45  1  0  0  0
 27 28  1  0  0  0
 27 46  1  0  0  0
 27 47  1  0  0  0
 28 48  1  0  0  0
 28 49  1  0  0  0
 28 50  1  0  0  0
M  END
> <s_m_entry_id>
491

> <s_m_entry_name>
dock_pv.490

> <s_m_Source_Path>
/home/csk/Desktop/cluster/DUD-E-result/kif11

> <s_m_Source_File>
dock_pv.maegz

> <i_m_Source_File_Index>
490

> <chembl_id>
CHEMBL1164257

> <chembl_pref_name>
None

> <i_lp_mmshare_version>
53161

> <i_f3d_flags>
0

> <r_lp_tautomer_probability>
0.999999999997365

> <s_lp_Force_Field>
OPLS_2005

> <r_lp_Energy>
22.028093

> <b_lp_Chiralities_Consistent>
1

> <s_lp_Variant>
CHEMBL4581_lig410-3

> <s_i_glide_gridfile>
glide-grid_3cjo

> <i_i_glide_lignum>
614

> <i_i_glide_rotatable_bonds>
6

> <r_i_docking_score>
-7.06980578882579

> <r_i_glide_ligand_efficiency>
-0.252493063886635

> <r_i_glide_ligand_efficiency_sa>
-0.766717652421634

> <r_i_glide_ligand_efficiency_ln>
-1.6319187545788

> <r_i_glide_gscore>
-7.06980578882579

> <r_i_glide_lipo>
-4.07963305721718

> <r_i_glide_hbond>
0

> <r_i_glide_metal>
0

> <r_i_glide_rewards>
-0.868924066225705

> <r_i_glide_evdw>
-45.5261421203613

> <r_i_glide_ecoul>
-1.55645143985748

> <r_i_glide_erotb>
0.405977262809377

> <r_i_glide_esite>
-0.0174511061955973

> <r_i_glide_emodel>
-67.6060646498012

> <r_i_glide_energy>
-47.0825935602188

> <r_i_glide_einternal>
2.03687453269958

> <i_i_glide_confnum>
11

> <i_i_glide_posenum>
98

> <r_i_glide_eff_state_penalty>
0

> <s_user_duplicate_titles>
CHEMBL4581_lig410,644681

> <s_m_subgroup_title>
dock_pv

> <s_m_subgroupid>
dock_pv

> <b_m_subgroup_collapsed>
1

$$$$
CHEMBL4581_lig810
                    3D
 Schrodinger Suite 2021-1.
 49 51  0  0  1  0            999 V2000
   14.9040   13.9806  106.1031 C   0  0  1  0  0  0
   13.9324   13.1619  106.8588 N   0  0  0  0  0  0
   15.9748   14.7147  106.9525 C   0  0  0  0  0  0
   16.5153   13.9794  108.2167 C   0  0  0  0  0  0
   17.5030   14.7967  109.1452 C   0  0  0  0  0  0
   18.7623   15.0435  108.2518 C   0  0  0  0  0  0
   16.8530   16.1194  109.6625 C   0  0  0  0  0  0
   17.8516   14.0277  110.4641 C   0  0  0  0  0  0
   18.8437   16.1670  107.4114 C   0  0  0  0  0  0
   19.9336   16.3617  106.5688 C   0  0  0  0  0  0
   20.9595   15.4249  106.5502 C   0  0  0  0  0  0
   20.9033   14.3057  107.3728 C   0  0  0  0  0  0
   19.8164   14.1199  108.2237 C   0  0  0  0  0  0
   18.8815   14.5105  111.2931 C   0  0  0  0  0  0
   19.1149   13.9615  112.5505 C   0  0  0  0  0  0
   18.3366   12.8946  112.9886 C   0  0  0  0  0  0
   17.3511   12.3619  112.1660 C   0  0  0  0  0  0
   17.1164   12.9149  110.9105 C   0  0  0  0  0  0
   15.4624   16.2572  109.8086 C   0  0  0  0  0  0
   14.9078   17.4345  110.3036 C   0  0  0  0  0  0
   15.7386   18.4843  110.6759 C   0  0  0  0  0  0
   17.1182   18.3619  110.5593 C   0  0  0  0  0  0
   17.6675   17.1954  110.0520 C   0  0  0  0  0  0
   15.5083   13.1512  104.9492 C   0  0  0  0  0  0
   15.5153   13.5652  103.7916 O   0  0  0  0  0  0
   16.0352   11.9615  105.3590 O   0  0  0  0  0  0
   14.3341   14.7621  105.5965 H   0  0  0  0  0  0
   13.3536   12.5944  106.2528 H   0  0  0  0  0  0
   14.3727   12.5480  107.5288 H   0  0  0  0  0  0
   15.5441   15.6705  107.2448 H   0  0  0  0  0  0
   16.8047   14.9850  106.3020 H   0  0  0  0  0  0
   17.0006   13.0536  107.9038 H   0  0  0  0  0  0
   15.6454   13.6664  108.7879 H   0  0  0  0  0  0
   18.0434   16.8901  107.3915 H   0  0  0  0  0  0
   19.9784   17.2330  105.9324 H   0  0  0  0  0  0
   21.8040   15.5659  105.8918 H   0  0  0  0  0  0
   21.6998   13.5765  107.3471 H   0  0  0  0  0  0
   19.7855   13.2327  108.8391 H   0  0  0  0  0  0
   19.4919   15.3451  110.9833 H   0  0  0  0  0  0
   19.8910   14.3659  113.1839 H   0  0  0  0  0  0
   18.5068   12.4704  113.9688 H   0  0  0  0  0  0
   16.7423   11.5408  112.5123 H   0  0  0  0  0  0
   16.3258   12.4716  110.3281 H   0  0  0  0  0  0
   14.7854   15.4612  109.5484 H   0  0  0  0  0  0
   13.8365   17.5290  110.4046 H   0  0  0  0  0  0
   15.3142   19.3947  111.0751 H   0  0  0  0  0  0
   17.7711   19.1621  110.8671 H   0  0  0  0  0  0
   18.7424   17.1358  109.9722 H   0  0  0  0  0  0
   15.9096   11.7633  106.2921 H   0  0  0  0  0  0
  1  3  1  0  0  0
  1 24  1  0  0  0
  1  2  1  0  0  0
  1 27  1  0  0  0
  2 28  1  0  0  0
  2 29  1  0  0  0
  3  4  1  0  0  0
  3 30  1  0  0  0
  3 31  1  0  0  0
  4  5  1  0  0  0
  4 32  1  0  0  0
  4 33  1  0  0  0
  5  7  1  0  0  0
  5  8  1  0  0  0
  5  6  1  0  0  0
  6 13  1  0  0  0
  6  9  2  0  0  0
  7 19  2  0  0  0
  7 23  1  0  0  0
  8 14  2  0  0  0
  8 18  1  0  0  0
  9 10  1  0  0  0
  9 34  1  0  0  0
 10 11  2  0  0  0
 10 35  1  0  0  0
 11 12  1  0  0  0
 11 36  1  0  0  0
 12 13  2  0  0  0
 12 37  1  0  0  0
 13 38  1  0  0  0
 14 15  1  0  0  0
 14 39  1  0  0  0
 15 16  2  0  0  0
 15 40  1  0  0  0
 16 17  1  0  0  0
 16 41  1  0  0  0
 17 18  2  0  0  0
 17 42  1  0  0  0
 18 43  1  0  0  0
 19 20  1  0  0  0
 19 44  1  0  0  0
 20 21  2  0  0  0
 20 45  1  0  0  0
 21 22  1  0  0  0
 21 46  1  0  0  0
 22 23  2  0  0  0
 22 47  1  0  0  0
 23 48  1  0  0  0
 24 25  2  0  0  0
 24 26  1  0  0  0
 26 49  1  0  0  0
M  END
> <s_m_entry_id>
493

> <s_m_entry_name>
dock_pv.492

> <s_m_Source_Path>
/home/csk/Desktop/cluster/DUD-E-result/kif11

> <s_m_Source_File>
dock_pv.maegz

> <i_m_Source_File_Index>
492

> <chembl_id>
CHEMBL2022588

> <chembl_pref_name>
None

> <i_lp_mmshare_version>
53161

> <i_f3d_flags>
0

> <r_lp_tautomer_probability>
1

> <s_lp_Force_Field>
OPLS_2005

> <r_lp_Energy>
32.338857

> <b_lp_Chiralities_Consistent>
1

> <s_lp_Variant>
CHEMBL4581_lig810-2

> <s_i_glide_gridfile>
glide-grid_3cjo

> <i_i_glide_lignum>
1197

> <i_i_glide_rotatable_bonds>
8

> <r_i_docking_score>
-7.06708034798649

> <r_i_glide_ligand_efficiency>
-0.271810782614865

> <r_i_glide_ligand_efficiency_sa>
-0.805238373972753

> <r_i_glide_ligand_efficiency_ln>
-1.65968063074263

> <r_i_glide_gscore>
-7.06708034798649

> <r_i_glide_lipo>
-4.21463946916685

> <r_i_glide_hbond>
-0.0079576030870505

> <r_i_glide_metal>
0

> <r_i_glide_rewards>
-1.14664801099256

> <r_i_glide_evdw>
-39.1394309997559

> <r_i_glide_ecoul>
-5.62566375732422

> <r_i_glide_erotb>
1.11459011733578

> <r_i_glide_esite>
-0.0116042684893812

> <r_i_glide_emodel>
-60.7122207420913

> <r_i_glide_energy>
-44.7650947570801

> <r_i_glide_einternal>
5.42030429840088

> <i_i_glide_confnum>
112

> <i_i_glide_posenum>
103

> <r_i_glide_eff_state_penalty>
0

> <s_user_duplicate_titles>
CHEMBL4581_lig810,CHEMBL4581_lig811

> <s_m_subgroup_title>
dock_pv

> <s_m_subgroupid>
dock_pv

> <b_m_subgroup_collapsed>
1

$$$$
CHEMBL4581_lig892
                    3D
 Schrodinger Suite 2021-1.
 53 55  0  0  1  0            999 V2000
   17.5549   15.2120  108.4300 C   0  0  2  0  0  0
   18.9782   15.0937  107.7746 C   0  0  0  0  0  0
   17.5563   14.4172  109.7789 C   0  0  0  0  0  0
   19.3781   15.9828  106.7587 C   0  0  0  0  0  0
   20.6128   15.8608  106.1297 C   0  0  0  0  0  0
   21.4778   14.8336  106.4966 C   0  0  0  0  0  0
   21.1187   13.9621  107.5208 C   0  0  0  0  0  0
   19.8926   14.0971  108.1601 C   0  0  0  0  0  0
   17.1162   13.0827  109.8205 C   0  0  0  0  0  0
   17.1102   12.3647  111.0080 C   0  0  0  0  0  0
   17.5412   12.9582  112.1869 C   0  0  0  0  0  0
   18.0171   14.2761  112.1604 C   0  0  0  0  0  0
   18.0294   14.9939  110.9675 C   0  0  0  0  0  0
   16.4423   14.6578  107.4725 C   0  0  0  0  0  0
   16.7214   14.2229  106.1630 C   0  0  0  0  0  0
   15.7280   13.6759  105.3566 C   0  0  0  0  0  0
   14.4326   13.5497  105.8455 C   0  0  0  0  0  0
   14.1275   13.9641  107.1385 C   0  0  0  0  0  0
   15.1252   14.5074  107.9409 C   0  0  0  0  0  0
   17.2876   16.7551  108.6819 C   0  0  0  0  0  0
   16.1053   17.2460  109.5604 C   0  0  1  0  0  0
   16.3477   18.7000  110.0263 C   0  0  0  0  0  0
   15.3295   19.1523  110.9584 N   0  0  0  0  0  0
   22.8086   14.6573  105.7862 C   0  0  0  0  0  0
   17.4546   12.1776  113.3173 O   0  0  0  0  0  0
   17.7381   12.7620  114.5769 C   0  0  0  0  0  0
   14.9418   17.1673  108.9134 F   0  0  0  0  0  0
   18.7219   16.7619  106.4084 H   0  0  0  0  0  0
   20.8803   16.5505  105.3418 H   0  0  0  0  0  0
   21.7868   13.1664  107.8180 H   0  0  0  0  0  0
   19.6601   13.3774  108.9287 H   0  0  0  0  0  0
   16.7872   12.5718  108.9278 H   0  0  0  0  0  0
   16.7568   11.3436  111.0150 H   0  0  0  0  0  0
   18.3826   14.7575  113.0541 H   0  0  0  0  0  0
   18.4164   16.0012  110.9802 H   0  0  0  0  0  0
   17.7144   14.2678  105.7461 H   0  0  0  0  0  0
   15.9731   13.3369  104.3600 H   0  0  0  0  0  0
   13.6605   13.1176  105.2245 H   0  0  0  0  0  0
   13.1232   13.8529  107.5219 H   0  0  0  0  0  0
   14.8716   14.7831  108.9545 H   0  0  0  0  0  0
   18.2042   17.1870  109.0885 H   0  0  0  0  0  0
   17.1505   17.2561  107.7250 H   0  0  0  0  0  0
   15.9914   16.6145  110.4408 H   0  0  0  0  0  0
   17.3222   18.7960  110.5082 H   0  0  0  0  0  0
   16.3526   19.3644  109.1611 H   0  0  0  0  0  0
   15.4956   18.7624  111.8802 H   0  0  0  0  0  0
   15.3917   20.1550  111.0737 H   0  0  0  0  0  0
   22.8731   13.6557  105.3597 H   0  0  0  0  0  0
   22.9438   15.3773  104.9798 H   0  0  0  0  0  0
   23.6342   14.7643  106.4898 H   0  0  0  0  0  0
   17.5168   12.0365  115.3584 H   0  0  0  0  0  0
   18.7906   13.0361  114.6624 H   0  0  0  0  0  0
   17.1172   13.6402  114.7620 H   0  0  0  0  0  0
  1  2  1  0  0  0
  1  3  1  0  0  0
  1 14  1  0  0  0
  1 20  1  0  0  0
  2  4  2  0  0  0
  2  8  1  0  0  0
  3  9  2  0  0  0
  3 13  1  0  0  0
  4  5  1  0  0  0
  4 28  1  0  0  0
  5  6  2  0  0  0
  5 29  1  0  0  0
  6  7  1  0  0  0
  6 24  1  0  0  0
  7  8  2  0  0  0
  7 30  1  0  0  0
  8 31  1  0  0  0
  9 10  1  0  0  0
  9 32  1  0  0  0
 10 11  2  0  0  0
 10 33  1  0  0  0
 11 12  1  0  0  0
 11 25  1  0  0  0
 12 13  2  0  0  0
 12 34  1  0  0  0
 13 35  1  0  0  0
 14 15  2  0  0  0
 14 19  1  0  0  0
 15 16  1  0  0  0
 15 36  1  0  0  0
 16 17  2  0  0  0
 16 37  1  0  0  0
 17 18  1  0  0  0
 17 38  1  0  0  0
 18 19  2  0  0  0
 18 39  1  0  0  0
 19 40  1  0  0  0
 20 21  1  0  0  0
 20 41  1  0  0  0
 20 42  1  0  0  0
 21 22  1  0  0  0
 21 27  1  0  0  0
 21 43  1  0  0  0
 22 23  1  0  0  0
 22 44  1  0  0  0
 22 45  1  0  0  0
 23 46  1  0  0  0
 23 47  1  0  0  0
 24 48  1  0  0  0
 24 49  1  0  0  0
 24 50  1  0  0  0
 25 26  1  0  0  0
 26 51  1  0  0  0
 26 52  1  0  0  0
 26 53  1  0  0  0
M  END
> <s_m_entry_id>
495

> <s_m_entry_name>
dock_pv.494

> <s_m_Source_Path>
/home/csk/Desktop/cluster/DUD-E-result/kif11

> <s_m_Source_File>
dock_pv.maegz

> <i_m_Source_File_Index>
494

> <chembl_id>
CHEMBL2325426

> <chembl_pref_name>
None

> <i_lp_mmshare_version>
53161

> <i_f3d_flags>
0

> <r_lp_tautomer_probability>
1

> <s_lp_Force_Field>
OPLS_2005

> <r_lp_Energy>
36.103988

> <b_lp_Chiralities_Consistent>
1

> <s_lp_Variant>
CHEMBL4581_lig892-3

> <s_i_glide_gridfile>
glide-grid_3cjo

> <i_i_glide_lignum>
1293

> <i_i_glide_rotatable_bonds>
7

> <r_i_docking_score>
-7.06705238492434

> <r_i_glide_ligand_efficiency>
-0.261742680923124

> <r_i_glide_ligand_efficiency_sa>
-0.78522804190671

> <r_i_glide_ligand_efficiency_ln>
-1.64509328574611

> <r_i_glide_gscore>
-7.06705238492434

> <r_i_glide_lipo>
-4.13803964451809

> <r_i_glide_hbond>
-0.318110491474385

> <r_i_glide_metal>
0

> <r_i_glide_rewards>
-0.976827409581295

> <r_i_glide_evdw>
-40.5790863037109

> <r_i_glide_ecoul>
-2.21543478965759

> <r_i_glide_erotb>
0.727194694283619

> <r_i_glide_esite>
0

> <r_i_glide_emodel>
-53.9806861629524

> <r_i_glide_energy>
-42.7945210933685

> <r_i_glide_einternal>
11.243145942688

> <i_i_glide_confnum>
111

> <i_i_glide_posenum>
15

> <r_i_glide_eff_state_penalty>
0

> <s_user_duplicate_titles>
CHEMBL4581_lig892

> <s_m_subgroup_title>
dock_pv

> <s_m_subgroupid>
dock_pv

> <b_m_subgroup_collapsed>
1

$$$$
CHEMBL4581_lig606
                    3D
 Schrodinger Suite 2021-1.
 50 52  0  0  1  0            999 V2000
   22.0105   16.7424  105.6267 C   0  0  0  0  0  0
   21.5151   15.2817  105.8085 C   0  0  2  0  0  0
   20.5974   15.0240  107.0155 C   0  0  0  0  0  0
   23.1805   17.0983  105.7590 O   0  0  0  0  0  0
   20.9972   17.5617  105.2322 O   0  0  0  0  0  0
   19.0651   16.0159  107.0405 S   0  0  0  0  0  0
   17.9104   15.2260  108.2543 C   0  0  1  0  0  0
   18.7120   14.1990  109.1471 C   0  0  0  0  0  0
   18.2279   13.8526  110.5525 C   0  0  0  0  0  0
   18.7155   14.5886  111.6393 C   0  0  0  0  0  0
   18.4142   14.2028  112.9380 C   0  0  0  0  0  0
   17.6234   13.0787  113.1554 C   0  0  0  0  0  0
   17.1178   12.3570  112.0760 C   0  0  0  0  0  0
   17.4056   12.7490  110.7715 C   0  0  0  0  0  0
   17.3205   16.3036  109.2102 C   0  0  0  0  0  0
   16.0137   16.1747  109.7111 C   0  0  0  0  0  0
   15.4823   17.1321  110.5704 C   0  0  0  0  0  0
   16.2627   18.2162  110.9583 C   0  0  0  0  0  0
   17.5720   18.3410  110.5084 C   0  0  0  0  0  0
   18.0937   17.3941  109.6359 C   0  0  0  0  0  0
   16.8329   14.6184  107.3020 C   0  0  0  0  0  0
   15.9383   15.4698  106.6111 C   0  0  0  0  0  0
   15.0369   14.9704  105.6726 C   0  0  0  0  0  0
   15.0248   13.6158  105.3667 C   0  0  0  0  0  0
   15.9116   12.7626  106.0125 C   0  0  0  0  0  0
   16.7866   13.2504  106.9864 C   0  0  0  0  0  0
   15.9499   16.8069  106.8141 F   0  0  0  0  0  0
   22.6666   14.3589  105.7641 N   0  0  0  0  0  0
   20.8876   15.0742  104.9559 H   0  0  0  0  0  0
   21.1184   15.2224  107.9441 H   0  0  0  0  0  0
   20.3280   13.9695  107.0100 H   0  0  0  0  0  0
   20.1383   17.1443  105.3372 H   0  0  0  0  0  0
   18.9677   13.2798  108.6278 H   0  0  0  0  0  0
   19.6860   14.6309  109.3592 H   0  0  0  0  0  0
   19.3550   15.4451  111.4785 H   0  0  0  0  0  0
   18.8120   14.7724  113.7611 H   0  0  0  0  0  0
   17.3898   12.7702  114.1650 H   0  0  0  0  0  0
   16.4888   11.4981  112.2524 H   0  0  0  0  0  0
   17.0320   12.1672  109.9412 H   0  0  0  0  0  0
   15.4009   15.3301  109.4328 H   0  0  0  0  0  0
   14.4737   17.0315  110.9411 H   0  0  0  0  0  0
   15.8567   18.9594  111.6299 H   0  0  0  0  0  0
   18.1898   19.1617  110.8383 H   0  0  0  0  0  0
   19.1154   17.5140  109.3060 H   0  0  0  0  0  0
   14.3636   15.6454  105.1647 H   0  0  0  0  0  0
   14.3415   13.2293  104.6246 H   0  0  0  0  0  0
   15.9175   11.7121  105.7582 H   0  0  0  0  0  0
   17.4436   12.5344  107.4491 H   0  0  0  0  0  0
   22.3613   13.4357  105.4792 H   0  0  0  0  0  0
   23.3255   14.6577  105.0570 H   0  0  0  0  0  0
  1  2  1  0  0  0
  1  4  2  0  0  0
  1  5  1  0  0  0
  2  3  1  0  0  0
  2 28  1  0  0  0
  2 29  1  0  0  0
  3  6  1  0  0  0
  3 30  1  0  0  0
  3 31  1  0  0  0
  5 32  1  0  0  0
  6  7  1  0  0  0
  7  8  1  0  0  0
  7 15  1  0  0  0
  7 21  1  0  0  0
  8  9  1  0  0  0
  8 33  1  0  0  0
  8 34  1  0  0  0
  9 10  1  0  0  0
  9 14  2  0  0  0
 10 11  2  0  0  0
 10 35  1  0  0  0
 11 12  1  0  0  0
 11 36  1  0  0  0
 12 13  2  0  0  0
 12 37  1  0  0  0
 13 14  1  0  0  0
 13 38  1  0  0  0
 14 39  1  0  0  0
 15 16  1  0  0  0
 15 20  2  0  0  0
 16 17  2  0  0  0
 16 40  1  0  0  0
 17 18  1  0  0  0
 17 41  1  0  0  0
 18 19  2  0  0  0
 18 42  1  0  0  0
 19 20  1  0  0  0
 19 43  1  0  0  0
 20 44  1  0  0  0
 21 22  1  0  0  0
 21 26  2  0  0  0
 22 23  2  0  0  0
 22 27  1  0  0  0
 23 24  1  0  0  0
 23 45  1  0  0  0
 24 25  2  0  0  0
 24 46  1  0  0  0
 25 26  1  0  0  0
 25 47  1  0  0  0
 26 48  1  0  0  0
 28 49  1  0  0  0
 28 50  1  0  0  0
M  END
> <s_m_entry_id>
496

> <s_m_entry_name>
dock_pv.495

> <s_m_Source_Path>
/home/csk/Desktop/cluster/DUD-E-result/kif11

> <s_m_Source_File>
dock_pv.maegz

> <i_m_Source_File_Index>
495

> <chembl_id>
CHEMBL2043396

> <chembl_pref_name>
None

> <i_lp_mmshare_version>
53161

> <i_f3d_flags>
0

> <r_lp_tautomer_probability>
1

> <s_lp_Force_Field>
OPLS_2005

> <r_lp_Energy>
25.991983

> <b_lp_Chiralities_Consistent>
1

> <s_lp_Variant>
CHEMBL4581_lig606-2

> <s_i_glide_gridfile>
glide-grid_3cjo

> <i_i_glide_lignum>
937

> <i_i_glide_rotatable_bonds>
9

> <r_i_docking_score>
-7.06021622797109

> <r_i_glide_ligand_efficiency>
-0.252150579570396

> <r_i_glide_ligand_efficiency_sa>
-0.765677668325056

> <r_i_glide_ligand_efficiency_ln>
-1.6297052023718

> <r_i_glide_gscore>
-7.06021622797109

> <r_i_glide_lipo>
-3.88411286250491

> <r_i_glide_hbond>
-0.00694409770941078

> <r_i_glide_metal>
0

> <r_i_glide_rewards>
-1.31862408685083

> <r_i_glide_evdw>
-45.5186157226562

> <r_i_glide_ecoul>
-3.83199048042297

> <r_i_glide_erotb>
1.00019417729032

> <r_i_glide_esite>
0

> <r_i_glide_emodel>
-65.3280361486161

> <r_i_glide_energy>
-49.3506062030792

> <r_i_glide_einternal>
10.5328989028931

> <i_i_glide_confnum>
161

> <i_i_glide_posenum>
263

> <r_i_glide_eff_state_penalty>
0

> <s_user_duplicate_titles>
CHEMBL4581_lig606

> <s_m_subgroup_title>
dock_pv

> <s_m_subgroupid>
dock_pv

> <b_m_subgroup_collapsed>
1

$$$$
CHEMBL4581_lig617
                    3D
 Schrodinger Suite 2021-1.
 50 54  0  0  1  0            999 V2000
   17.5074   16.3609  104.4879 C   0  0  0  0  0  0
   15.6248   14.2837  104.6148 C   0  0  0  0  0  0
   16.4282   14.5662  105.7341 C   0  0  0  0  0  0
   17.4123   15.5958  105.6684 C   0  0  0  0  0  0
   18.3866   15.8536  106.8509 C   0  0  1  0  0  0
   18.0714   14.9855  108.0238 N   0  0  0  0  0  0
   17.6577   13.6115  107.6729 C   0  0  0  0  0  0
   16.2815   13.7532  107.0163 C   0  0  0  0  0  0
   16.6974   16.0543  103.4081 C   0  0  0  0  0  0
   15.7896   15.0451  103.4669 C   0  0  0  0  0  0
   15.1682   14.9315  102.2629 O   0  0  0  0  0  0
   15.5578   16.0665  101.5344 C   0  0  0  0  0  0
   16.6838   16.6103  102.1680 O   0  0  0  0  0  0
   19.8645   15.8209  106.4007 C   0  0  0  0  0  0
   20.4451   16.9229  105.7574 C   0  0  0  0  0  0
   21.7551   16.8741  105.2839 C   0  0  0  0  0  0
   22.5141   15.7240  105.4667 C   0  0  0  0  0  0
   21.9737   14.6452  106.1554 C   0  0  0  0  0  0
   20.6733   14.7041  106.6394 C   0  0  0  0  0  0
   22.7158   13.5188  106.3460 O   0  0  0  0  0  0
   18.3068   15.4792  109.2809 C   0  0  0  0  0  0
   18.7103   16.6356  109.4404 O   0  0  0  0  0  0
   18.1581   14.6363  110.5377 C   0  0  0  0  0  0
   19.0204   14.9080  111.6116 C   0  0  0  0  0  0
   18.9326   14.1997  112.8017 C   0  0  0  0  0  0
   17.9819   13.1956  112.9351 C   0  0  0  0  0  0
   17.1189   12.8995  111.8790 C   0  0  0  0  0  0
   17.1749   13.6481  110.7057 C   0  0  0  0  0  0
   17.8728   12.4658  114.2546 C   0  0  0  0  0  0
   18.2206   17.1611  104.4020 H   0  0  0  0  0  0
   14.8983   13.4859  104.6494 H   0  0  0  0  0  0
   18.2201   16.8847  107.1610 H   0  0  0  0  0  0
   18.3177   13.1649  106.9377 H   0  0  0  0  0  0
   17.7198   12.9039  108.4932 H   0  0  0  0  0  0
   15.9000   12.7625  106.7684 H   0  0  0  0  0  0
   15.5614   14.2059  107.7004 H   0  0  0  0  0  0
   15.7834   15.8086  100.4989 H   0  0  0  0  0  0
   14.7482   16.7999  101.5499 H   0  0  0  0  0  0
   19.8926   17.8362  105.6158 H   0  0  0  0  0  0
   22.1767   17.7196  104.7627 H   0  0  0  0  0  0
   23.5183   15.6759  105.0844 H   0  0  0  0  0  0
   20.3034   13.8565  107.1850 H   0  0  0  0  0  0
   23.5514   13.5512  105.8779 H   0  0  0  0  0  0
   19.7733   15.6810  111.5329 H   0  0  0  0  0  0
   19.6010   14.4363  113.6169 H   0  0  0  0  0  0
   16.3694   12.1272  111.9850 H   0  0  0  0  0  0
   16.4270   13.4530  109.9536 H   0  0  0  0  0  0
   17.9194   13.1622  115.0883 H   0  0  0  0  0  0
   16.9144   11.9591  114.3489 H   0  0  0  0  0  0
   18.7130   11.7808  114.3704 H   0  0  0  0  0  0
  1  9  1  0  0  0
  1  4  2  0  0  0
  1 30  1  0  0  0
  2  3  2  0  0  0
  2 10  1  0  0  0
  2 31  1  0  0  0
  3  4  1  0  0  0
  3  8  1  0  0  0
  4  5  1  0  0  0
  5  6  1  0  0  0
  5 14  1  0  0  0
  5 32  1  0  0  0
  6  7  1  0  0  0
  6 21  1  0  0  0
  7  8  1  0  0  0
  7 33  1  0  0  0
  7 34  1  0  0  0
  8 35  1  0  0  0
  8 36  1  0  0  0
  9 10  2  0  0  0
  9 13  1  0  0  0
 10 11  1  0  0  0
 11 12  1  0  0  0
 12 13  1  0  0  0
 12 37  1  0  0  0
 12 38  1  0  0  0
 14 15  2  0  0  0
 14 19  1  0  0  0
 15 16  1  0  0  0
 15 39  1  0  0  0
 16 17  2  0  0  0
 16 40  1  0  0  0
 17 18  1  0  0  0
 17 41  1  0  0  0
 18 19  2  0  0  0
 18 20  1  0  0  0
 19 42  1  0  0  0
 20 43  1  0  0  0
 21 22  2  0  0  0
 21 23  1  0  0  0
 23 24  2  0  0  0
 23 28  1  0  0  0
 24 25  1  0  0  0
 24 44  1  0  0  0
 25 26  2  0  0  0
 25 45  1  0  0  0
 26 27  1  0  0  0
 26 29  1  0  0  0
 27 28  2  0  0  0
 27 46  1  0  0  0
 28 47  1  0  0  0
 29 48  1  0  0  0
 29 49  1  0  0  0
 29 50  1  0  0  0
M  END
> <s_m_entry_id>
497

> <s_m_entry_name>
dock_pv.496

> <s_m_Source_Path>
/home/csk/Desktop/cluster/DUD-E-result/kif11

> <s_m_Source_File>
dock_pv.maegz

> <i_m_Source_File_Index>
496

> <chembl_id>
CHEMBL2347654

> <chembl_pref_name>
None

> <i_lp_mmshare_version>
53161

> <i_f3d_flags>
0

> <r_lp_tautomer_probability>
0.999999999997365

> <s_lp_Force_Field>
OPLS_2005

> <r_lp_Energy>
47.411996

> <b_lp_Chiralities_Consistent>
1

> <s_lp_Variant>
CHEMBL4581_lig617-2

> <s_i_glide_gridfile>
glide-grid_3cjo

> <i_i_glide_lignum>
950

> <i_i_glide_rotatable_bonds>
4

> <r_i_docking_score>
-7.06009414996086

> <r_i_glide_ligand_efficiency>
-0.243451522412443

> <r_i_glide_ligand_efficiency_sa>
-0.74796020770705

> <r_i_glide_ligand_efficiency_ln>
-1.6165825318004

> <r_i_glide_gscore>
-7.06009414996086

> <r_i_glide_lipo>
-3.95280720909964

> <r_i_glide_hbond>
0

> <r_i_glide_metal>
0

> <r_i_glide_rewards>
-1.24473771406136

> <r_i_glide_evdw>
-42.7469902038574

> <r_i_glide_ecoul>
-0.762744545936584

> <r_i_glide_erotb>
0.389211965283498

> <r_i_glide_esite>
0

> <r_i_glide_emodel>
-59.303932318943

> <r_i_glide_energy>
-43.509734749794

> <r_i_glide_einternal>
4.46121835708618

> <i_i_glide_confnum>
2

> <i_i_glide_posenum>
351

> <r_i_glide_eff_state_penalty>
0

> <s_user_duplicate_titles>
CHEMBL4581_lig617

> <s_m_subgroup_title>
dock_pv

> <s_m_subgroupid>
dock_pv

> <b_m_subgroup_collapsed>
1

$$$$
CHEMBL4581_lig578
                    3D
 Schrodinger Suite 2021-1.
 51 54  0  0  1  0            999 V2000
   13.5454   18.3496  109.7081 C   0  0  0  0  0  0
   14.4221   19.4274  109.6906 C   0  0  0  0  0  0
   15.7918   19.1994  109.7580 C   0  0  0  0  0  0
   14.0440   17.0487  109.7461 C   0  0  0  0  0  0
   15.4287   16.7862  109.7343 C   0  0  0  0  0  0
   16.2922   17.8991  109.8417 C   0  0  0  0  0  0
   18.0322   17.6877  109.9754 S   0  0  0  0  0  0
   15.9429   15.4756  109.8223 N   0  0  0  0  0  0
   17.0566   15.1986  110.6459 C   0  0  0  0  0  0
   18.0462   16.1797  110.8751 C   0  0  0  0  0  0
   19.1087   15.9383  111.7522 C   0  0  0  0  0  0
   19.1580   14.7616  112.4908 C   0  0  0  0  0  0
   18.1538   13.8129  112.3393 C   0  0  0  0  0  0
   17.1182   14.0342  111.4323 C   0  0  0  0  0  0
   18.1928   12.3613  113.2692 Cl  0  0  0  0  0  0
   15.1395   14.3617  109.2533 C   0  0  0  0  0  0
   15.7759   13.5255  108.1037 C   0  0  2  0  0  0
   17.0835   12.7544  108.3979 C   0  0  0  0  0  0
   18.2395   13.6314  108.4276 N   0  0  1  0  0  0
   15.8783   14.2962  106.9155 O   0  0  0  0  0  0
   19.4091   13.0281  109.0376 C   0  0  0  0  0  0
   20.5561   14.0221  108.9590 C   0  0  0  0  0  0
   20.8838   14.5632  107.5725 C   0  0  0  0  0  0
   21.8937   13.9617  106.8178 C   0  0  0  0  0  0
   22.4190   14.6295  105.7176 C   0  0  0  0  0  0
   21.9031   15.8713  105.3552 C   0  0  0  0  0  0
   20.8329   16.4313  106.0469 C   0  0  0  0  0  0
   20.3182   15.7727  107.1574 C   0  0  0  0  0  0
   12.4787   18.5202  109.6908 H   0  0  0  0  0  0
   14.0436   20.4385  109.6474 H   0  0  0  0  0  0
   16.4668   20.0409  109.7591 H   0  0  0  0  0  0
   13.3186   16.2523  109.7763 H   0  0  0  0  0  0
   19.8845   16.6803  111.8764 H   0  0  0  0  0  0
   19.9685   14.5901  113.1837 H   0  0  0  0  0  0
   16.3587   13.2741  111.3501 H   0  0  0  0  0  0
   14.7528   13.7174  110.0415 H   0  0  0  0  0  0
   14.2301   14.7403  108.7935 H   0  0  0  0  0  0
   15.0374   12.7620  107.8634 H   0  0  0  0  0  0
   16.9771   12.2185  109.3418 H   0  0  0  0  0  0
   17.2443   11.9933  107.6335 H   0  0  0  0  0  0
   18.4587   13.9836  107.5042 H   0  0  0  0  0  0
   16.2917   13.7558  106.2374 H   0  0  0  0  0  0
   19.1968   12.7940  110.0800 H   0  0  0  0  0  0
   19.7113   12.1078  108.5590 H   0  0  0  0  0  0
   20.3187   14.8673  109.6041 H   0  0  0  0  0  0
   21.4506   13.5620  109.3815 H   0  0  0  0  0  0
   22.3300   13.0242  107.1305 H   0  0  0  0  0  0
   23.2283   14.1898  105.1530 H   0  0  0  0  0  0
   22.3163   16.3896  104.5022 H   0  0  0  0  0  0
   20.4284   17.3883  105.7501 H   0  0  0  0  0  0
   19.5373   16.2426  107.7389 H   0  0  0  0  0  0
  1  2  2  0  0  0
  1  4  1  0  0  0
  1 29  1  0  0  0
  2  3  1  0  0  0
  2 30  1  0  0  0
  3  6  2  0  0  0
  3 31  1  0  0  0
  4  5  2  0  0  0
  4 32  1  0  0  0
  5  8  1  0  0  0
  5  6  1  0  0  0
  6  7  1  0  0  0
  7 10  1  0  0  0
  8 16  1  0  0  0
  8  9  1  0  0  0
  9 14  1  0  0  0
  9 10  2  0  0  0
 10 11  1  0  0  0
 11 12  2  0  0  0
 11 33  1  0  0  0
 12 13  1  0  0  0
 12 34  1  0  0  0
 13 14  2  0  0  0
 13 15  1  0  0  0
 14 35  1  0  0  0
 16 17  1  0  0  0
 16 36  1  0  0  0
 16 37  1  0  0  0
 17 18  1  0  0  0
 17 20  1  0  0  0
 17 38  1  0  0  0
 18 19  1  0  0  0
 18 39  1  0  0  0
 18 40  1  0  0  0
 19 21  1  0  0  0
 19 41  1  0  0  0
 20 42  1  0  0  0
 21 22  1  0  0  0
 21 43  1  0  0  0
 21 44  1  0  0  0
 22 23  1  0  0  0
 22 45  1  0  0  0
 22 46  1  0  0  0
 23 24  2  0  0  0
 23 28  1  0  0  0
 24 25  1  0  0  0
 24 47  1  0  0  0
 25 26  2  0  0  0
 25 48  1  0  0  0
 26 27  1  0  0  0
 26 49  1  0  0  0
 27 28  2  0  0  0
 27 50  1  0  0  0
 28 51  1  0  0  0
M  END
> <s_m_entry_id>
498

> <s_m_entry_name>
dock_pv.497

> <s_m_Source_Path>
/home/csk/Desktop/cluster/DUD-E-result/kif11

> <s_m_Source_File>
dock_pv.maegz

> <i_m_Source_File_Index>
497

> <chembl_id>
CHEMBL1938593

> <chembl_pref_name>
None

> <i_lp_mmshare_version>
53161

> <i_f3d_flags>
0

> <r_lp_tautomer_probability>
1

> <s_lp_Force_Field>
OPLS_2005

> <r_lp_Energy>
32.804317

> <b_lp_Chiralities_Consistent>
1

> <s_lp_Variant>
CHEMBL4581_lig578-1

> <s_i_glide_gridfile>
glide-grid_3cjo

> <i_i_glide_lignum>
886

> <i_i_glide_rotatable_bonds>
8

> <r_i_docking_score>
-7.05795993825499

> <r_i_glide_ligand_efficiency>
-0.252069997794821

> <r_i_glide_ligand_efficiency_sa>
-0.765432974594283

> <r_i_glide_ligand_efficiency_ln>
-1.62918438445777

> <r_i_glide_gscore>
-7.05795993825499

> <r_i_glide_lipo>
-4.73842565083643

> <r_i_glide_hbond>
0

> <r_i_glide_metal>
0

> <r_i_glide_rewards>
-0.819370820054905

> <r_i_glide_evdw>
-39.9699897766113

> <r_i_glide_ecoul>
-0.566939055919647

> <r_i_glide_erotb>
0.583376879854866

> <r_i_glide_esite>
0

> <r_i_glide_emodel>
-56.0952870576795

> <r_i_glide_energy>
-40.536928832531

> <r_i_glide_einternal>
4.44365739822388

> <i_i_glide_confnum>
217

> <i_i_glide_posenum>
6

> <r_i_glide_eff_state_penalty>
0

> <s_user_duplicate_titles>
CHEMBL4581_lig578

> <s_m_subgroup_title>
dock_pv

> <s_m_subgroupid>
dock_pv

> <b_m_subgroup_collapsed>
1

$$$$
CHEMBL4581_lig745
                    3D
 Schrodinger Suite 2021-1.
 40 41  0  0  1  0            999 V2000
   17.6897   14.1830  111.2641 C   0  0  0  0  0  0
   17.4595   14.4871  109.7343 C   0  0  2  0  0  0
   16.0544   14.0648  109.2214 C   0  0  0  0  0  0
   18.6431   13.5619  108.7382 S   0  0  0  0  0  0
   19.2582   15.0835  108.0741 C   0  0  0  0  0  0
   18.7171   16.1577  108.4824 N   0  0  0  0  0  0
   17.7357   15.9042  109.3890 N   0  0  0  0  0  0
   20.3175   14.9586  107.2323 N   0  0  0  0  0  0
   20.6863   15.7855  106.2295 C   0  0  0  0  0  0
   22.0022   15.4341  105.5435 C   0  0  0  0  0  0
   20.0481   16.7622  105.8342 O   0  0  0  0  0  0
   17.0429   16.9395  109.9524 C   0  0  0  0  0  0
   16.0930   16.7856  110.7226 O   0  0  0  0  0  0
   17.4561   18.3768  109.6381 C   0  0  0  0  0  0
   17.3717   12.7272  111.6945 C   0  0  0  0  0  0
   17.4439   12.5780  113.2292 C   0  0  0  0  0  0
   18.8064   12.9885  113.7771 C   0  0  0  0  0  0
   19.2401   14.3865  113.2936 C   0  0  0  0  0  0
   19.1186   14.5330  111.7676 C   0  0  0  0  0  0
   17.0035   14.8048  111.8362 H   0  0  0  0  0  0
   15.2538   14.4955  109.8234 H   0  0  0  0  0  0
   15.8924   14.3816  108.1897 H   0  0  0  0  0  0
   15.9187   12.9824  109.2384 H   0  0  0  0  0  0
   20.8500   14.1073  107.3141 H   0  0  0  0  0  0
   22.8482   15.7428  106.1576 H   0  0  0  0  0  0
   22.0831   15.9439  104.5821 H   0  0  0  0  0  0
   22.0721   14.3602  105.3614 H   0  0  0  0  0  0
   17.4118   18.5699  108.5668 H   0  0  0  0  0  0
   16.7988   19.0903  110.1365 H   0  0  0  0  0  0
   18.4739   18.5619  109.9805 H   0  0  0  0  0  0
   16.3670   12.4503  111.3765 H   0  0  0  0  0  0
   18.0237   12.0163  111.1874 H   0  0  0  0  0  0
   16.7174   13.2222  113.7118 H   0  0  0  0  0  0
   17.1919   11.5622  113.5224 H   0  0  0  0  0  0
   18.8041   12.9487  114.8668 H   0  0  0  0  0  0
   19.5179   12.2397  113.4461 H   0  0  0  0  0  0
   18.6187   15.1540  113.7590 H   0  0  0  0  0  0
   20.2647   14.5890  113.6079 H   0  0  0  0  0  0
   19.8711   13.9295  111.2592 H   0  0  0  0  0  0
   19.3665   15.5609  111.4978 H   0  0  0  0  0  0
  1  2  1  0  0  0
  1 15  1  0  0  0
  1 19  1  0  0  0
  1 20  1  0  0  0
  2  3  1  0  0  0
  2  4  1  0  0  0
  2  7  1  0  0  0
  3 21  1  0  0  0
  3 22  1  0  0  0
  3 23  1  0  0  0
  4  5  1  0  0  0
  5  6  2  0  0  0
  5  8  1  0  0  0
  6  7  1  0  0  0
  7 12  1  0  0  0
  8  9  1  0  0  0
  8 24  1  0  0  0
  9 10  1  0  0  0
  9 11  2  0  0  0
 10 25  1  0  0  0
 10 26  1  0  0  0
 10 27  1  0  0  0
 12 13  2  0  0  0
 12 14  1  0  0  0
 14 28  1  0  0  0
 14 29  1  0  0  0
 14 30  1  0  0  0
 15 16  1  0  0  0
 15 31  1  0  0  0
 15 32  1  0  0  0
 16 17  1  0  0  0
 16 33  1  0  0  0
 16 34  1  0  0  0
 17 18  1  0  0  0
 17 35  1  0  0  0
 17 36  1  0  0  0
 18 19  1  0  0  0
 18 37  1  0  0  0
 18 38  1  0  0  0
 19 39  1  0  0  0
 19 40  1  0  0  0
M  END
> <s_m_entry_id>
499

> <s_m_entry_name>
dock_pv.498

> <s_m_Source_Path>
/home/csk/Desktop/cluster/DUD-E-result/kif11

> <s_m_Source_File>
dock_pv.maegz

> <i_m_Source_File_Index>
498

> <chembl_id>
CHEMBL4288387

> <chembl_pref_name>
None

> <i_lp_mmshare_version>
53161

> <i_f3d_flags>
0

> <r_lp_tautomer_probability>
1

> <s_lp_Force_Field>
OPLS_2005

> <r_lp_Energy>
23.559962

> <b_lp_Chiralities_Consistent>
1

> <s_lp_Variant>
CHEMBL4581_lig745-2

> <s_i_glide_gridfile>
glide-grid_3cjo

> <i_i_glide_lignum>
1097

> <i_i_glide_rotatable_bonds>
4

> <r_i_docking_score>
-7.05775746995999

> <r_i_glide_ligand_efficiency>
-0.371460919471578

> <r_i_glide_ligand_efficiency_sa>
-0.99120692898088

> <r_i_glide_ligand_efficiency_ln>
-1.78929310536615

> <r_i_glide_gscore>
-7.05775746995999

> <r_i_glide_lipo>
-2.78254077454773

> <r_i_glide_hbond>
0

> <r_i_glide_metal>
0

> <r_i_glide_rewards>
-2.73361167918291

> <r_i_glide_evdw>
-40.6907768249512

> <r_i_glide_ecoul>
0.279612392187119

> <r_i_glide_erotb>
0.450991966190144

> <r_i_glide_esite>
0

> <r_i_glide_emodel>
-56.3820776909028

> <r_i_glide_energy>
-40.4111644327641

> <r_i_glide_einternal>
1.34714162349701

> <i_i_glide_confnum>
1

> <i_i_glide_posenum>
216

> <r_i_glide_eff_state_penalty>
0

> <s_user_duplicate_titles>
CHEMBL4581_lig745

> <s_m_subgroup_title>
dock_pv

> <s_m_subgroupid>
dock_pv

> <b_m_subgroup_collapsed>
1

$$$$
CHEMBL4581_lig586
                    3D
 Schrodinger Suite 2021-1.
 47 49  0  0  1  0            999 V2000
   19.4841   15.0519  107.6174 C   0  0  0  0  0  0
   18.0729   15.0748  108.2846 C   0  0  1  0  0  0
   18.1366   14.4380  109.7122 C   0  0  0  0  0  0
   18.9505   15.0321  110.6923 C   0  0  0  0  0  0
   19.0118   14.5190  111.9857 C   0  0  0  0  0  0
   18.2604   13.3946  112.3163 C   0  0  0  0  0  0
   17.4592   12.7778  111.3624 C   0  0  0  0  0  0
   17.3988   13.2930  110.0716 C   0  0  0  0  0  0
   17.4885   16.8067  108.5594 S   0  0  0  0  0  0
   15.8555   16.6329  109.3571 C   0  0  0  0  0  0
   15.7902   17.0664  110.8277 C   0  0  0  0  0  0
   17.0915   14.2631  107.3434 C   0  0  0  0  0  0
   16.7770   14.6658  105.8883 C   0  0  0  0  0  0
   16.9480   15.9544  105.3655 C   0  0  0  0  0  0
   16.6207   16.2373  104.0416 C   0  0  0  0  0  0
   16.1121   15.2300  103.2270 C   0  0  0  0  0  0
   15.9152   13.9488  103.7342 C   0  0  0  0  0  0
   16.2381   13.6734  105.0607 C   0  0  0  0  0  0
   16.0278   18.4918  110.9589 N   0  0  0  0  0  0
   19.9291   16.0586  106.7407 C   0  0  0  0  0  0
   21.1196   15.9208  106.0251 C   0  0  0  0  0  0
   21.5182   13.8061  107.0882 C   0  0  0  0  0  0
   20.3453   13.9620  107.8307 C   0  0  0  0  0  0
   21.8932   14.7734  106.1591 C   0  0  0  0  0  0
   21.6345   17.1618  104.9536 Cl  0  0  0  0  0  0
   18.3174   12.7621  113.9182 Cl  0  0  0  0  0  0
   19.5250   15.9141  110.4519 H   0  0  0  0  0  0
   19.6352   14.9975  112.7279 H   0  0  0  0  0  0
   16.8808   11.9014  111.6198 H   0  0  0  0  0  0
   16.7655   12.7699  109.3732 H   0  0  0  0  0  0
   15.1348   17.1973  108.7646 H   0  0  0  0  0  0
   15.5282   15.5970  109.3072 H   0  0  0  0  0  0
   14.8094   16.8319  111.2440 H   0  0  0  0  0  0
   16.5261   16.5183  111.4159 H   0  0  0  0  0  0
   17.4874   13.2467  107.2816 H   0  0  0  0  0  0
   16.1134   14.1627  107.8079 H   0  0  0  0  0  0
   17.3185   16.7617  105.9625 H   0  0  0  0  0  0
   16.7527   17.2361  103.6526 H   0  0  0  0  0  0
   15.8568   15.4467  102.2005 H   0  0  0  0  0  0
   15.5089   13.1700  103.1055 H   0  0  0  0  0  0
   16.0854   12.6725  105.4394 H   0  0  0  0  0  0
   15.3255   19.0228  110.4627 H   0  0  0  0  0  0
   15.9624   18.7623  111.9349 H   0  0  0  0  0  0
   19.3525   16.9544  106.5825 H   0  0  0  0  0  0
   22.1297   12.9265  107.2263 H   0  0  0  0  0  0
   20.0680   13.1748  108.5173 H   0  0  0  0  0  0
   22.7992   14.6522  105.5843 H   0  0  0  0  0  0
  1 20  2  0  0  0
  1  2  1  0  0  0
  1 23  1  0  0  0
  2  9  1  0  0  0
  2  3  1  0  0  0
  2 12  1  0  0  0
  3  4  2  0  0  0
  3  8  1  0  0  0
  4  5  1  0  0  0
  4 27  1  0  0  0
  5  6  2  0  0  0
  5 28  1  0  0  0
  6  7  1  0  0  0
  6 26  1  0  0  0
  7  8  2  0  0  0
  7 29  1  0  0  0
  8 30  1  0  0  0
  9 10  1  0  0  0
 10 11  1  0  0  0
 10 31  1  0  0  0
 10 32  1  0  0  0
 11 19  1  0  0  0
 11 33  1  0  0  0
 11 34  1  0  0  0
 12 13  1  0  0  0
 12 35  1  0  0  0
 12 36  1  0  0  0
 13 14  2  0  0  0
 13 18  1  0  0  0
 14 15  1  0  0  0
 14 37  1  0  0  0
 15 16  2  0  0  0
 15 38  1  0  0  0
 16 17  1  0  0  0
 16 39  1  0  0  0
 17 18  2  0  0  0
 17 40  1  0  0  0
 18 41  1  0  0  0
 19 42  1  0  0  0
 19 43  1  0  0  0
 20 21  1  0  0  0
 20 44  1  0  0  0
 21 24  2  0  0  0
 21 25  1  0  0  0
 22 24  1  0  0  0
 22 23  2  0  0  0
 22 45  1  0  0  0
 23 46  1  0  0  0
 24 47  1  0  0  0
M  END
> <s_m_entry_id>
500

> <s_m_entry_name>
dock_pv.499

> <s_m_Source_Path>
/home/csk/Desktop/cluster/DUD-E-result/kif11

> <s_m_Source_File>
dock_pv.maegz

> <i_m_Source_File_Index>
499

> <chembl_id>
CHEMBL2043416

> <chembl_pref_name>
None

> <i_lp_mmshare_version>
53161

> <i_f3d_flags>
0

> <r_lp_tautomer_probability>
1

> <s_lp_Force_Field>
OPLS_2005

> <r_lp_Energy>
23.685463

> <b_lp_Chiralities_Consistent>
1

> <s_lp_Variant>
CHEMBL4581_lig586-1

> <s_i_glide_gridfile>
glide-grid_3cjo

> <i_i_glide_lignum>
899

> <i_i_glide_rotatable_bonds>
7

> <r_i_docking_score>
-7.05574897234565

> <r_i_glide_ligand_efficiency>
-0.271374960474833

> <r_i_glide_ligand_efficiency_sa>
-0.803947252597785

> <r_i_glide_ligand_efficiency_ln>
-1.65701949435465

> <r_i_glide_gscore>
-7.05574897234565

> <r_i_glide_lipo>
-4.49375486226097

> <r_i_glide_hbond>
-0.32

> <r_i_glide_metal>
0

> <r_i_glide_rewards>
-0.711985663532246

> <r_i_glide_evdw>
-43.645866394043

> <r_i_glide_ecoul>
-0.499370217323303

> <r_i_glide_erotb>
0.727190405748205

> <r_i_glide_esite>
0

> <r_i_glide_emodel>
-61.2111670181705

> <r_i_glide_energy>
-44.1452366113663

> <r_i_glide_einternal>
5.73690843582153

> <i_i_glide_confnum>
33

> <i_i_glide_posenum>
196

> <r_i_glide_eff_state_penalty>
0

> <s_user_duplicate_titles>
CHEMBL4581_lig586

> <s_m_subgroup_title>
dock_pv

> <s_m_subgroupid>
dock_pv

> <b_m_subgroup_collapsed>
1

$$$$
CHEMBL4581_lig886
                    3D
 Schrodinger Suite 2021-1.
 50 52  0  0  1  0            999 V2000
   18.0254   15.0279  109.2512 C   0  0  0  0  0  0
   19.3127   14.7934  108.3881 C   0  0  0  0  0  0
   16.7448   14.5305  108.4877 C   0  0  0  0  0  0
   19.5391   15.5741  107.2384 C   0  0  0  0  0  0
   20.6243   15.3399  106.4022 C   0  0  0  0  0  0
   21.5181   14.3178  106.7041 C   0  0  0  0  0  0
   21.3490   13.5620  107.8664 C   0  0  0  0  0  0
   20.2603   13.8041  108.7032 C   0  0  0  0  0  0
   15.4958   14.5295  109.1322 C   0  0  0  0  0  0
   14.3409   14.1075  108.4826 C   0  0  0  0  0  0
   14.4115   13.6460  107.1717 C   0  0  0  0  0  0
   15.6405   13.5935  106.5197 C   0  0  0  0  0  0
   16.7922   14.0260  107.1729 C   0  0  0  0  0  0
   18.1731   14.3577  110.6612 C   0  0  0  0  0  0
   17.5158   13.1521  110.9782 C   0  0  0  0  0  0
   17.6213   12.5831  112.2446 C   0  0  0  0  0  0
   18.4152   13.1932  113.2095 C   0  0  0  0  0  0
   19.1095   14.3618  112.9120 C   0  0  0  0  0  0
   18.9887   14.9398  111.6481 C   0  0  0  0  0  0
   17.8874   16.8800  109.4536 S   0  0  0  0  0  0
   16.4800   17.2663  110.5469 C   0  0  0  0  0  0
   16.3370   18.7535  110.9156 C   0  0  0  0  0  0
   15.9186   19.5246  109.7553 N   0  0  0  0  0  0
   13.1574   13.1594  106.4713 C   0  0  0  0  0  0
   22.6663   14.0126  105.7636 C   0  0  0  0  0  0
   18.8427   16.3489  106.9535 H   0  0  0  0  0  0
   20.7503   15.9348  105.5099 H   0  0  0  0  0  0
   22.0439   12.7709  108.1066 H   0  0  0  0  0  0
   20.1419   13.1728  109.5714 H   0  0  0  0  0  0
   15.4140   14.8336  110.1626 H   0  0  0  0  0  0
   13.3951   14.1252  109.0030 H   0  0  0  0  0  0
   15.7136   13.2067  105.5142 H   0  0  0  0  0  0
   17.7118   13.9367  106.6192 H   0  0  0  0  0  0
   16.9199   12.6287  110.2444 H   0  0  0  0  0  0
   17.0936   11.6676  112.4691 H   0  0  0  0  0  0
   18.5046   12.7482  114.1922 H   0  0  0  0  0  0
   19.7423   14.8190  113.6601 H   0  0  0  0  0  0
   19.5387   15.8457  111.4370 H   0  0  0  0  0  0
   15.5544   16.9642  110.0602 H   0  0  0  0  0  0
   16.5708   16.6669  111.4525 H   0  0  0  0  0  0
   15.5839   18.8716  111.6949 H   0  0  0  0  0  0
   17.2713   19.1556  111.3115 H   0  0  0  0  0  0
   15.8738   20.5071  109.9925 H   0  0  0  0  0  0
   16.6154   19.4323  109.0301 H   0  0  0  0  0  0
   13.3874   12.3477  105.7771 H   0  0  0  0  0  0
   12.4386   12.7621  107.1896 H   0  0  0  0  0  0
   12.6862   13.9715  105.9158 H   0  0  0  0  0  0
   23.6150   14.3519  106.1812 H   0  0  0  0  0  0
   22.7185   12.9359  105.6049 H   0  0  0  0  0  0
   22.5240   14.4706  104.7843 H   0  0  0  0  0  0
  1  2  1  0  0  0
  1  3  1  0  0  0
  1 14  1  0  0  0
  1 20  1  0  0  0
  2  4  2  0  0  0
  2  8  1  0  0  0
  3  9  2  0  0  0
  3 13  1  0  0  0
  4  5  1  0  0  0
  4 26  1  0  0  0
  5  6  2  0  0  0
  5 27  1  0  0  0
  6  7  1  0  0  0
  6 25  1  0  0  0
  7  8  2  0  0  0
  7 28  1  0  0  0
  8 29  1  0  0  0
  9 10  1  0  0  0
  9 30  1  0  0  0
 10 11  2  0  0  0
 10 31  1  0  0  0
 11 12  1  0  0  0
 11 24  1  0  0  0
 12 13  2  0  0  0
 12 32  1  0  0  0
 13 33  1  0  0  0
 14 15  2  0  0  0
 14 19  1  0  0  0
 15 16  1  0  0  0
 15 34  1  0  0  0
 16 17  2  0  0  0
 16 35  1  0  0  0
 17 18  1  0  0  0
 17 36  1  0  0  0
 18 19  2  0  0  0
 18 37  1  0  0  0
 19 38  1  0  0  0
 20 21  1  0  0  0
 21 22  1  0  0  0
 21 39  1  0  0  0
 21 40  1  0  0  0
 22 23  1  0  0  0
 22 41  1  0  0  0
 22 42  1  0  0  0
 23 43  1  0  0  0
 23 44  1  0  0  0
 24 45  1  0  0  0
 24 46  1  0  0  0
 24 47  1  0  0  0
 25 48  1  0  0  0
 25 49  1  0  0  0
 25 50  1  0  0  0
M  END
> <s_m_entry_id>
501

> <s_m_entry_name>
dock_pv.500

> <s_m_Source_Path>
/home/csk/Desktop/cluster/DUD-E-result/kif11

> <s_m_Source_File>
dock_pv.maegz

> <i_m_Source_File_Index>
500

> <chembl_id>
CHEMBL2325419

> <chembl_pref_name>
None

> <i_lp_mmshare_version>
53161

> <i_f3d_flags>
0

> <r_lp_tautomer_probability>
1

> <s_lp_Force_Field>
OPLS_2005

> <r_lp_Energy>
24.087145

> <b_lp_Chiralities_Consistent>
1

> <s_lp_Variant>
CHEMBL4581_lig886-1

> <s_i_glide_gridfile>
glide-grid_3cjo

> <i_i_glide_lignum>
1278

> <i_i_glide_rotatable_bonds>
6

> <r_i_docking_score>
-7.05565116071651

> <r_i_glide_ligand_efficiency>
-0.28222604642866

> <r_i_glide_ligand_efficiency_sa>
-0.825233965057649

> <r_i_glide_ligand_efficiency_ln>
-1.67240076589287

> <r_i_glide_gscore>
-7.05565116071651

> <r_i_glide_lipo>
-4.61286827622073

> <r_i_glide_hbond>
0

> <r_i_glide_metal>
0

> <r_i_glide_rewards>
-1.10501176397132

> <r_i_glide_evdw>
-42.4823570251465

> <r_i_glide_ecoul>
-0.00888860784471035

> <r_i_glide_erotb>
0.787680021909562

> <r_i_glide_esite>
0

> <r_i_glide_emodel>
-57.7221648514162

> <r_i_glide_energy>
-42.4912456329912

> <r_i_glide_einternal>
5.040771484375

> <i_i_glide_confnum>
42

> <i_i_glide_posenum>
59

> <r_i_glide_eff_state_penalty>
0

> <s_user_duplicate_titles>
CHEMBL4581_lig886

> <s_m_subgroup_title>
dock_pv

> <s_m_subgroupid>
dock_pv

> <b_m_subgroup_collapsed>
1

$$$$
CHEMBL4581_lig582
                    3D
 Schrodinger Suite 2021-1.
 58 61  0  0  1  0            999 V2000
   15.2310   17.4495  101.4523 C   0  0  0  0  0  0
   14.3765   16.7951  100.5509 C   0  0  0  0  0  0
   14.0183   15.4688  100.7921 C   0  0  0  0  0  0
   14.4817   14.8001  101.9213 C   0  0  0  0  0  0
   15.3213   15.4616  102.8295 C   0  0  0  0  0  0
   15.7014   16.7827  102.5807 C   0  0  0  0  0  0
   15.8449   14.8789  103.9980 N   0  0  0  0  0  0
   15.5520   13.7110  104.6051 C   0  0  0  0  0  0
   16.3543   13.3349  105.8713 C   0  0  0  0  0  0
   14.7041   12.9152  104.2035 O   0  0  0  0  0  0
   16.9587   14.4654  106.7903 C   0  0  2  0  0  0
   18.1249   15.2026  106.1585 C   0  0  0  0  0  0
   19.2056   14.8184  106.8628 N   0  0  0  0  0  0
   18.9477   14.1092  108.0132 C   0  0  0  0  0  0
   17.5853   13.9263  107.9926 N   0  0  0  0  0  0
   18.0599   15.9650  105.1909 O   0  0  0  0  0  0
   20.0490   13.5621  109.1537 S   0  0  0  0  0  0
   20.5114   15.2080  106.4440 C   0  0  0  0  0  0
   20.8453   16.5615  106.3353 C   0  0  0  0  0  0
   22.1416   16.9278  105.9950 C   0  0  0  0  0  0
   23.1021   15.9531  105.7571 C   0  0  0  0  0  0
   22.7738   14.6066  105.7990 C   0  0  0  0  0  0
   21.4856   14.2399  106.1592 C   0  0  0  0  0  0
   16.7426   13.2644  109.0110 C   0  0  0  0  0  0
   16.1977   14.2095  110.1062 C   0  0  0  0  0  0
   17.3032   14.7399  110.9961 C   0  0  0  0  0  0
   17.9180   13.7508  112.3019 S   0  0  0  0  0  0
   19.1999   14.8562  112.5931 C   0  0  0  0  0  0
   19.1181   15.9564  111.7590 C   0  0  0  0  0  0
   18.0058   15.9528  110.9076 C   0  0  0  0  0  0
   13.8452   17.3735   99.4139 O   0  0  0  0  0  0
   14.0604   18.7607   99.1789 C   0  0  0  0  0  0
   17.7380   17.0490  109.8975 C   0  0  0  0  0  0
   15.5323   18.4745  101.2976 H   0  0  0  0  0  0
   13.3623   14.9582  100.1020 H   0  0  0  0  0  0
   14.1760   13.7756  102.0650 H   0  0  0  0  0  0
   16.3523   17.3076  103.2660 H   0  0  0  0  0  0
   16.5800   15.4190  104.4416 H   0  0  0  0  0  0
   15.6613   12.7390  106.4634 H   0  0  0  0  0  0
   17.1179   12.6246  105.5648 H   0  0  0  0  0  0
   16.1922   15.1895  107.0725 H   0  0  0  0  0  0
   20.1085   17.3246  106.5425 H   0  0  0  0  0  0
   22.4183   17.9620  105.9468 H   0  0  0  0  0  0
   24.1140   16.2431  105.5333 H   0  0  0  0  0  0
   23.5181   13.8538  105.5898 H   0  0  0  0  0  0
   21.2480   13.1888  106.2237 H   0  0  0  0  0  0
   15.9004   12.7661  108.5359 H   0  0  0  0  0  0
   17.3058   12.4515  109.4731 H   0  0  0  0  0  0
   15.6121   15.0123  109.6568 H   0  0  0  0  0  0
   15.4860   13.6438  110.7068 H   0  0  0  0  0  0
   19.9443   14.6485  113.3485 H   0  0  0  0  0  0
   19.8330   16.7654  111.7822 H   0  0  0  0  0  0
   13.5212   19.0647   98.2812 H   0  0  0  0  0  0
   15.1174   18.9737   99.0161 H   0  0  0  0  0  0
   13.6921   19.3714  100.0070 H   0  0  0  0  0  0
   18.6602   17.5355  109.5756 H   0  0  0  0  0  0
   17.2721   16.6735  108.9868 H   0  0  0  0  0  0
   17.0894   17.8248  110.3061 H   0  0  0  0  0  0
  1  6  1  0  0  0
  1  2  2  0  0  0
  1 34  1  0  0  0
  2  3  1  0  0  0
  2 31  1  0  0  0
  3  4  2  0  0  0
  3 35  1  0  0  0
  4  5  1  0  0  0
  4 36  1  0  0  0
  5  6  2  0  0  0
  5  7  1  0  0  0
  6 37  1  0  0  0
  7  8  1  0  0  0
  7 38  1  0  0  0
  8  9  1  0  0  0
  8 10  2  0  0  0
  9 11  1  0  0  0
  9 39  1  0  0  0
  9 40  1  0  0  0
 11 12  1  0  0  0
 11 15  1  0  0  0
 11 41  1  0  0  0
 12 16  2  0  0  0
 12 13  1  0  0  0
 13 18  1  0  0  0
 13 14  1  0  0  0
 14 17  2  0  0  0
 14 15  1  0  0  0
 15 24  1  0  0  0
 18 19  2  0  0  0
 18 23  1  0  0  0
 19 20  1  0  0  0
 19 42  1  0  0  0
 20 21  2  0  0  0
 20 43  1  0  0  0
 21 22  1  0  0  0
 21 44  1  0  0  0
 22 23  2  0  0  0
 22 45  1  0  0  0
 23 46  1  0  0  0
 24 25  1  0  0  0
 24 47  1  0  0  0
 24 48  1  0  0  0
 25 26  1  0  0  0
 25 49  1  0  0  0
 25 50  1  0  0  0
 26 27  1  0  0  0
 26 30  2  0  0  0
 27 28  1  0  0  0
 28 29  2  0  0  0
 28 51  1  0  0  0
 29 30  1  0  0  0
 29 52  1  0  0  0
 30 33  1  0  0  0
 31 32  1  0  0  0
 32 53  1  0  0  0
 32 54  1  0  0  0
 32 55  1  0  0  0
 33 56  1  0  0  0
 33 57  1  0  0  0
 33 58  1  0  0  0
M  END
> <s_m_entry_id>
502

> <s_m_entry_name>
dock_pv.501

> <s_m_Source_Path>
/home/csk/Desktop/cluster/DUD-E-result/kif11

> <s_m_Source_File>
dock_pv.maegz

> <i_m_Source_File_Index>
501

> <chembl_id>
CHEMBL2031571

> <chembl_pref_name>
None

> <i_lp_mmshare_version>
53161

> <i_f3d_flags>
0

> <r_lp_tautomer_probability>
1

> <s_lp_Force_Field>
OPLS_2005

> <r_lp_Energy>
49.81636

> <b_lp_Chiralities_Consistent>
1

> <s_lp_Variant>
CHEMBL4581_lig582-1

> <s_i_glide_gridfile>
glide-grid_3cjo

> <i_i_glide_lignum>
894

> <i_i_glide_rotatable_bonds>
9

> <r_i_docking_score>
-7.05271556249808

> <r_i_glide_ligand_efficiency>
-0.213718653409033

> <r_i_glide_ligand_efficiency_sa>
-0.685509916970989

> <r_i_glide_ligand_efficiency_ln>
-1.56848742409274

> <r_i_glide_gscore>
-7.05271556249808

> <r_i_glide_lipo>
-3.83874913781074

> <r_i_glide_hbond>
0

> <r_i_glide_metal>
0

> <r_i_glide_rewards>
-1.18924795309431

> <r_i_glide_evdw>
-47.7701950073242

> <r_i_glide_ecoul>
-1.94514381885529

> <r_i_glide_erotb>
0.705052645906559

> <r_i_glide_esite>
-0.0494897943050837

> <r_i_glide_emodel>
-68.2143002767584

> <r_i_glide_energy>
-49.7153388261795

> <r_i_glide_einternal>
9.46383762359619

> <i_i_glide_confnum>
6

> <i_i_glide_posenum>
359

> <r_i_glide_eff_state_penalty>
0

> <s_user_duplicate_titles>
CHEMBL4581_lig582

> <s_m_subgroup_title>
dock_pv

> <s_m_subgroupid>
dock_pv

> <b_m_subgroup_collapsed>
1

$$$$
CHEMBL4581_lig594
                    3D
 Schrodinger Suite 2021-1.
 47 49  0  0  1  0            999 V2000
   18.4232   14.6158  108.6040 C   0  0  0  0  0  0
   17.2491   14.2210  109.5553 C   0  0  1  0  0  0
   17.7283   13.7618  110.9718 C   0  0  0  0  0  0
   18.7597   14.4587  111.6276 C   0  0  0  0  0  0
   19.1277   14.1457  112.9332 C   0  0  0  0  0  0
   18.5004   13.0985  113.5950 C   0  0  0  0  0  0
   17.5125   12.3633  112.9544 C   0  0  0  0  0  0
   17.1290   12.6876  111.6552 C   0  0  0  0  0  0
   16.0583   15.6115  109.8526 S   0  0  0  0  0  0
   16.8820   16.9240  110.8203 C   0  0  0  0  0  0
   18.0192   17.7087  110.1487 C   0  0  0  0  0  0
   16.4392   13.0939  108.8186 C   0  0  0  0  0  0
   15.8090   13.4423  107.4627 C   0  0  0  0  0  0
   14.5117   13.9633  107.4029 C   0  0  0  0  0  0
   13.9225   14.2394  106.1722 C   0  0  0  0  0  0
   14.6307   13.9878  104.9992 C   0  0  0  0  0  0
   15.9166   13.4583  105.0478 C   0  0  0  0  0  0
   16.5042   13.1818  106.2783 C   0  0  0  0  0  0
   17.5175   18.3704  108.9606 N   0  0  0  0  0  0
   18.2461   15.5673  107.5861 C   0  0  0  0  0  0
   19.2850   15.8999  106.7215 C   0  0  0  0  0  0
   20.7085   14.2968  107.8247 C   0  0  0  0  0  0
   19.6668   13.9671  108.6917 C   0  0  0  0  0  0
   20.5153   15.2652  106.8441 C   0  0  0  0  0  0
   21.7995   15.6692  105.7608 Cl  0  0  0  0  0  0
   19.2632   15.2791  111.1409 H   0  0  0  0  0  0
   19.9036   14.7115  113.4273 H   0  0  0  0  0  0
   18.7824   12.8526  114.6081 H   0  0  0  0  0  0
   17.0122   11.5606  113.4732 H   0  0  0  0  0  0
   16.3357   12.0943  111.2294 H   0  0  0  0  0  0
   16.1031   17.6294  111.1179 H   0  0  0  0  0  0
   17.2241   16.4969  111.7587 H   0  0  0  0  0  0
   18.4176   18.4618  110.8306 H   0  0  0  0  0  0
   18.8497   17.0556  109.8822 H   0  0  0  0  0  0
   17.0668   12.2094  108.6940 H   0  0  0  0  0  0
   15.6030   12.7618  109.4300 H   0  0  0  0  0  0
   13.9587   14.1510  108.3117 H   0  0  0  0  0  0
   12.9218   14.6429  106.1276 H   0  0  0  0  0  0
   14.1753   14.2000  104.0428 H   0  0  0  0  0  0
   16.4619   13.2574  104.1368 H   0  0  0  0  0  0
   17.5007   12.7634  106.3064 H   0  0  0  0  0  0
   18.2905   18.7596  108.4325 H   0  0  0  0  0  0
   17.0656   17.6937  108.3633 H   0  0  0  0  0  0
   17.2878   16.0393  107.4372 H   0  0  0  0  0  0
   19.1300   16.6376  105.9487 H   0  0  0  0  0  0
   21.6557   13.7835  107.9015 H   0  0  0  0  0  0
   19.8292   13.1901  109.4240 H   0  0  0  0  0  0
  1 20  2  0  0  0
  1  2  1  0  0  0
  1 23  1  0  0  0
  2  9  1  0  0  0
  2  3  1  0  0  0
  2 12  1  0  0  0
  3  4  2  0  0  0
  3  8  1  0  0  0
  4  5  1  0  0  0
  4 26  1  0  0  0
  5  6  2  0  0  0
  5 27  1  0  0  0
  6  7  1  0  0  0
  6 28  1  0  0  0
  7  8  2  0  0  0
  7 29  1  0  0  0
  8 30  1  0  0  0
  9 10  1  0  0  0
 10 11  1  0  0  0
 10 31  1  0  0  0
 10 32  1  0  0  0
 11 19  1  0  0  0
 11 33  1  0  0  0
 11 34  1  0  0  0
 12 13  1  0  0  0
 12 35  1  0  0  0
 12 36  1  0  0  0
 13 14  2  0  0  0
 13 18  1  0  0  0
 14 15  1  0  0  0
 14 37  1  0  0  0
 15 16  2  0  0  0
 15 38  1  0  0  0
 16 17  1  0  0  0
 16 39  1  0  0  0
 17 18  2  0  0  0
 17 40  1  0  0  0
 18 41  1  0  0  0
 19 42  1  0  0  0
 19 43  1  0  0  0
 20 21  1  0  0  0
 20 44  1  0  0  0
 21 24  2  0  0  0
 21 45  1  0  0  0
 22 24  1  0  0  0
 22 23  2  0  0  0
 22 46  1  0  0  0
 23 47  1  0  0  0
 24 25  1  0  0  0
M  END
> <s_m_entry_id>
503

> <s_m_entry_name>
dock_pv.502

> <s_m_Source_Path>
/home/csk/Desktop/cluster/DUD-E-result/kif11

> <s_m_Source_File>
dock_pv.maegz

> <i_m_Source_File_Index>
502

> <chembl_id>
CHEMBL2043408

> <chembl_pref_name>
None

> <i_lp_mmshare_version>
53161

> <i_f3d_flags>
0

> <r_lp_tautomer_probability>
1

> <s_lp_Force_Field>
OPLS_2005

> <r_lp_Energy>
23.896295

> <b_lp_Chiralities_Consistent>
1

> <s_lp_Variant>
CHEMBL4581_lig594-1

> <s_i_glide_gridfile>
glide-grid_3cjo

> <i_i_glide_lignum>
912

> <i_i_glide_rotatable_bonds>
7

> <r_i_docking_score>
-7.04844266525933

> <r_i_glide_ligand_efficiency>
-0.281937706610373

> <r_i_glide_ligand_efficiency_sa>
-0.824390854315249

> <r_i_glide_ligand_efficiency_ln>
-1.67069213644834

> <r_i_glide_gscore>
-7.04844266525933

> <r_i_glide_lipo>
-4.31853357638934

> <r_i_glide_hbond>
-0.236508901951833

> <r_i_glide_metal>
0

> <r_i_glide_rewards>
-1.00877324242424

> <r_i_glide_evdw>
-42.9187164306641

> <r_i_glide_ecoul>
-1.28332054615021

> <r_i_glide_erotb>
0.853806958961816

> <r_i_glide_esite>
0

> <r_i_glide_emodel>
-62.8818686889712

> <r_i_glide_energy>
-44.2020369768143

> <r_i_glide_einternal>
1.33798718452454

> <i_i_glide_confnum>
46

> <i_i_glide_posenum>
106

> <r_i_glide_eff_state_penalty>
0

> <s_user_duplicate_titles>
CHEMBL4581_lig594

> <s_m_subgroup_title>
dock_pv

> <s_m_subgroupid>
dock_pv

> <b_m_subgroup_collapsed>
1

$$$$
CHEMBL4581_lig652
                    3D
 Schrodinger Suite 2021-1.
 29 30  0  0  1  0            999 V2000
   19.9206   15.2880  107.5787 C   0  0  0  0  0  0
   20.2115   16.2708  106.6309 C   0  0  0  0  0  0
   21.2858   16.1078  105.7599 C   0  0  0  0  0  0
   22.0544   14.9479  105.8305 C   0  0  0  0  0  0
   21.7731   13.9618  106.7725 C   0  0  0  0  0  0
   20.7176   14.1409  107.6616 C   0  0  0  0  0  0
   18.8317   15.4888  108.4371 N   0  0  0  0  0  0
   23.1179   14.7641  104.9575 N   0  0  0  0  0  0
   18.2721   14.5713  109.3315 C   0  0  0  0  0  0
   18.6600   14.5733  110.6719 C   0  0  0  0  0  0
   18.0936   13.6619  111.5750 C   0  0  0  0  0  0
   17.1280   12.7564  111.1159 C   0  0  0  0  0  0
   16.7339   12.7628  109.7781 C   0  0  0  0  0  0
   17.3097   13.6652  108.8849 C   0  0  0  0  0  0
   18.5054   13.6491  113.0441 C   0  0  0  0  0  0
   18.7178   12.4019  113.4630 F   0  0  0  0  0  0
   17.5181   14.1775  113.7592 F   0  0  0  0  0  0
   19.6092   14.3622  113.2722 F   0  0  0  0  0  0
   19.6084   17.1646  106.5688 H   0  0  0  0  0  0
   21.5087   16.8740  105.0321 H   0  0  0  0  0  0
   22.3720   13.0645  106.8273 H   0  0  0  0  0  0
   20.5106   13.3774  108.3975 H   0  0  0  0  0  0
   18.3354   16.3612  108.3319 H   0  0  0  0  0  0
   23.3897   13.8014  104.8198 H   0  0  0  0  0  0
   23.1515   15.3776  104.1570 H   0  0  0  0  0  0
   19.4036   15.2843  111.0046 H   0  0  0  0  0  0
   16.6795   12.0430  111.7942 H   0  0  0  0  0  0
   15.9906   12.0617  109.4314 H   0  0  0  0  0  0
   17.0081   13.6596  107.8476 H   0  0  0  0  0  0
  1  2  1  0  0  0
  1  6  2  0  0  0
  1  7  1  0  0  0
  2  3  2  0  0  0
  2 19  1  0  0  0
  3  4  1  0  0  0
  3 20  1  0  0  0
  4  5  2  0  0  0
  4  8  1  0  0  0
  5  6  1  0  0  0
  5 21  1  0  0  0
  6 22  1  0  0  0
  7  9  1  0  0  0
  7 23  1  0  0  0
  8 24  1  0  0  0
  8 25  1  0  0  0
  9 10  1  0  0  0
  9 14  2  0  0  0
 10 11  2  0  0  0
 10 26  1  0  0  0
 11 12  1  0  0  0
 11 15  1  0  0  0
 12 13  2  0  0  0
 12 27  1  0  0  0
 13 14  1  0  0  0
 13 28  1  0  0  0
 14 29  1  0  0  0
 15 16  1  0  0  0
 15 17  1  0  0  0
 15 18  1  0  0  0
M  END
> <s_m_entry_id>
504

> <s_m_entry_name>
dock_pv.503

> <s_m_Source_Path>
/home/csk/Desktop/cluster/DUD-E-result/kif11

> <s_m_Source_File>
dock_pv.maegz

> <i_m_Source_File_Index>
503

> <chembl_id>
CHEMBL3288971

> <chembl_pref_name>
None

> <i_lp_mmshare_version>
53161

> <i_f3d_flags>
0

> <r_lp_tautomer_probability>
1

> <s_lp_Force_Field>
OPLS_2005

> <r_lp_Energy>
15.081345

> <b_lp_Chiralities_Consistent>
1

> <s_lp_Variant>
CHEMBL4581_lig652-1

> <s_i_glide_gridfile>
glide-grid_3cjo

> <i_i_glide_lignum>
990

> <i_i_glide_rotatable_bonds>
3

> <r_i_docking_score>
-7.04658339195213

> <r_i_glide_ligand_efficiency>
-0.391476855108452

> <r_i_glide_ligand_efficiency_sa>
-1.02595959806897

> <r_i_glide_ligand_efficiency_ln>
-1.81128792580038

> <r_i_glide_gscore>
-7.04658339195213

> <r_i_glide_lipo>
-3.24966967679453

> <r_i_glide_hbond>
0

> <r_i_glide_metal>
0

> <r_i_glide_rewards>
-2.49776376436701

> <r_i_glide_evdw>
-31.8671474456787

> <r_i_glide_ecoul>
-1.7153902053833

> <r_i_glide_erotb>
0.551515952300833

> <r_i_glide_esite>
0

> <r_i_glide_emodel>
-42.7589583833436

> <r_i_glide_energy>
-33.582537651062

> <r_i_glide_einternal>
8.63671588897705

> <i_i_glide_confnum>
6

> <i_i_glide_posenum>
391

> <r_i_glide_eff_state_penalty>
0

> <s_user_duplicate_titles>
CHEMBL4581_lig652

> <s_m_subgroup_title>
dock_pv

> <s_m_subgroupid>
dock_pv

> <b_m_subgroup_collapsed>
1

$$$$
CHEMBL4581_lig202
                    3D
 Schrodinger Suite 2021-1.
 41 42  0  0  1  0            999 V2000
   15.1048   16.0034  105.7138 C   0  0  0  0  0  0
   16.1653   16.3614  106.5435 C   0  0  0  0  0  0
   17.0074   15.3856  107.0936 C   0  0  0  0  0  0
   16.7380   14.0335  106.8268 C   0  0  0  0  0  0
   15.6645   13.6748  106.0076 C   0  0  0  0  0  0
   14.8597   14.6598  105.4409 C   0  0  0  0  0  0
   18.1653   15.8089  108.0185 C   0  0  1  0  0  0
   17.8692   15.5242  109.4694 N   0  0  0  0  0  0
   18.1763   14.2694  109.9828 C   0  0  0  0  0  0
   19.3880   13.7991  109.5793 N   0  0  0  0  0  0
   20.0332   14.1534  108.4346 C   0  0  0  0  0  0
   19.5378   15.1582  107.6543 C   0  0  0  0  0  0
   17.1189   13.1673  110.6636 S   0  0  0  0  0  0
   20.1757   15.6781  106.4199 C   0  0  0  0  0  0
   19.5625   16.3622  105.5958 O   0  0  0  0  0  0
   15.3727   12.3619  105.7587 O   0  0  0  0  0  0
   21.2616   13.2741  108.1986 C   0  0  0  0  0  0
   21.4982   15.4077  106.3159 O   0  0  0  0  0  0
   22.3069   15.9579  105.2863 C   0  0  0  0  0  0
   22.8704   17.2966  105.7588 C   0  0  0  0  0  0
   17.2800   16.5037  110.2401 C   0  0  0  0  0  0
   16.7364   16.3125  111.3318 O   0  0  0  0  0  0
   17.3051   17.9619  109.7638 C   0  0  0  0  0  0
   14.4690   16.7663  105.2880 H   0  0  0  0  0  0
   16.3178   17.4088  106.7537 H   0  0  0  0  0  0
   17.3618   13.2619  107.2535 H   0  0  0  0  0  0
   14.0312   14.3811  104.8058 H   0  0  0  0  0  0
   18.2712   16.8658  107.7735 H   0  0  0  0  0  0
   19.6200   12.9285  110.0350 H   0  0  0  0  0  0
   15.6989   11.7386  106.4241 H   0  0  0  0  0  0
   22.1048   13.5624  108.8249 H   0  0  0  0  0  0
   21.0187   12.2514  108.4582 H   0  0  0  0  0  0
   21.5875   13.2226  107.1628 H   0  0  0  0  0  0
   23.1233   15.2670  105.0721 H   0  0  0  0  0  0
   21.7504   16.0829  104.3571 H   0  0  0  0  0  0
   23.3805   17.8259  104.9584 H   0  0  0  0  0  0
   22.0828   17.9491  106.1399 H   0  0  0  0  0  0
   23.5928   17.1525  106.5534 H   0  0  0  0  0  0
   18.2996   18.2598  109.4325 H   0  0  0  0  0  0
   17.0290   18.6293  110.5820 H   0  0  0  0  0  0
   16.5921   18.1190  108.9562 H   0  0  0  0  0  0
  1  6  1  0  0  0
  1  2  2  0  0  0
  1 24  1  0  0  0
  2  3  1  0  0  0
  2 25  1  0  0  0
  3  7  1  0  0  0
  3  4  2  0  0  0
  4  5  1  0  0  0
  4 26  1  0  0  0
  5 16  1  0  0  0
  5  6  2  0  0  0
  6 27  1  0  0  0
  7 12  1  0  0  0
  7  8  1  0  0  0
  7 28  1  0  0  0
  8  9  1  0  0  0
  8 21  1  0  0  0
  9 13  2  0  0  0
  9 10  1  0  0  0
 10 11  1  0  0  0
 10 29  1  0  0  0
 11 12  2  0  0  0
 11 17  1  0  0  0
 12 14  1  0  0  0
 14 15  2  0  0  0
 14 18  1  0  0  0
 16 30  1  0  0  0
 17 31  1  0  0  0
 17 32  1  0  0  0
 17 33  1  0  0  0
 18 19  1  0  0  0
 19 20  1  0  0  0
 19 34  1  0  0  0
 19 35  1  0  0  0
 20 36  1  0  0  0
 20 37  1  0  0  0
 20 38  1  0  0  0
 21 22  2  0  0  0
 21 23  1  0  0  0
 23 39  1  0  0  0
 23 40  1  0  0  0
 23 41  1  0  0  0
M  END
> <s_m_entry_id>
505

> <s_m_entry_name>
dock_pv.504

> <s_m_Source_Path>
/home/csk/Desktop/cluster/DUD-E-result/kif11

> <s_m_Source_File>
dock_pv.maegz

> <i_m_Source_File_Index>
504

> <chembl_id>
CHEMBL393844

> <chembl_pref_name>
None

> <i_lp_mmshare_version>
53161

> <i_f3d_flags>
0

> <r_lp_tautomer_probability>
0.999999999995238

> <s_lp_Force_Field>
OPLS_2005

> <r_lp_Energy>
54.010789

> <b_lp_Chiralities_Consistent>
1

> <s_lp_Variant>
CHEMBL4581_lig202-2

> <s_i_glide_gridfile>
glide-grid_3cjo

> <i_i_glide_lignum>
309

> <i_i_glide_rotatable_bonds>
6

> <r_i_docking_score>
-7.04235086202291

> <r_i_glide_ligand_efficiency>
-0.30618916791404

> <r_i_glide_ligand_efficiency_sa>
-0.870761263308875

> <r_i_glide_ligand_efficiency_ln>
-1.70290429494426

> <r_i_glide_gscore>
-7.04235086202291

> <r_i_glide_lipo>
-2.08502565202318

> <r_i_glide_hbond>
-0.32

> <r_i_glide_metal>
0

> <r_i_glide_rewards>
-2.47483208421029

> <r_i_glide_evdw>
-38.2927017211914

> <r_i_glide_ecoul>
-5.02572917938232

> <r_i_glide_erotb>
0.506001337177471

> <r_i_glide_esite>
0

> <r_i_glide_emodel>
-61.094043348865

> <r_i_glide_energy>
-43.3184309005737

> <r_i_glide_einternal>
2.33493661880493

> <i_i_glide_confnum>
3

> <i_i_glide_posenum>
163

> <r_i_glide_eff_state_penalty>
0

> <s_user_duplicate_titles>
CHEMBL4581_lig202

> <s_m_subgroup_title>
dock_pv

> <s_m_subgroupid>
dock_pv

> <b_m_subgroup_collapsed>
1

$$$$
CHEMBL4581_lig587
                    3D
 Schrodinger Suite 2021-1.
 56 58  0  0  1  0            999 V2000
   16.3096   14.2840  103.1814 C   0  0  0  0  0  0
   16.5871   15.4241  104.2029 C   0  0  2  0  0  0
   15.8408   15.3445  105.5650 C   0  0  0  0  0  0
   16.6580   14.3624  102.0003 O   0  0  0  0  0  0
   15.7074   13.1919  103.7394 O   0  0  0  0  0  0
   16.4159   13.9761  106.6310 S   0  0  0  0  0  0
   17.3938   14.6941  108.0339 C   0  0  0  0  0  0
   17.4447   13.4795  109.0388 C   0  0  0  0  0  0
   17.9547   13.6587  110.4768 C   0  0  0  0  0  0
   18.8484   14.6688  110.8507 C   0  0  0  0  0  0
   19.2641   14.7807  112.1757 C   0  0  0  0  0  0
   18.7952   13.8802  113.1298 C   0  0  0  0  0  0
   17.9178   12.8624  112.7684 C   0  0  0  0  0  0
   17.5038   12.7518  111.4442 C   0  0  0  0  0  0
   18.7764   15.0889  107.4246 C   0  0  0  0  0  0
   18.8725   16.1666  106.5357 C   0  0  0  0  0  0
   20.0602   16.4788  105.8809 C   0  0  0  0  0  0
   21.1181   14.6204  106.9783 C   0  0  0  0  0  0
   19.9437   14.3616  107.6757 C   0  0  0  0  0  0
   16.6282   15.8677  108.7145 C   0  0  0  0  0  0
   17.2825   17.0509  109.1003 C   0  0  0  0  0  0
   16.5916   18.0759  109.7393 C   0  0  0  0  0  0
   14.5636   16.7712  109.6305 C   0  0  0  0  0  0
   15.2585   15.7452  108.9959 C   0  0  0  0  0  0
   16.2984   16.7093  103.5348 N   0  0  0  0  0  0
   15.2316   17.9356  110.0075 C   0  0  0  0  0  0
   21.1872   15.6927  106.0944 C   0  0  0  0  0  0
   22.4783   15.9828  105.3512 C   0  0  0  0  0  0
   14.4824   19.0588  110.7008 C   0  0  0  0  0  0
   17.6573   15.3544  104.3929 H   0  0  0  0  0  0
   14.7707   15.2152  105.3959 H   0  0  0  0  0  0
   15.9193   16.2840  106.1099 H   0  0  0  0  0  0
   15.6568   13.2661  104.6972 H   0  0  0  0  0  0
   16.4213   13.1143  109.1550 H   0  0  0  0  0  0
   17.9705   12.6329  108.5956 H   0  0  0  0  0  0
   19.2291   15.3730  110.1282 H   0  0  0  0  0  0
   19.9528   15.5629  112.4600 H   0  0  0  0  0  0
   19.1228   13.9593  114.1566 H   0  0  0  0  0  0
   17.5626   12.1611  113.5099 H   0  0  0  0  0  0
   16.8244   11.9555  111.1708 H   0  0  0  0  0  0
   18.0029   16.7620  106.3340 H   0  0  0  0  0  0
   20.0941   17.3173  105.2006 H   0  0  0  0  0  0
   21.9817   13.9935  107.1489 H   0  0  0  0  0  0
   19.9494   13.5299  108.3619 H   0  0  0  0  0  0
   18.3391   17.1917  108.9284 H   0  0  0  0  0  0
   17.1157   18.9745  110.0322 H   0  0  0  0  0  0
   13.5083   16.6559  109.8314 H   0  0  0  0  0  0
   14.7235   14.8469  108.7259 H   0  0  0  0  0  0
   16.6447   17.4988  104.0605 H   0  0  0  0  0  0
   16.7211   16.7481  102.6175 H   0  0  0  0  0  0
   22.2971   16.5561  104.4411 H   0  0  0  0  0  0
   23.1724   16.5313  105.9884 H   0  0  0  0  0  0
   22.9582   15.0523  105.0442 H   0  0  0  0  0  0
   13.4006   18.9319  110.6346 H   0  0  0  0  0  0
   14.7705   19.1170  111.7507 H   0  0  0  0  0  0
   14.7268   20.0165  110.2379 H   0  0  0  0  0  0
  1  2  1  0  0  0
  1  4  2  0  0  0
  1  5  1  0  0  0
  2  3  1  0  0  0
  2 25  1  0  0  0
  2 30  1  0  0  0
  3  6  1  0  0  0
  3 31  1  0  0  0
  3 32  1  0  0  0
  5 33  1  0  0  0
  6  7  1  0  0  0
  7  8  1  0  0  0
  7 15  1  0  0  0
  7 20  1  0  0  0
  8  9  1  0  0  0
  8 34  1  0  0  0
  8 35  1  0  0  0
  9 10  1  0  0  0
  9 14  2  0  0  0
 10 11  2  0  0  0
 10 36  1  0  0  0
 11 12  1  0  0  0
 11 37  1  0  0  0
 12 13  2  0  0  0
 12 38  1  0  0  0
 13 14  1  0  0  0
 13 39  1  0  0  0
 14 40  1  0  0  0
 15 16  1  0  0  0
 15 19  2  0  0  0
 16 17  2  0  0  0
 16 41  1  0  0  0
 17 27  1  0  0  0
 17 42  1  0  0  0
 18 27  2  0  0  0
 18 19  1  0  0  0
 18 43  1  0  0  0
 19 44  1  0  0  0
 20 21  1  0  0  0
 20 24  2  0  0  0
 21 22  2  0  0  0
 21 45  1  0  0  0
 22 26  1  0  0  0
 22 46  1  0  0  0
 23 26  2  0  0  0
 23 24  1  0  0  0
 23 47  1  0  0  0
 24 48  1  0  0  0
 25 49  1  0  0  0
 25 50  1  0  0  0
 26 29  1  0  0  0
 27 28  1  0  0  0
 28 51  1  0  0  0
 28 52  1  0  0  0
 28 53  1  0  0  0
 29 54  1  0  0  0
 29 55  1  0  0  0
 29 56  1  0  0  0
M  END
> <s_m_entry_id>
506

> <s_m_entry_name>
dock_pv.505

> <s_m_Source_Path>
/home/csk/Desktop/cluster/DUD-E-result/kif11

> <s_m_Source_File>
dock_pv.maegz

> <i_m_Source_File_Index>
505

> <chembl_id>
CHEMBL2043415

> <chembl_pref_name>
None

> <i_lp_mmshare_version>
53161

> <i_f3d_flags>
0

> <r_lp_tautomer_probability>
1

> <s_lp_Force_Field>
OPLS_2005

> <r_lp_Energy>
25.304039

> <b_lp_Chiralities_Consistent>
1

> <s_lp_Variant>
CHEMBL4581_lig587-1

> <s_i_glide_gridfile>
glide-grid_3cjo

> <i_i_glide_lignum>
901

> <i_i_glide_rotatable_bonds>
9

> <r_i_docking_score>
-7.03689989103407

> <r_i_glide_ligand_efficiency>
-0.242651720380485

> <r_i_glide_ligand_efficiency_sa>
-0.745502962469805

> <r_i_glide_ligand_efficiency_ln>
-1.61127163466182

> <r_i_glide_gscore>
-7.03689989103407

> <r_i_glide_lipo>
-4.33455591383191

> <r_i_glide_hbond>
-0.32

> <r_i_glide_metal>
0

> <r_i_glide_rewards>
-0.693954227272726

> <r_i_glide_evdw>
-43.6632423400879

> <r_i_glide_ecoul>
-2.81801152229309

> <r_i_glide_erotb>
0.955962877327065

> <r_i_glide_esite>
-0.0384887819081372

> <r_i_glide_emodel>
-59.2111609218802

> <r_i_glide_energy>
-46.481253862381

> <r_i_glide_einternal>
10.7794160842896

> <i_i_glide_confnum>
136

> <i_i_glide_posenum>
257

> <r_i_glide_eff_state_penalty>
0

> <s_user_duplicate_titles>
CHEMBL4581_lig587

> <s_m_subgroup_title>
dock_pv

> <s_m_subgroupid>
dock_pv

> <b_m_subgroup_collapsed>
1

$$$$
CHEMBL4581_lig800
                    3D
 Schrodinger Suite 2021-1.
 53 55  0  0  1  0            999 V2000
   17.4521   18.3777  110.5579 C   0  0  0  0  0  0
   17.9140   17.1196  110.2172 C   0  0  0  0  0  0
   17.0250   16.0489  110.0400 C   0  0  0  0  0  0
   15.6550   16.2856  110.2444 C   0  0  0  0  0  0
   15.1854   17.5535  110.5733 C   0  0  0  0  0  0
   16.0900   18.5981  110.7240 C   0  0  0  0  0  0
   17.5620   14.6290  109.6931 C   0  0  0  0  0  0
   18.8544   14.6194  108.8079 C   0  0  0  0  0  0
   17.8435   13.9713  111.0895 C   0  0  0  0  0  0
   19.1303   15.6345  107.8715 C   0  0  0  0  0  0
   20.2321   15.5648  107.0258 C   0  0  0  0  0  0
   21.1177   14.5058  107.1535 C   0  0  0  0  0  0
   20.9459   13.5620  108.1590 C   0  0  0  0  0  0
   19.8061   13.5961  108.9583 C   0  0  0  0  0  0
   16.2527   13.6475  108.7688 S   0  0  0  0  0  0
   15.9879   14.1153  107.0000 C   0  0  0  0  0  0
   15.8541   15.6790  106.7981 C   0  0  2  0  0  0
   17.0884   13.4252  106.1591 C   0  0  0  0  0  0
   14.6537   13.4452  106.5726 C   0  0  0  0  0  0
   18.8593   14.5091  111.9021 C   0  0  0  0  0  0
   19.1173   14.0019  113.1711 C   0  0  0  0  0  0
   18.3695   12.9342  113.6500 C   0  0  0  0  0  0
   17.3813   12.3616  112.8590 C   0  0  0  0  0  0
   17.1240   12.8683  111.5873 C   0  0  0  0  0  0
   14.5712   16.2661  107.2546 N   0  0  0  0  0  0
   16.1513   16.2015  105.3571 C   0  0  0  0  0  0
   17.4859   16.1462  105.0628 O   0  0  0  0  0  0
   15.2883   16.6359  104.5924 O   0  0  0  0  0  0
   18.1651   19.1715  110.7014 H   0  0  0  0  0  0
   18.9809   16.9873  110.1171 H   0  0  0  0  0  0
   14.9356   15.4876  110.1592 H   0  0  0  0  0  0
   14.1289   17.7246  110.7260 H   0  0  0  0  0  0
   15.7326   19.5807  110.9934 H   0  0  0  0  0  0
   18.5071   16.5044  107.7703 H   0  0  0  0  0  0
   20.4062   16.3356  106.2894 H   0  0  0  0  0  0
   21.9804   14.4464  106.5035 H   0  0  0  0  0  0
   21.6624   12.7642  108.2708 H   0  0  0  0  0  0
   19.6598   12.8012  109.6746 H   0  0  0  0  0  0
   16.6001   16.1551  107.4144 H   0  0  0  0  0  0
   16.8961   13.5131  105.0885 H   0  0  0  0  0  0
   18.0876   13.8030  106.3442 H   0  0  0  0  0  0
   17.1184   12.3596  106.3755 H   0  0  0  0  0  0
   14.3689   13.7290  105.5577 H   0  0  0  0  0  0
   14.7150   12.3598  106.5843 H   0  0  0  0  0  0
   13.8291   13.7214  107.2307 H   0  0  0  0  0  0
   19.4596   15.3347  111.5553 H   0  0  0  0  0  0
   19.8965   14.4365  113.7794 H   0  0  0  0  0  0
   18.5645   12.5392  114.6381 H   0  0  0  0  0  0
   16.7988   11.5323  113.2352 H   0  0  0  0  0  0
   16.3353   12.3891  111.0277 H   0  0  0  0  0  0
   14.5037   16.2222  108.2607 H   0  0  0  0  0  0
   14.5190   17.2452  107.0059 H   0  0  0  0  0  0
   17.9959   15.7003  105.7431 H   0  0  0  0  0  0
  1  6  1  0  0  0
  1  2  2  0  0  0
  1 29  1  0  0  0
  2  3  1  0  0  0
  2 30  1  0  0  0
  3  7  1  0  0  0
  3  4  2  0  0  0
  4  5  1  0  0  0
  4 31  1  0  0  0
  5  6  2  0  0  0
  5 32  1  0  0  0
  6 33  1  0  0  0
  7 15  1  0  0  0
  7  8  1  0  0  0
  7  9  1  0  0  0
  8 14  1  0  0  0
  8 10  2  0  0  0
  9 20  2  0  0  0
  9 24  1  0  0  0
 10 11  1  0  0  0
 10 34  1  0  0  0
 11 12  2  0  0  0
 11 35  1  0  0  0
 12 13  1  0  0  0
 12 36  1  0  0  0
 13 14  2  0  0  0
 13 37  1  0  0  0
 14 38  1  0  0  0
 15 16  1  0  0  0
 16 17  1  0  0  0
 16 18  1  0  0  0
 16 19  1  0  0  0
 17 25  1  0  0  0
 17 26  1  0  0  0
 17 39  1  0  0  0
 18 40  1  0  0  0
 18 41  1  0  0  0
 18 42  1  0  0  0
 19 43  1  0  0  0
 19 44  1  0  0  0
 19 45  1  0  0  0
 20 21  1  0  0  0
 20 46  1  0  0  0
 21 22  2  0  0  0
 21 47  1  0  0  0
 22 23  1  0  0  0
 22 48  1  0  0  0
 23 24  2  0  0  0
 23 49  1  0  0  0
 24 50  1  0  0  0
 25 51  1  0  0  0
 25 52  1  0  0  0
 26 27  1  0  0  0
 26 28  2  0  0  0
 27 53  1  0  0  0
M  END
> <s_m_entry_id>
507

> <s_m_entry_name>
dock_pv.506

> <s_m_Source_Path>
/home/csk/Desktop/cluster/DUD-E-result/kif11

> <s_m_Source_File>
dock_pv.maegz

> <i_m_Source_File_Index>
506

> <chembl_id>
CHEMBL408179

> <chembl_pref_name>
None

> <i_lp_mmshare_version>
53161

> <i_f3d_flags>
0

> <r_lp_tautomer_probability>
1

> <s_lp_Force_Field>
OPLS_2005

> <r_lp_Energy>
36.247014

> <b_lp_Chiralities_Consistent>
1

> <s_lp_Variant>
CHEMBL4581_lig800-1

> <s_i_glide_gridfile>
glide-grid_3cjo

> <i_i_glide_lignum>
1184

> <i_i_glide_rotatable_bonds>
8

> <r_i_docking_score>
-7.02981427885418

> <r_i_glide_ligand_efficiency>
-0.251064795673363

> <r_i_glide_ligand_efficiency_sa>
-0.762380588921149

> <r_i_glide_ligand_efficiency_ln>
-1.6226875398756

> <r_i_glide_gscore>
-7.02981427885418

> <r_i_glide_lipo>
-4.60827919362878

> <r_i_glide_hbond>
0

> <r_i_glide_metal>
0

> <r_i_glide_rewards>
-0.930176140034943

> <r_i_glide_evdw>
-43.2315902709961

> <r_i_glide_ecoul>
-1.47292602062225

> <r_i_glide_erotb>
0.891159471452689

> <r_i_glide_esite>
0

> <r_i_glide_emodel>
-63.2958409069921

> <r_i_glide_energy>
-44.7045162916183

> <r_i_glide_einternal>
2.04449963569641

> <i_i_glide_confnum>
24

> <i_i_glide_posenum>
119

> <r_i_glide_eff_state_penalty>
0

> <s_user_duplicate_titles>
CHEMBL4581_lig800

> <s_m_subgroup_title>
dock_pv

> <s_m_subgroupid>
dock_pv

> <b_m_subgroup_collapsed>
1

$$$$
CHEMBL4581_lig791
                    3D
 Schrodinger Suite 2021-1.
 55 57  0  0  1  0            999 V2000
   15.7803   13.7421  104.9373 C   0  0  2  0  0  0
   15.9022   14.3192  103.5078 C   0  0  0  0  0  0
   14.9889   14.9564  102.9966 O   0  0  0  0  0  0
   16.4893   14.6254  105.9788 C   0  0  0  0  0  0
   16.3015   12.3622  104.9583 N   0  0  0  0  0  0
   16.5993   13.8100  107.6117 S   0  0  0  0  0  0
   17.5377   14.9431  108.7376 C   0  0  0  0  0  0
   17.7152   14.2839  110.1377 C   0  0  0  0  0  0
   16.9629   13.1654  110.5466 C   0  0  0  0  0  0
   17.1181   12.6318  111.8109 C   0  0  0  0  0  0
   18.0013   13.2157  112.7240 C   0  0  0  0  0  0
   18.7830   14.2958  112.3178 C   0  0  0  0  0  0
   18.6291   14.8396  111.0453 C   0  0  0  0  0  0
   18.8834   15.1277  107.9777 C   0  0  0  0  0  0
   19.9589   14.2455  108.1607 C   0  0  0  0  0  0
   21.0924   14.3301  107.3508 C   0  0  0  0  0  0
   21.1838   15.3276  106.3835 C   0  0  0  0  0  0
   20.1531   16.2434  106.2195 C   0  0  0  0  0  0
   19.0133   16.1294  107.0093 C   0  0  0  0  0  0
   16.7180   16.2487  109.0003 C   0  0  0  0  0  0
   15.3116   16.2207  109.0256 C   0  0  0  0  0  0
   14.5712   17.3695  109.2860 C   0  0  0  0  0  0
   15.2032   18.5793  109.5464 C   0  0  0  0  0  0
   16.6057   18.6244  109.5371 C   0  0  0  0  0  0
   17.3534   17.4766  109.2687 C   0  0  0  0  0  0
   17.1176   14.1013  102.9125 O   0  0  0  0  0  0
   14.3769   19.6563  109.7949 O   0  0  0  0  0  0
   14.9476   20.9138  110.1368 C   0  0  0  0  0  0
   18.1613   12.7654  114.0115 O   0  0  0  0  0  0
   16.9862   12.3576  114.6901 C   0  0  0  0  0  0
   14.7126   13.7073  105.1833 H   0  0  0  0  0  0
   15.9931   15.5917  106.0817 H   0  0  0  0  0  0
   17.4989   14.7987  105.6082 H   0  0  0  0  0  0
   16.0048   11.8046  104.1685 H   0  0  0  0  0  0
   17.3174   12.3547  104.9824 H   0  0  0  0  0  0
   16.2325   12.6974  109.9103 H   0  0  0  0  0  0
   16.5250   11.7731  112.0715 H   0  0  0  0  0  0
   19.4811   14.7450  113.0176 H   0  0  0  0  0  0
   19.2262   15.7026  110.7640 H   0  0  0  0  0  0
   19.8952   13.4422  108.8811 H   0  0  0  0  0  0
   21.8994   13.6198  107.4729 H   0  0  0  0  0  0
   22.0645   15.3933  105.7639 H   0  0  0  0  0  0
   20.2150   17.0055  105.4566 H   0  0  0  0  0  0
   18.1728   16.7628  106.8082 H   0  0  0  0  0  0
   14.7688   15.3011  108.8541 H   0  0  0  0  0  0
   13.4938   17.3235  109.2915 H   0  0  0  0  0  0
   17.1215   19.5519  109.7387 H   0  0  0  0  0  0
   18.4285   17.5423  109.2779 H   0  0  0  0  0  0
   17.7290   13.5620  103.4530 H   0  0  0  0  0  0
   14.1539   21.6490  110.2614 H   0  0  0  0  0  0
   15.4802   20.8507  111.0876 H   0  0  0  0  0  0
   15.6209   21.2852  109.3597 H   0  0  0  0  0  0
   17.2338   11.9566  115.6658 H   0  0  0  0  0  0
   16.4257   11.5719  114.1793 H   0  0  0  0  0  0
   16.3196   13.1970  114.8596 H   0  0  0  0  0  0
  1  5  1  0  0  0
  1  2  1  0  0  0
  1  4  1  0  0  0
  1 31  1  0  0  0
  2  3  2  0  0  0
  2 26  1  0  0  0
  4  6  1  0  0  0
  4 32  1  0  0  0
  4 33  1  0  0  0
  5 34  1  0  0  0
  5 35  1  0  0  0
  6  7  1  0  0  0
  7  8  1  0  0  0
  7 14  1  0  0  0
  7 20  1  0  0  0
  8  9  2  0  0  0
  8 13  1  0  0  0
  9 10  1  0  0  0
  9 36  1  0  0  0
 10 11  2  0  0  0
 10 37  1  0  0  0
 11 12  1  0  0  0
 11 29  1  0  0  0
 12 13  2  0  0  0
 12 38  1  0  0  0
 13 39  1  0  0  0
 14 19  1  0  0  0
 14 15  2  0  0  0
 15 16  1  0  0  0
 15 40  1  0  0  0
 16 17  2  0  0  0
 16 41  1  0  0  0
 17 18  1  0  0  0
 17 42  1  0  0  0
 18 19  2  0  0  0
 18 43  1  0  0  0
 19 44  1  0  0  0
 20 21  2  0  0  0
 20 25  1  0  0  0
 21 22  1  0  0  0
 21 45  1  0  0  0
 22 23  2  0  0  0
 22 46  1  0  0  0
 23 24  1  0  0  0
 23 27  1  0  0  0
 24 25  2  0  0  0
 24 47  1  0  0  0
 25 48  1  0  0  0
 26 49  1  0  0  0
 27 28  1  0  0  0
 28 50  1  0  0  0
 28 51  1  0  0  0
 28 52  1  0  0  0
 29 30  1  0  0  0
 30 53  1  0  0  0
 30 54  1  0  0  0
 30 55  1  0  0  0
M  END
> <s_m_entry_id>
508

> <s_m_entry_name>
dock_pv.507

> <s_m_Source_Path>
/home/csk/Desktop/cluster/DUD-E-result/kif11

> <s_m_Source_File>
dock_pv.maegz

> <i_m_Source_File_Index>
507

> <chembl_id>
CHEMBL272404

> <chembl_pref_name>
None

> <i_lp_mmshare_version>
53161

> <i_f3d_flags>
0

> <r_lp_tautomer_probability>
1

> <s_lp_Force_Field>
OPLS_2005

> <r_lp_Energy>
35.12894

> <b_lp_Chiralities_Consistent>
1

> <s_lp_Variant>
CHEMBL4581_lig791-1

> <s_i_glide_gridfile>
glide-grid_3cjo

> <i_i_glide_lignum>
1174

> <i_i_glide_rotatable_bonds>
10

> <r_i_docking_score>
-7.02199636131856

> <r_i_glide_ligand_efficiency>
-0.234066545377285

> <r_i_glide_ligand_efficiency_sa>
-0.727299177528062

> <r_i_glide_ligand_efficiency_ln>
-1.59547408406997

> <r_i_glide_gscore>
-7.02199636131856

> <r_i_glide_lipo>
-4.24619469744019

> <r_i_glide_hbond>
-0.149650392252854

> <r_i_glide_metal>
0

> <r_i_glide_rewards>
-0.191589831889578

> <r_i_glide_evdw>
-38.0034866333008

> <r_i_glide_ecoul>
-8.58495616912842

> <r_i_glide_erotb>
0.77347545175127

> <r_i_glide_esite>
-0.0201191344529023

> <r_i_glide_emodel>
-61.9485287719047

> <r_i_glide_energy>
-46.5884428024292

> <r_i_glide_einternal>
8.77167320251465

> <i_i_glide_confnum>
36

> <i_i_glide_posenum>
245

> <r_i_glide_eff_state_penalty>
0

> <s_user_duplicate_titles>
CHEMBL4581_lig791

> <s_m_subgroup_title>
dock_pv

> <s_m_subgroupid>
dock_pv

> <b_m_subgroup_collapsed>
1

$$$$
CHEMBL4581_lig704
                    3D
 Schrodinger Suite 2021-1.
 61 65  0  0  1  0            999 V2000
   19.1345   15.7541  111.2435 C   0  0  0  0  0  0
   18.5644   17.1049  110.8403 C   0  0  0  0  0  0
   17.5453   14.8474  108.7489 C   0  0  0  0  0  0
   18.2248   14.5426  111.2815 C   0  0  0  0  0  0
   17.5093   14.0918  110.1344 C   0  0  0  0  0  0
   16.8641   12.8423  110.2739 C   0  0  0  0  0  0
   16.8702   12.1139  111.4540 C   0  0  0  0  0  0
   17.5182   12.6060  112.5719 C   0  0  0  0  0  0
   18.1910   13.8138  112.4797 C   0  0  0  0  0  0
   17.0567   16.3507  108.8340 C   0  0  0  0  0  0
   17.3933   17.2550  109.8819 C   0  0  0  0  0  0
   16.7256   18.4849  109.9893 C   0  0  0  0  0  0
   15.7828   18.8972  109.0625 C   0  0  0  0  0  0
   15.5215   18.0912  107.9724 C   0  0  0  0  0  0
   16.1711   16.8687  107.8540 C   0  0  0  0  0  0
   16.6303   14.0818  107.7101 C   0  0  0  0  0  0
   15.2346   14.0255  107.9103 C   0  0  0  0  0  0
   14.3829   13.4850  106.9460 C   0  0  0  0  0  0
   14.9049   12.9876  105.7503 C   0  0  0  0  0  0
   16.2821   12.9769  105.5689 C   0  0  0  0  0  0
   17.1255   13.4948  106.5397 C   0  0  0  0  0  0
   19.3234   14.7733  108.2174 S   0  0  0  0  0  0
   19.5375   15.8085  106.7333 C   0  0  0  0  0  0
   21.0323   16.0968  106.4393 C   0  0  1  0  0  0
   21.9153   14.8696  106.0428 C   0  0  0  0  0  0
   21.1586   17.1602  105.4196 N   0  0  0  0  0  0
   22.7320   15.1430  104.9844 O   0  0  0  0  0  0
   21.9170   13.8141  106.6738 O   0  0  0  0  0  0
   14.0315   12.4706  104.6729 C   0  0  0  0  0  0
   13.3444   11.2680  104.8410 C   0  0  0  0  0  0
   12.5383   10.7667  103.8229 C   0  0  0  0  0  0
   12.4252   11.4707  102.6263 C   0  0  0  0  0  0
   13.1148   12.6667  102.4402 C   0  0  0  0  0  0
   13.9189   13.1641  103.4634 C   0  0  0  0  0  0
   19.5958   15.8916  112.2221 H   0  0  0  0  0  0
   19.9934   15.5114  110.6328 H   0  0  0  0  0  0
   18.3142   17.6427  111.7502 H   0  0  0  0  0  0
   19.3791   17.6956  110.4192 H   0  0  0  0  0  0
   16.3638   12.3599  109.4503 H   0  0  0  0  0  0
   16.3573   11.1648  111.4930 H   0  0  0  0  0  0
   17.5182   12.0447  113.4951 H   0  0  0  0  0  0
   18.7308   14.1626  113.3478 H   0  0  0  0  0  0
   16.9694   19.1617  110.7949 H   0  0  0  0  0  0
   15.2945   19.8551  109.1672 H   0  0  0  0  0  0
   14.8242   18.4136  107.2128 H   0  0  0  0  0  0
   15.9261   16.3106  106.9644 H   0  0  0  0  0  0
   14.8053   14.4477  108.8079 H   0  0  0  0  0  0
   13.3160   13.4835  107.1130 H   0  0  0  0  0  0
   16.7142   12.5663  104.6673 H   0  0  0  0  0  0
   18.1759   13.4421  106.3167 H   0  0  0  0  0  0
   19.0649   15.3500  105.8658 H   0  0  0  0  0  0
   19.0130   16.7468  106.9131 H   0  0  0  0  0  0
   21.4828   16.4667  107.3593 H   0  0  0  0  0  0
   20.3609   17.1281  104.7981 H   0  0  0  0  0  0
   21.0644   18.0516  105.8935 H   0  0  0  0  0  0
   22.4934   16.0419  104.7235 H   0  0  0  0  0  0
   13.4562   10.7135  105.7584 H   0  0  0  0  0  0
   12.0041    9.8380  103.9673 H   0  0  0  0  0  0
   11.7962   11.0843  101.8375 H   0  0  0  0  0  0
   13.0235   13.2069  101.5091 H   0  0  0  0  0  0
   14.4552   14.0917  103.3205 H   0  0  0  0  0  0
  1  4  1  0  0  0
  1  2  1  0  0  0
  1 35  1  0  0  0
  1 36  1  0  0  0
  2 11  1  0  0  0
  2 37  1  0  0  0
  2 38  1  0  0  0
  3 10  1  0  0  0
  3  5  1  0  0  0
  3 16  1  0  0  0
  3 22  1  0  0  0
  4  5  2  0  0  0
  4  9  1  0  0  0
  5  6  1  0  0  0
  6  7  2  0  0  0
  6 39  1  0  0  0
  7  8  1  0  0  0
  7 40  1  0  0  0
  8  9  2  0  0  0
  8 41  1  0  0  0
  9 42  1  0  0  0
 10 11  2  0  0  0
 10 15  1  0  0  0
 11 12  1  0  0  0
 12 13  2  0  0  0
 12 43  1  0  0  0
 13 14  1  0  0  0
 13 44  1  0  0  0
 14 15  2  0  0  0
 14 45  1  0  0  0
 15 46  1  0  0  0
 16 17  2  0  0  0
 16 21  1  0  0  0
 17 18  1  0  0  0
 17 47  1  0  0  0
 18 19  2  0  0  0
 18 48  1  0  0  0
 19 20  1  0  0  0
 19 29  1  0  0  0
 20 21  2  0  0  0
 20 49  1  0  0  0
 21 50  1  0  0  0
 22 23  1  0  0  0
 23 24  1  0  0  0
 23 51  1  0  0  0
 23 52  1  0  0  0
 24 25  1  0  0  0
 24 26  1  0  0  0
 24 53  1  0  0  0
 25 27  1  0  0  0
 25 28  2  0  0  0
 26 54  1  0  0  0
 26 55  1  0  0  0
 27 56  1  0  0  0
 29 30  2  0  0  0
 29 34  1  0  0  0
 30 31  1  0  0  0
 30 57  1  0  0  0
 31 32  2  0  0  0
 31 58  1  0  0  0
 32 33  1  0  0  0
 32 59  1  0  0  0
 33 34  2  0  0  0
 33 60  1  0  0  0
 34 61  1  0  0  0
M  END
> <s_m_entry_id>
509

> <s_m_entry_name>
dock_pv.508

> <s_m_Source_Path>
/home/csk/Desktop/cluster/DUD-E-result/kif11

> <s_m_Source_File>
dock_pv.maegz

> <i_m_Source_File_Index>
508

> <chembl_id>
CHEMBL3633528

> <chembl_pref_name>
None

> <i_lp_mmshare_version>
53161

> <i_f3d_flags>
0

> <r_lp_tautomer_probability>
1

> <s_lp_Force_Field>
OPLS_2005

> <r_lp_Energy>
48.253987

> <b_lp_Chiralities_Consistent>
1

> <s_lp_Variant>
CHEMBL4581_lig704-1

> <s_i_glide_gridfile>
glide-grid_3cjo

> <i_i_glide_lignum>
1047

> <i_i_glide_rotatable_bonds>
7

> <r_i_docking_score>
-7.02022497778616

> <r_i_glide_ligand_efficiency>
-0.206477205229005

> <r_i_glide_ligand_efficiency_sa>
-0.668905989968408

> <r_i_glide_ligand_efficiency_ln>
-1.55096460823378

> <r_i_glide_gscore>
-7.02022497778616

> <r_i_glide_lipo>
-3.90410852829186

> <r_i_glide_hbond>
-0.128607505744649

> <r_i_glide_metal>
0

> <r_i_glide_rewards>
-0.684078666582473

> <r_i_glide_evdw>
-49.2692184448242

> <r_i_glide_ecoul>
-2.65440607070923

> <r_i_glide_erotb>
0.558191555680419

> <r_i_glide_esite>
0

> <r_i_glide_emodel>
-70.2261016652182

> <r_i_glide_energy>
-51.9236245155334

> <r_i_glide_einternal>
5.88978099822998

> <i_i_glide_confnum>
105

> <i_i_glide_posenum>
279

> <r_i_glide_eff_state_penalty>
0

> <s_user_duplicate_titles>
CHEMBL4581_lig704

> <s_m_subgroup_title>
dock_pv

> <s_m_subgroupid>
dock_pv

> <b_m_subgroup_collapsed>
1

$$$$
CHEMBL4581_lig460
                    3D
 Schrodinger Suite 2021-1.
 49 50  0  0  1  0            999 V2000
   17.0339   13.2006  108.3533 S   0  0  0  0  0  0
   16.9927   13.8585  106.6544 C   0  0  0  0  0  0
   16.0339   13.0771  105.7382 C   0  0  1  0  0  0
   14.5487   13.4029  106.0160 C   0  0  0  0  0  0
   13.9180   12.3621  106.6301 O   0  0  0  0  0  0
   14.0215   14.4747  105.7152 O   0  0  0  0  0  0
   16.3179   13.3724  104.3235 N   0  0  0  0  0  0
   18.1544   14.3209  109.3124 C   0  0  0  0  0  0
   18.4275   13.5768  110.6625 C   0  0  0  0  0  0
   19.4445   14.4802  108.4506 C   0  0  0  0  0  0
   17.5111   15.6976  109.6526 C   0  0  0  0  0  0
   19.5230   15.4971  107.4816 C   0  0  0  0  0  0
   20.5481   15.5146  106.5406 C   0  0  0  0  0  0
   21.5182   14.5189  106.5605 C   0  0  0  0  0  0
   21.5180   13.5620  107.5756 C   0  0  0  0  0  0
   20.5058   13.5618  108.5345 C   0  0  0  0  0  0
   18.3179   16.6878  110.2358 C   0  0  0  0  0  0
   17.8013   17.9379  110.5594 C   0  0  0  0  0  0
   16.4555   18.2046  110.3257 C   0  0  0  0  0  0
   15.6300   17.2335  109.7662 C   0  0  0  0  0  0
   16.1534   15.9865  109.4316 C   0  0  0  0  0  0
   17.2108   13.3622  111.5990 C   0  0  0  0  0  0
   17.5282   12.4944  112.8320 C   0  0  0  0  0  0
   18.4200   13.1951  113.8614 C   0  0  0  0  0  0
   16.7534   14.9235  106.6683 H   0  0  0  0  0  0
   17.9977   13.7631  106.2430 H   0  0  0  0  0  0
   16.2046   12.0120  105.9004 H   0  0  0  0  0  0
   14.5245   11.6524  106.8819 H   0  0  0  0  0  0
   17.3091   13.1620  104.1590 H   0  0  0  0  0  0
   15.7911   12.7617  103.7149 H   0  0  0  0  0  0
   18.7968   12.5791  110.4436 H   0  0  0  0  0  0
   19.2222   14.0884  111.2074 H   0  0  0  0  0  0
   18.7431   16.2402  107.3982 H   0  0  0  0  0  0
   20.5655   16.2750  105.7748 H   0  0  0  0  0  0
   22.2940   14.5059  105.8075 H   0  0  0  0  0  0
   22.2913   12.8103  107.6040 H   0  0  0  0  0  0
   20.5139   12.7673  109.2640 H   0  0  0  0  0  0
   19.3600   16.4862  110.4386 H   0  0  0  0  0  0
   18.4358   18.6933  111.0014 H   0  0  0  0  0  0
   16.0496   19.1721  110.5883 H   0  0  0  0  0  0
   14.5846   17.4477  109.5906 H   0  0  0  0  0  0
   15.4828   15.2581  109.0028 H   0  0  0  0  0  0
   16.8046   14.3235  111.9128 H   0  0  0  0  0  0
   16.4061   12.8695  111.0510 H   0  0  0  0  0  0
   16.5975   12.2040  113.3212 H   0  0  0  0  0  0
   17.9986   11.5620  112.5175 H   0  0  0  0  0  0
   18.5397   12.5848  114.7573 H   0  0  0  0  0  0
   19.4168   13.3982  113.4684 H   0  0  0  0  0  0
   17.9766   14.1437  114.1590 H   0  0  0  0  0  0
  1  2  1  0  0  0
  1  8  1  0  0  0
  2  3  1  0  0  0
  2 25  1  0  0  0
  2 26  1  0  0  0
  3  7  1  0  0  0
  3  4  1  0  0  0
  3 27  1  0  0  0
  4  5  1  0  0  0
  4  6  2  0  0  0
  5 28  1  0  0  0
  7 29  1  0  0  0
  7 30  1  0  0  0
  8  9  1  0  0  0
  8 10  1  0  0  0
  8 11  1  0  0  0
  9 22  1  0  0  0
  9 31  1  0  0  0
  9 32  1  0  0  0
 10 16  1  0  0  0
 10 12  2  0  0  0
 11 17  2  0  0  0
 11 21  1  0  0  0
 12 13  1  0  0  0
 12 33  1  0  0  0
 13 14  2  0  0  0
 13 34  1  0  0  0
 14 15  1  0  0  0
 14 35  1  0  0  0
 15 16  2  0  0  0
 15 36  1  0  0  0
 16 37  1  0  0  0
 17 18  1  0  0  0
 17 38  1  0  0  0
 18 19  2  0  0  0
 18 39  1  0  0  0
 19 20  1  0  0  0
 19 40  1  0  0  0
 20 21  2  0  0  0
 20 41  1  0  0  0
 21 42  1  0  0  0
 22 23  1  0  0  0
 22 43  1  0  0  0
 22 44  1  0  0  0
 23 24  1  0  0  0
 23 45  1  0  0  0
 23 46  1  0  0  0
 24 47  1  0  0  0
 24 48  1  0  0  0
 24 49  1  0  0  0
M  END
> <s_m_entry_id>
510

> <s_m_entry_name>
dock_pv.509

> <s_m_Source_Path>
/home/csk/Desktop/cluster/DUD-E-result/kif11

> <s_m_Source_File>
dock_pv.maegz

> <i_m_Source_File_Index>
509

> <chembl_id>
CHEMBL259256

> <chembl_pref_name>
None

> <i_lp_mmshare_version>
53161

> <i_f3d_flags>
0

> <r_lp_tautomer_probability>
1

> <s_lp_Force_Field>
OPLS_2005

> <r_lp_Energy>
15.873295

> <b_lp_Chiralities_Consistent>
1

> <s_lp_Variant>
CHEMBL4581_lig460-1

> <s_i_glide_gridfile>
glide-grid_3cjo

> <i_i_glide_lignum>
683

> <i_i_glide_rotatable_bonds>
10

> <r_i_docking_score>
-7.01871407849757

> <r_i_glide_ligand_efficiency>
-0.292446419937399

> <r_i_glide_ligand_efficiency_sa>
-0.843561446091678

> <r_i_glide_ligand_efficiency_ln>
-1.67990034678731

> <r_i_glide_gscore>
-7.01871407849757

> <r_i_glide_lipo>
-3.93816517182455

> <r_i_glide_hbond>
-0.152

> <r_i_glide_metal>
0

> <r_i_glide_rewards>
-1.06715454545454

> <r_i_glide_evdw>
-35.2076835632324

> <r_i_glide_ecoul>
-9.18754768371582

> <r_i_glide_erotb>
1.28668312030615

> <r_i_glide_esite>
-0.00956115080563375

> <r_i_glide_emodel>
-63.0964817385173

> <r_i_glide_energy>
-44.3952312469482

> <r_i_glide_einternal>
4.00813484191895

> <i_i_glide_confnum>
178

> <i_i_glide_posenum>
100

> <r_i_glide_eff_state_penalty>
0

> <s_user_duplicate_titles>
CHEMBL4581_lig460

> <s_m_subgroup_title>
dock_pv

> <s_m_subgroupid>
dock_pv

> <b_m_subgroup_collapsed>
1

$$$$
CHEMBL4581_lig425
                    3D
 Schrodinger Suite 2021-1.
 25 27  0  0  1  0            999 V2000
   22.6139   14.1808  105.9463 C   0  0  0  0  0  0
   22.4070   15.4265  105.3599 C   0  0  0  0  0  0
   21.3598   16.2599  105.7540 C   0  0  0  0  0  0
   21.7777   13.7103  106.9589 C   0  0  0  0  0  0
   20.7187   14.5277  107.3888 C   0  0  0  0  0  0
   20.5198   15.7873  106.7671 C   0  0  0  0  0  0
   19.4185   16.3623  107.3657 N   0  0  0  0  0  0
   19.7478   14.3934  108.3990 C   0  0  0  0  0  0
   18.9414   15.5619  108.3871 C   0  0  0  0  0  0
   17.8905   15.7701  109.2994 C   0  0  0  0  0  0
   17.6693   14.7313  110.2183 C   0  0  0  0  0  0
   18.4391   13.5724  110.2373 C   0  0  0  0  0  0
   19.4849   13.3880  109.3376 C   0  0  0  0  0  0
   17.0254   17.0278  109.3485 C   0  0  0  0  0  0
   17.8069   18.0831  109.5744 F   0  0  0  0  0  0
   16.4198   17.1927  108.1745 F   0  0  0  0  0  0
   16.0922   16.9832  110.3016 F   0  0  0  0  0  0
   23.4295   13.5631  105.6014 H   0  0  0  0  0  0
   23.0675   15.7488  104.5683 H   0  0  0  0  0  0
   21.2062   17.2223  105.2884 H   0  0  0  0  0  0
   21.9530   12.7440  107.4065 H   0  0  0  0  0  0
   19.0554   17.2786  107.1429 H   0  0  0  0  0  0
   16.8789   14.8158  110.9492 H   0  0  0  0  0  0
   18.2255   12.7988  110.9602 H   0  0  0  0  0  0
   20.0775   12.4856  109.3583 H   0  0  0  0  0  0
  1  2  1  0  0  0
  1  4  2  0  0  0
  1 18  1  0  0  0
  2  3  2  0  0  0
  2 19  1  0  0  0
  3  6  1  0  0  0
  3 20  1  0  0  0
  4  5  1  0  0  0
  4 21  1  0  0  0
  5  6  2  0  0  0
  5  8  1  0  0  0
  6  7  1  0  0  0
  7  9  1  0  0  0
  7 22  1  0  0  0
  8  9  2  0  0  0
  8 13  1  0  0  0
  9 10  1  0  0  0
 10 11  2  0  0  0
 10 14  1  0  0  0
 11 12  1  0  0  0
 11 23  1  0  0  0
 12 13  2  0  0  0
 12 24  1  0  0  0
 13 25  1  0  0  0
 14 15  1  0  0  0
 14 16  1  0  0  0
 14 17  1  0  0  0
M  END
> <s_m_entry_id>
511

> <s_m_entry_name>
dock_pv.510

> <s_m_Source_Path>
/home/csk/Desktop/cluster/DUD-E-result/kif11

> <s_m_Source_File>
dock_pv.maegz

> <i_m_Source_File_Index>
510

> <chembl_id>
CHEMBL1169609

> <chembl_pref_name>
None

> <i_lp_mmshare_version>
53161

> <i_f3d_flags>
0

> <r_lp_tautomer_probability>
1

> <s_lp_Force_Field>
OPLS_2005

> <r_lp_Energy>
14.121825

> <b_lp_Chiralities_Consistent>
1

> <s_lp_Variant>
CHEMBL4581_lig425-1

> <s_i_glide_gridfile>
glide-grid_3cjo

> <i_i_glide_lignum>
630

> <i_i_glide_rotatable_bonds>
1

> <r_i_docking_score>
-7.0186265912355

> <r_i_glide_ligand_efficiency>
-0.412860387719735

> <r_i_glide_ligand_efficiency_sa>
-1.06158031345322

> <r_i_glide_ligand_efficiency_ln>
-1.8310033805237

> <r_i_glide_gscore>
-7.0186265912355

> <r_i_glide_lipo>
-3.06299244589414

> <r_i_glide_hbond>
-0.0199780620159965

> <r_i_glide_metal>
0

> <r_i_glide_rewards>
-2.5302129335203

> <r_i_glide_evdw>
-26.1368618011475

> <r_i_glide_ecoul>
-0.657333731651306

> <r_i_glide_erotb>
0

> <r_i_glide_esite>
0

> <r_i_glide_emodel>
-37.7380471440965

> <r_i_glide_energy>
-26.7941955327988

> <r_i_glide_einternal>
0.00231369747780263

> <i_i_glide_confnum>
1

> <i_i_glide_posenum>
204

> <r_i_glide_eff_state_penalty>
0

> <s_user_duplicate_titles>
CHEMBL4581_lig425

> <s_m_subgroup_title>
dock_pv

> <s_m_subgroupid>
dock_pv

> <b_m_subgroup_collapsed>
1

$$$$
CHEMBL4581_lig506
                    3D
 Schrodinger Suite 2021-1.
 57 61  0  0  1  0            999 V2000
   14.9821   16.8802  106.0931 C   0  0  0  0  0  0
   15.7162   16.2122  105.1039 C   0  0  0  0  0  0
   16.6455   15.2296  105.4385 C   0  0  0  0  0  0
   15.1946   16.5283  107.4371 C   0  0  0  0  0  0
   16.1461   15.5595  107.7886 C   0  0  0  0  0  0
   16.8407   14.8905  106.7740 C   0  0  0  0  0  0
   17.8285   13.9632  107.1151 N   0  0  0  0  0  0
   18.4325   14.1225  108.4459 C   0  0  2  0  0  0
   17.3865   14.3606  109.4853 N   0  0  0  0  0  0
   16.3118   15.1814  109.2474 C   0  0  0  0  0  0
   15.5187   15.5276  110.1298 O   0  0  0  0  0  0
   17.6865   13.9500  110.7981 C   0  0  0  0  0  0
   19.5348   15.2136  108.4119 C   0  0  0  0  0  0
   14.0756   17.8670  105.7162 N   0  0  0  0  0  0
   12.9704   17.5027  104.8103 C   0  0  0  0  0  0
   12.3935   18.7151  104.0501 C   0  0  0  0  0  0
   11.9443   19.8286  105.0020 C   0  0  0  0  0  0
   13.0841   20.1656  105.9685 C   0  0  0  0  0  0
   13.6400   18.9074  106.6675 C   0  0  0  0  0  0
   17.1487   12.7566  111.2865 C   0  0  0  0  0  0
   17.4304   12.3620  112.5925 C   0  0  0  0  0  0
   18.2538   13.1462  113.3970 C   0  0  0  0  0  0
   18.7952   14.3339  112.9110 C   0  0  0  0  0  0
   18.5066   14.7421  111.6115 C   0  0  0  0  0  0
   20.5650   15.1320  107.2895 C   0  0  0  0  0  0
   21.3355   13.9771  107.1193 C   0  0  0  0  0  0
   22.3419   13.9623  106.1590 C   0  0  0  0  0  0
   22.5705   15.0844  105.3643 C   0  0  0  0  0  0
   21.7952   16.2303  105.5194 C   0  0  0  0  0  0
   20.7887   16.2524  106.4808 C   0  0  0  0  0  0
   15.5810   16.4705  104.0638 H   0  0  0  0  0  0
   17.2130   14.7348  104.6631 H   0  0  0  0  0  0
   14.6243   17.0203  108.2125 H   0  0  0  0  0  0
   18.4077   13.5426  106.3982 H   0  0  0  0  0  0
   18.8993   13.1584  108.6613 H   0  0  0  0  0  0
   20.0947   15.1627  109.3443 H   0  0  0  0  0  0
   19.0677   16.2005  108.4017 H   0  0  0  0  0  0
   13.3158   16.7814  104.0694 H   0  0  0  0  0  0
   12.1919   17.0021  105.3881 H   0  0  0  0  0  0
   13.1277   19.0846  103.3329 H   0  0  0  0  0  0
   11.5444   18.3903  103.4484 H   0  0  0  0  0  0
   11.0706   19.4996  105.5662 H   0  0  0  0  0  0
   11.6411   20.7138  104.4417 H   0  0  0  0  0  0
   12.7204   20.8635  106.7235 H   0  0  0  0  0  0
   13.8922   20.6921  105.4582 H   0  0  0  0  0  0
   12.9038   18.4877  107.3552 H   0  0  0  0  0  0
   14.4984   19.2157  107.2660 H   0  0  0  0  0  0
   16.5080   12.1452  110.6661 H   0  0  0  0  0  0
   16.9898   11.4604  112.9880 H   0  0  0  0  0  0
   18.4663   12.8332  114.4098 H   0  0  0  0  0  0
   19.4288   14.9386  113.5421 H   0  0  0  0  0  0
   18.9091   15.6762  111.2470 H   0  0  0  0  0  0
   21.1817   13.1149  107.7509 H   0  0  0  0  0  0
   22.9436   13.0776  106.0259 H   0  0  0  0  0  0
   23.3489   15.0604  104.6161 H   0  0  0  0  0  0
   21.9738   17.0957  104.8981 H   0  0  0  0  0  0
   20.2022   17.1514  106.6102 H   0  0  0  0  0  0
  1  2  2  0  0  0
  1  4  1  0  0  0
  1 14  1  0  0  0
  2  3  1  0  0  0
  2 31  1  0  0  0
  3  6  2  0  0  0
  3 32  1  0  0  0
  4  5  2  0  0  0
  4 33  1  0  0  0
  5 10  1  0  0  0
  5  6  1  0  0  0
  6  7  1  0  0  0
  7  8  1  0  0  0
  7 34  1  0  0  0
  8  9  1  0  0  0
  8 13  1  0  0  0
  8 35  1  0  0  0
  9 10  1  0  0  0
  9 12  1  0  0  0
 10 11  2  0  0  0
 12 20  2  0  0  0
 12 24  1  0  0  0
 13 25  1  0  0  0
 13 36  1  0  0  0
 13 37  1  0  0  0
 14 19  1  0  0  0
 14 15  1  0  0  0
 15 16  1  0  0  0
 15 38  1  0  0  0
 15 39  1  0  0  0
 16 17  1  0  0  0
 16 40  1  0  0  0
 16 41  1  0  0  0
 17 18  1  0  0  0
 17 42  1  0  0  0
 17 43  1  0  0  0
 18 19  1  0  0  0
 18 44  1  0  0  0
 18 45  1  0  0  0
 19 46  1  0  0  0
 19 47  1  0  0  0
 20 21  1  0  0  0
 20 48  1  0  0  0
 21 22  2  0  0  0
 21 49  1  0  0  0
 22 23  1  0  0  0
 22 50  1  0  0  0
 23 24  2  0  0  0
 23 51  1  0  0  0
 24 52  1  0  0  0
 25 26  2  0  0  0
 25 30  1  0  0  0
 26 27  1  0  0  0
 26 53  1  0  0  0
 27 28  2  0  0  0
 27 54  1  0  0  0
 28 29  1  0  0  0
 28 55  1  0  0  0
 29 30  2  0  0  0
 29 56  1  0  0  0
 30 57  1  0  0  0
M  END
> <s_m_entry_id>
512

> <s_m_entry_name>
dock_pv.511

> <s_m_Source_Path>
/home/csk/Desktop/cluster/DUD-E-result/kif11

> <s_m_Source_File>
dock_pv.maegz

> <i_m_Source_File_Index>
511

> <chembl_id>
CHEMBL1818766

> <chembl_pref_name>
None

> <i_lp_mmshare_version>
53161

> <i_f3d_flags>
0

> <r_lp_tautomer_probability>
1

> <s_lp_Force_Field>
OPLS_2005

> <r_lp_Energy>
54.15832

> <b_lp_Chiralities_Consistent>
1

> <s_lp_Variant>
CHEMBL4581_lig506-1

> <s_i_glide_gridfile>
glide-grid_3cjo

> <i_i_glide_lignum>
736

> <i_i_glide_rotatable_bonds>
4

> <r_i_docking_score>
-7.01366035673668

> <r_i_glide_ligand_efficiency>
-0.233788678557889

> <r_i_glide_ligand_efficiency_sa>
-0.726435780715488

> <r_i_glide_ligand_efficiency_ln>
-1.59358005300092

> <r_i_glide_gscore>
-7.01366035673668

> <r_i_glide_lipo>
-3.93925511186845

> <r_i_glide_hbond>
0

> <r_i_glide_metal>
0

> <r_i_glide_rewards>
-1.29870160214324

> <r_i_glide_evdw>
-40.5454292297363

> <r_i_glide_ecoul>
-1.62643098831177

> <r_i_glide_erotb>
0.495532467008594

> <r_i_glide_esite>
0

> <r_i_glide_emodel>
-56.4083267808536

> <r_i_glide_energy>
-42.1718602180481

> <r_i_glide_einternal>
6.72243881225586

> <i_i_glide_confnum>
190

> <i_i_glide_posenum>
143

> <r_i_glide_eff_state_penalty>
0

> <s_user_duplicate_titles>
CHEMBL4581_lig506

> <s_m_subgroup_title>
dock_pv

> <s_m_subgroupid>
dock_pv

> <b_m_subgroup_collapsed>
1

$$$$
CHEMBL4581_lig802
                    3D
 Schrodinger Suite 2021-1.
 53 56  0  0  1  0            999 V2000
   15.7883   14.5854  107.4923 S   0  0  0  0  0  0
   16.4982   13.2959  106.4022 C   0  0  0  0  0  0
   15.8042   13.1741  105.0237 C   0  0  1  0  0  0
   14.3127   12.7339  105.0630 C   0  0  0  0  0  0
   14.1193   11.5752  105.7590 O   0  0  0  0  0  0
   13.4192   13.3409  104.4698 O   0  0  0  0  0  0
   15.9187   14.4234  104.2409 N   0  0  0  0  0  0
   17.1257   15.0819  108.6889 C   0  0  0  0  0  0
   17.2776   14.0538  109.8740 C   0  0  0  0  0  0
   18.4451   15.1922  107.8496 C   0  0  0  0  0  0
   16.5525   16.4194  109.2647 C   0  0  0  0  0  0
   18.4901   16.0018  106.7035 C   0  0  0  0  0  0
   19.6339   16.0913  105.9168 C   0  0  0  0  0  0
   20.7486   15.3275  106.2393 C   0  0  0  0  0  0
   20.7180   14.4741  107.3358 C   0  0  0  0  0  0
   19.5800   14.4070  108.1312 C   0  0  0  0  0  0
   15.4943   16.3475  110.1864 C   0  0  0  0  0  0
   14.8996   17.4916  110.7076 C   0  0  0  0  0  0
   15.3515   18.7401  110.3065 C   0  0  0  0  0  0
   16.4032   18.8459  109.4072 C   0  0  0  0  0  0
   17.0232   17.6982  108.9135 C   0  0  0  0  0  0
   16.5970   12.8292  109.8946 C   0  0  0  0  0  0
   17.4881   12.2441  112.0596 C   0  0  0  0  0  0
   16.7182   11.9519  110.9588 C   0  0  0  0  0  0
   18.1360   14.3506  111.0026 C   0  0  0  0  0  0
   18.2324   13.4182  112.0891 C   0  0  0  0  0  0
   19.0984   13.6466  113.1771 C   0  0  0  0  0  0
   19.9077   14.7620  113.1791 C   0  0  0  0  0  0
   19.7975   15.7022  112.1590 C   0  0  0  0  0  0
   18.9339   15.5189  111.0940 C   0  0  0  0  0  0
   17.5541   13.4752  106.2143 H   0  0  0  0  0  0
   16.4754   12.3620  106.9430 H   0  0  0  0  0  0
   16.3186   12.3796  104.4811 H   0  0  0  0  0  0
   14.8671   11.2536  106.2816 H   0  0  0  0  0  0
   15.1074   14.5137  103.6421 H   0  0  0  0  0  0
   15.9032   15.2144  104.8696 H   0  0  0  0  0  0
   17.6188   16.5684  106.4113 H   0  0  0  0  0  0
   19.6501   16.7363  105.0507 H   0  0  0  0  0  0
   21.6335   15.3786  105.6222 H   0  0  0  0  0  0
   21.5755   13.8598  107.5670 H   0  0  0  0  0  0
   19.6035   13.7094  108.9529 H   0  0  0  0  0  0
   15.1179   15.3841  110.4921 H   0  0  0  0  0  0
   14.0807   17.4137  111.4068 H   0  0  0  0  0  0
   14.8838   19.6337  110.6944 H   0  0  0  0  0  0
   16.7181   19.8287  109.0958 H   0  0  0  0  0  0
   17.8574   17.8421  108.2487 H   0  0  0  0  0  0
   15.9546   12.5156  109.0897 H   0  0  0  0  0  0
   17.5552   11.5552  112.8864 H   0  0  0  0  0  0
   16.2388   10.9921  110.9460 H   0  0  0  0  0  0
   19.1589   12.9290  113.9837 H   0  0  0  0  0  0
   20.5945   14.9308  113.9955 H   0  0  0  0  0  0
   20.3785   16.6096  112.1844 H   0  0  0  0  0  0
   18.9144   16.2681  110.3197 H   0  0  0  0  0  0
  1  8  1  0  0  0
  1  2  1  0  0  0
  2  3  1  0  0  0
  2 31  1  0  0  0
  2 32  1  0  0  0
  3  7  1  0  0  0
  3  4  1  0  0  0
  3 33  1  0  0  0
  4  5  1  0  0  0
  4  6  2  0  0  0
  5 34  1  0  0  0
  7 35  1  0  0  0
  7 36  1  0  0  0
  8  9  1  0  0  0
  8 10  1  0  0  0
  8 11  1  0  0  0
  9 22  1  0  0  0
  9 25  2  0  0  0
 10 16  1  0  0  0
 10 12  2  0  0  0
 11 17  2  0  0  0
 11 21  1  0  0  0
 12 13  1  0  0  0
 12 37  1  0  0  0
 13 14  2  0  0  0
 13 38  1  0  0  0
 14 15  1  0  0  0
 14 39  1  0  0  0
 15 16  2  0  0  0
 15 40  1  0  0  0
 16 41  1  0  0  0
 17 18  1  0  0  0
 17 42  1  0  0  0
 18 19  2  0  0  0
 18 43  1  0  0  0
 19 20  1  0  0  0
 19 44  1  0  0  0
 20 21  2  0  0  0
 20 45  1  0  0  0
 21 46  1  0  0  0
 22 24  2  0  0  0
 22 47  1  0  0  0
 23 26  2  0  0  0
 23 24  1  0  0  0
 23 48  1  0  0  0
 24 49  1  0  0  0
 25 26  1  0  0  0
 25 30  1  0  0  0
 26 27  1  0  0  0
 27 28  2  0  0  0
 27 50  1  0  0  0
 28 29  1  0  0  0
 28 51  1  0  0  0
 29 30  2  0  0  0
 29 52  1  0  0  0
 30 53  1  0  0  0
M  END
> <s_m_entry_id>
513

> <s_m_entry_name>
dock_pv.512

> <s_m_Source_Path>
/home/csk/Desktop/cluster/DUD-E-result/kif11

> <s_m_Source_File>
dock_pv.maegz

> <i_m_Source_File_Index>
512

> <chembl_id>
CHEMBL272618

> <chembl_pref_name>
None

> <i_lp_mmshare_version>
53161

> <i_f3d_flags>
0

> <r_lp_tautomer_probability>
1

> <s_lp_Force_Field>
OPLS_2005

> <r_lp_Energy>
35.907531

> <b_lp_Chiralities_Consistent>
1

> <s_lp_Variant>
CHEMBL4581_lig802-1

> <s_i_glide_gridfile>
glide-grid_3cjo

> <i_i_glide_lignum>
1187

> <i_i_glide_rotatable_bonds>
8

> <r_i_docking_score>
-7.00913504380329

> <r_i_glide_ligand_efficiency>
-0.233637834793443

> <r_i_glide_ligand_efficiency_sa>
-0.725967074067811

> <r_i_glide_ligand_efficiency_ln>
-1.59255185259522

> <r_i_glide_gscore>
-7.00913504380329

> <r_i_glide_lipo>
-4.28707247114718

> <r_i_glide_hbond>
0

> <r_i_glide_metal>
0

> <r_i_glide_rewards>
-0.737898881892401

> <r_i_glide_evdw>
-37.3257141113281

> <r_i_glide_ecoul>
-6.16973638534546

> <r_i_glide_erotb>
0.807582472604521

> <r_i_glide_esite>
0

> <r_i_glide_emodel>
-57.6857058855991

> <r_i_glide_energy>
-43.4954504966736

> <r_i_glide_einternal>
6.64743518829346

> <i_i_glide_confnum>
91

> <i_i_glide_posenum>
160

> <r_i_glide_eff_state_penalty>
0

> <s_user_duplicate_titles>
CHEMBL4581_lig802

> <s_m_subgroup_title>
dock_pv

> <s_m_subgroupid>
dock_pv

> <b_m_subgroup_collapsed>
1

$$$$
CHEMBL4581_lig581
                    3D
 Schrodinger Suite 2021-1.
 54 57  0  0  1  0            999 V2000
   13.6859   14.5133  100.8784 C   0  0  0  0  0  0
   14.5341   15.3022  100.1056 C   0  0  0  0  0  0
   15.8492   15.5326  100.5024 C   0  0  0  0  0  0
   16.3180   14.9776  101.6905 C   0  0  0  0  0  0
   15.4684   14.1999  102.4799 C   0  0  0  0  0  0
   14.1507   13.9574  102.0672 C   0  0  0  0  0  0
   16.0043   13.6834  103.6678 N   0  0  0  0  0  0
   15.3721   13.5105  104.8440 C   0  0  0  0  0  0
   16.2654   13.0704  106.0090 C   0  0  0  0  0  0
   14.1774   13.7271  105.0450 O   0  0  0  0  0  0
   16.7367   14.2490  106.9210 C   0  0  2  0  0  0
   17.8083   15.0725  106.2402 C   0  0  0  0  0  0
   18.9395   14.7620  106.9061 N   0  0  0  0  0  0
   18.7799   14.0341  108.0651 C   0  0  0  0  0  0
   17.4312   13.7886  108.1102 N   0  0  0  0  0  0
   17.6472   15.8096  105.2628 O   0  0  0  0  0  0
   19.9549   13.5620  109.1668 S   0  0  0  0  0  0
   20.1902   15.2673  106.4636 C   0  0  0  0  0  0
   20.3707   16.6472  106.3931 C   0  0  0  0  0  0
   21.6206   17.1620  106.1041 C   0  0  0  0  0  0
   22.6875   16.3183  105.8523 C   0  0  0  0  0  0
   22.5089   14.9390  105.8241 C   0  0  0  0  0  0
   21.2630   14.4135  106.1590 C   0  0  0  0  0  0
   16.6461   13.1560  109.1852 C   0  0  0  0  0  0
   16.1415   14.1416  110.2644 C   0  0  0  0  0  0
   17.2758   14.7065  111.0969 C   0  0  0  0  0  0
   17.9309   13.7611  112.4120 S   0  0  0  0  0  0
   19.2302   14.8698  112.6163 C   0  0  0  0  0  0
   19.1180   15.9508  111.7590 C   0  0  0  0  0  0
   17.9751   15.9173  110.9474 C   0  0  0  0  0  0
   14.0754   15.8497   98.9590 F   0  0  0  0  0  0
   23.9180   16.8558  105.7590 F   0  0  0  0  0  0
   17.6614   16.9838  109.9186 C   0  0  0  0  0  0
   12.6690   14.3401  100.5593 H   0  0  0  0  0  0
   16.4950   16.1477   99.8935 H   0  0  0  0  0  0
   17.3317   15.1746  102.0064 H   0  0  0  0  0  0
   13.4848   13.3461  102.6587 H   0  0  0  0  0  0
   17.0107   13.5725  103.6993 H   0  0  0  0  0  0
   15.6703   12.3620  106.5793 H   0  0  0  0  0  0
   17.1160   12.4916  105.6424 H   0  0  0  0  0  0
   15.9070   14.9001  107.2038 H   0  0  0  0  0  0
   19.5599   17.3201  106.6298 H   0  0  0  0  0  0
   21.7744   18.2272  106.1590 H   0  0  0  0  0  0
   23.3446   14.2831  105.6304 H   0  0  0  0  0  0
   21.1400   13.3421  106.1999 H   0  0  0  0  0  0
   15.7862   12.6488  108.7500 H   0  0  0  0  0  0
   17.2343   12.3620  109.6487 H   0  0  0  0  0  0
   15.5359   14.9261  109.8097 H   0  0  0  0  0  0
   15.4580   13.5951  110.9124 H   0  0  0  0  0  0
   20.0003   14.6809  113.3495 H   0  0  0  0  0  0
   19.8311   16.7620  111.7410 H   0  0  0  0  0  0
   18.5691   17.4538  109.5374 H   0  0  0  0  0  0
   17.1510   16.5835  109.0435 H   0  0  0  0  0  0
   17.0375   17.7750  110.3345 H   0  0  0  0  0  0
  1  6  1  0  0  0
  1  2  2  0  0  0
  1 34  1  0  0  0
  2  3  1  0  0  0
  2 31  1  0  0  0
  3  4  2  0  0  0
  3 35  1  0  0  0
  4  5  1  0  0  0
  4 36  1  0  0  0
  5  6  2  0  0  0
  5  7  1  0  0  0
  6 37  1  0  0  0
  7  8  1  0  0  0
  7 38  1  0  0  0
  8  9  1  0  0  0
  8 10  2  0  0  0
  9 11  1  0  0  0
  9 39  1  0  0  0
  9 40  1  0  0  0
 11 12  1  0  0  0
 11 15  1  0  0  0
 11 41  1  0  0  0
 12 16  2  0  0  0
 12 13  1  0  0  0
 13 18  1  0  0  0
 13 14  1  0  0  0
 14 17  2  0  0  0
 14 15  1  0  0  0
 15 24  1  0  0  0
 18 19  2  0  0  0
 18 23  1  0  0  0
 19 20  1  0  0  0
 19 42  1  0  0  0
 20 21  2  0  0  0
 20 43  1  0  0  0
 21 22  1  0  0  0
 21 32  1  0  0  0
 22 23  2  0  0  0
 22 44  1  0  0  0
 23 45  1  0  0  0
 24 25  1  0  0  0
 24 46  1  0  0  0
 24 47  1  0  0  0
 25 26  1  0  0  0
 25 48  1  0  0  0
 25 49  1  0  0  0
 26 27  1  0  0  0
 26 30  2  0  0  0
 27 28  1  0  0  0
 28 29  2  0  0  0
 28 50  1  0  0  0
 29 30  1  0  0  0
 29 51  1  0  0  0
 30 33  1  0  0  0
 33 52  1  0  0  0
 33 53  1  0  0  0
 33 54  1  0  0  0
M  END
> <s_m_entry_id>
514

> <s_m_entry_name>
dock_pv.513

> <s_m_Source_Path>
/home/csk/Desktop/cluster/DUD-E-result/kif11

> <s_m_Source_File>
dock_pv.maegz

> <i_m_Source_File_Index>
513

> <chembl_id>
CHEMBL2031570

> <chembl_pref_name>
None

> <i_lp_mmshare_version>
53161

> <i_f3d_flags>
0

> <r_lp_tautomer_probability>
1

> <s_lp_Force_Field>
OPLS_2005

> <r_lp_Energy>
46.803383

> <b_lp_Chiralities_Consistent>
1

> <s_lp_Variant>
CHEMBL4581_lig581-1

> <s_i_glide_gridfile>
glide-grid_3cjo

> <i_i_glide_lignum>
892

> <i_i_glide_rotatable_bonds>
8

> <r_i_docking_score>
-7.00218682270653

> <r_i_glide_ligand_efficiency>
-0.212187479475955

> <r_i_glide_ligand_efficiency_sa>
-0.680598624021172

> <r_i_glide_ligand_efficiency_ln>
-1.55725009398691

> <r_i_glide_gscore>
-7.00218682270653

> <r_i_glide_lipo>
-3.56407738150281

> <r_i_glide_hbond>
-0.0976846213767689

> <r_i_glide_metal>
0

> <r_i_glide_rewards>
-1.19236533342702

> <r_i_glide_evdw>
-43.1856231689453

> <r_i_glide_ecoul>
-3.51627659797668

> <r_i_glide_erotb>
0.603158455164018

> <r_i_glide_esite>
-0.0644952934201719

> <r_i_glide_emodel>
-63.926827101719

> <r_i_glide_energy>
-46.701899766922

> <r_i_glide_einternal>
4.78931522369385

> <i_i_glide_confnum>
4

> <i_i_glide_posenum>
86

> <r_i_glide_eff_state_penalty>
0

> <s_user_duplicate_titles>
CHEMBL4581_lig581

> <s_m_subgroup_title>
dock_pv

> <s_m_subgroupid>
dock_pv

> <b_m_subgroup_collapsed>
1

$$$$
CHEMBL4581_lig824
                    3D
 Schrodinger Suite 2021-1.
 48 50  0  0  1  0            999 V2000
   15.3688   18.0408  110.3758 C   0  0  0  0  0  0
   15.6113   19.3417  109.7755 N   0  0  0  0  0  0
   16.6807   17.3865  110.8485 C   0  0  0  0  0  0
   17.8849   16.9645  109.5441 S   0  0  0  0  0  0
   17.9646   15.1120  109.3472 C   0  0  0  0  0  0
   19.2579   14.8321  108.5128 C   0  0  0  0  0  0
   18.0765   14.4288  110.7521 C   0  0  0  0  0  0
   16.6873   14.6429  108.5679 C   0  0  0  0  0  0
   20.1663   13.8209  108.8720 C   0  0  0  0  0  0
   21.2832   13.5533  108.0903 C   0  0  0  0  0  0
   21.5180   14.2836  106.9326 C   0  0  0  0  0  0
   20.6789   15.3312  106.5663 C   0  0  0  0  0  0
   19.5485   15.5901  107.3573 C   0  0  0  0  0  0
   15.4172   14.7835  109.1517 C   0  0  0  0  0  0
   14.2647   14.3616  108.4960 C   0  0  0  0  0  0
   14.3645   13.7659  107.2443 C   0  0  0  0  0  0
   15.6080   13.5901  106.6488 C   0  0  0  0  0  0
   16.7567   14.0235  107.3036 C   0  0  0  0  0  0
   17.3944   13.2327  111.0437 C   0  0  0  0  0  0
   17.5179   12.6209  112.2879 C   0  0  0  0  0  0
   18.3277   13.1938  113.2616 C   0  0  0  0  0  0
   19.0333   14.3615  112.9894 C   0  0  0  0  0  0
   18.9097   14.9735  111.7446 C   0  0  0  0  0  0
   21.0416   16.0431  105.4398 O   0  0  0  0  0  0
   20.2543   17.1527  105.0253 C   0  0  0  0  0  0
   14.8584   17.4099  109.6490 H   0  0  0  0  0  0
   14.6920   18.1661  111.2221 H   0  0  0  0  0  0
   14.7388   19.7724  109.5028 H   0  0  0  0  0  0
   16.0348   19.9633  110.4508 H   0  0  0  0  0  0
   16.4530   16.4992  111.4344 H   0  0  0  0  0  0
   17.1864   18.0615  111.5392 H   0  0  0  0  0  0
   20.0093   13.1994  109.7408 H   0  0  0  0  0  0
   21.9634   12.7631  108.3664 H   0  0  0  0  0  0
   22.3837   14.0591  106.3267 H   0  0  0  0  0  0
   18.8714   16.3781  107.0675 H   0  0  0  0  0  0
   15.3115   15.2027  110.1379 H   0  0  0  0  0  0
   13.2979   14.4831  108.9630 H   0  0  0  0  0  0
   13.4738   13.4244  106.7375 H   0  0  0  0  0  0
   15.6859   13.1075  105.6871 H   0  0  0  0  0  0
   17.6948   13.8401  106.8035 H   0  0  0  0  0  0
   16.7776   12.7452  110.3030 H   0  0  0  0  0  0
   16.9802   11.7064  112.4954 H   0  0  0  0  0  0
   18.4227   12.7219  114.2298 H   0  0  0  0  0  0
   19.6797   14.7860  113.7432 H   0  0  0  0  0  0
   19.4784   15.8717  111.5510 H   0  0  0  0  0  0
   20.6680   17.5563  104.1015 H   0  0  0  0  0  0
   19.2201   16.8673  104.8261 H   0  0  0  0  0  0
   20.2730   17.9571  105.7593 H   0  0  0  0  0  0
  1  3  1  0  0  0
  1  2  1  0  0  0
  1 26  1  0  0  0
  1 27  1  0  0  0
  2 28  1  0  0  0
  2 29  1  0  0  0
  3  4  1  0  0  0
  3 30  1  0  0  0
  3 31  1  0  0  0
  4  5  1  0  0  0
  5  7  1  0  0  0
  5  8  1  0  0  0
  5  6  1  0  0  0
  6 13  1  0  0  0
  6  9  2  0  0  0
  7 19  2  0  0  0
  7 23  1  0  0  0
  8 14  2  0  0  0
  8 18  1  0  0  0
  9 10  1  0  0  0
  9 32  1  0  0  0
 10 11  2  0  0  0
 10 33  1  0  0  0
 11 12  1  0  0  0
 11 34  1  0  0  0
 12 13  2  0  0  0
 12 24  1  0  0  0
 13 35  1  0  0  0
 14 15  1  0  0  0
 14 36  1  0  0  0
 15 16  2  0  0  0
 15 37  1  0  0  0
 16 17  1  0  0  0
 16 38  1  0  0  0
 17 18  2  0  0  0
 17 39  1  0  0  0
 18 40  1  0  0  0
 19 20  1  0  0  0
 19 41  1  0  0  0
 20 21  2  0  0  0
 20 42  1  0  0  0
 21 22  1  0  0  0
 21 43  1  0  0  0
 22 23  2  0  0  0
 22 44  1  0  0  0
 23 45  1  0  0  0
 24 25  1  0  0  0
 25 46  1  0  0  0
 25 47  1  0  0  0
 25 48  1  0  0  0
M  END
> <s_m_entry_id>
515

> <s_m_entry_name>
dock_pv.514

> <s_m_Source_Path>
/home/csk/Desktop/cluster/DUD-E-result/kif11

> <s_m_Source_File>
dock_pv.maegz

> <i_m_Source_File_Index>
514

> <chembl_id>
CHEMBL2022986

> <chembl_pref_name>
None

> <i_lp_mmshare_version>
53161

> <i_f3d_flags>
0

> <r_lp_tautomer_probability>
1

> <s_lp_Force_Field>
OPLS_2005

> <r_lp_Energy>
26.960439

> <b_lp_Chiralities_Consistent>
1

> <s_lp_Variant>
CHEMBL4581_lig824-1

> <s_i_glide_gridfile>
glide-grid_3cjo

> <i_i_glide_lignum>
1211

> <i_i_glide_rotatable_bonds>
7

> <r_i_docking_score>
-6.99953649809264

> <r_i_glide_ligand_efficiency>
-0.279981459923706

> <r_i_glide_ligand_efficiency_sa>
-0.81867075430925

> <r_i_glide_ligand_efficiency_ln>
-1.65909990923028

> <r_i_glide_gscore>
-6.99953649809264

> <r_i_glide_lipo>
-4.63005410202761

> <r_i_glide_hbond>
0

> <r_i_glide_metal>
0

> <r_i_glide_rewards>
-1.12620226592547

> <r_i_glide_evdw>
-42.942138671875

> <r_i_glide_ecoul>
0.826871633529663

> <r_i_glide_erotb>
0.77979605842474

> <r_i_glide_esite>
0

> <r_i_glide_emodel>
-56.371883745256

> <r_i_glide_energy>
-42.1152670383453

> <r_i_glide_einternal>
6.31448173522949

> <i_i_glide_confnum>
169

> <i_i_glide_posenum>
396

> <r_i_glide_eff_state_penalty>
0

> <s_user_duplicate_titles>
CHEMBL4581_lig824

> <s_m_subgroup_title>
dock_pv

> <s_m_subgroupid>
dock_pv

> <b_m_subgroup_collapsed>
1

$$$$
CHEMBL4581_lig117
                    3D
 Schrodinger Suite 2021-1.
 65 68  0  0  1  0            999 V2000
   18.7551   16.0720  106.8132 N   0  0  0  0  0  0
   18.1338   15.3574  107.6910 C   0  0  0  0  0  0
   18.7703   14.3089  108.3622 N   0  0  0  0  0  0
   20.1096   13.9622  108.2284 C   0  0  0  0  0  0
   20.0417   15.6783  106.5053 N   0  0  0  0  0  0
   20.7167   14.6274  107.0927 C   0  0  0  0  0  0
   21.9448   14.4898  106.4688 C   0  0  0  0  0  0
   22.0571   15.5069  105.5248 C   0  0  0  0  0  0
   20.8748   16.2301  105.5537 C   0  0  0  0  0  0
   16.6573   15.7105  108.0677 C   0  0  2  0  0  0
   15.6777   14.8906  107.2855 N   0  0  0  0  0  0
   16.3184   17.2272  107.9955 C   0  0  0  0  0  0
   17.2016   18.1364  108.8758 C   0  0  0  0  0  0
   15.6014   14.8615  105.9140 C   0  0  0  0  0  0
   14.6766   13.8623  105.2585 C   0  0  0  0  0  0
   16.2416   15.6177  105.1827 O   0  0  0  0  0  0
   14.5678   14.3659  108.1170 C   0  0  0  0  0  0
   13.2709   15.2084  108.0867 C   0  0  0  0  0  0
   12.0732   14.5229  108.7639 C   0  0  0  0  0  0
   11.6005   13.3994  107.9800 N   0  0  0  0  0  0
   13.6783   14.3023  104.3835 C   0  0  0  0  0  0
   12.7897   13.3878  103.8219 C   0  0  0  0  0  0
   12.9000   12.0297  104.1232 C   0  0  0  0  0  0
   13.9194   11.5810  104.9613 C   0  0  0  0  0  0
   14.8125   12.4933  105.5151 C   0  0  0  0  0  0
   11.9228   11.0325  103.5326 C   0  0  0  0  0  0
   17.9916   13.3683  109.2063 C   0  0  0  0  0  0
   18.1441   13.4553  110.7219 C   0  0  0  0  0  0
   18.9188   14.4422  111.3438 C   0  0  0  0  0  0
   19.0508   14.4464  112.7267 C   0  0  0  0  0  0
   18.3777   13.4975  113.4875 C   0  0  0  0  0  0
   17.6023   12.5141  112.8816 C   0  0  0  0  0  0
   17.4981   12.4867  111.4943 C   0  0  0  0  0  0
   20.6978   13.1623  108.9587 O   0  0  0  0  0  0
   20.3970   17.5619  104.5818 Cl  0  0  0  0  0  0
   22.6981   13.7514  106.7009 H   0  0  0  0  0  0
   22.8967   15.6861  104.8683 H   0  0  0  0  0  0
   16.5403   15.4773  109.1261 H   0  0  0  0  0  0
   16.3243   17.5620  106.9591 H   0  0  0  0  0  0
   15.2921   17.3744  108.3285 H   0  0  0  0  0  0
   16.8594   19.1688  108.8290 H   0  0  0  0  0  0
   17.1698   17.8272  109.9214 H   0  0  0  0  0  0
   18.2448   18.1290  108.5589 H   0  0  0  0  0  0
   14.3316   13.3513  107.8057 H   0  0  0  0  0  0
   14.8761   14.2424  109.1548 H   0  0  0  0  0  0
   13.4493   16.1483  108.6071 H   0  0  0  0  0  0
   13.0003   15.4784  107.0649 H   0  0  0  0  0  0
   12.3376   14.1729  109.7588 H   0  0  0  0  0  0
   11.2516   15.2307  108.8840 H   0  0  0  0  0  0
   11.2393   13.7202  107.0918 H   0  0  0  0  0  0
   12.3585   12.7687  107.7569 H   0  0  0  0  0  0
   13.5744   15.3558  104.1526 H   0  0  0  0  0  0
   12.0096   13.7381  103.1614 H   0  0  0  0  0  0
   14.0218   10.5310  105.1934 H   0  0  0  0  0  0
   15.6016   12.1332  106.1582 H   0  0  0  0  0  0
   11.6681   11.3012  102.5060 H   0  0  0  0  0  0
   12.3449   10.0250  103.5047 H   0  0  0  0  0  0
   11.0047   11.0088  104.1222 H   0  0  0  0  0  0
   16.9336   13.3789  108.9631 H   0  0  0  0  0  0
   18.2892   12.3621  108.9207 H   0  0  0  0  0  0
   19.4384   15.1927  110.7680 H   0  0  0  0  0  0
   19.6746   15.1810  113.2121 H   0  0  0  0  0  0
   18.4710   13.5331  114.5585 H   0  0  0  0  0  0
   17.0839   11.7771  113.4795 H   0  0  0  0  0  0
   16.9060   11.7167  111.0211 H   0  0  0  0  0  0
  1  5  1  0  0  0
  1  2  2  0  0  0
  2 10  1  0  0  0
  2  3  1  0  0  0
  3  4  1  0  0  0
  3 27  1  0  0  0
  4  6  1  0  0  0
  4 34  2  0  0  0
  5  9  1  0  0  0
  5  6  1  0  0  0
  6  7  2  0  0  0
  7  8  1  0  0  0
  7 36  1  0  0  0
  8  9  2  0  0  0
  8 37  1  0  0  0
  9 35  1  0  0  0
 10 11  1  0  0  0
 10 12  1  0  0  0
 10 38  1  0  0  0
 11 17  1  0  0  0
 11 14  1  0  0  0
 12 13  1  0  0  0
 12 39  1  0  0  0
 12 40  1  0  0  0
 13 41  1  0  0  0
 13 42  1  0  0  0
 13 43  1  0  0  0
 14 15  1  0  0  0
 14 16  2  0  0  0
 15 21  2  0  0  0
 15 25  1  0  0  0
 17 18  1  0  0  0
 17 44  1  0  0  0
 17 45  1  0  0  0
 18 19  1  0  0  0
 18 46  1  0  0  0
 18 47  1  0  0  0
 19 20  1  0  0  0
 19 48  1  0  0  0
 19 49  1  0  0  0
 20 50  1  0  0  0
 20 51  1  0  0  0
 21 22  1  0  0  0
 21 52  1  0  0  0
 22 23  2  0  0  0
 22 53  1  0  0  0
 23 24  1  0  0  0
 23 26  1  0  0  0
 24 25  2  0  0  0
 24 54  1  0  0  0
 25 55  1  0  0  0
 26 56  1  0  0  0
 26 57  1  0  0  0
 26 58  1  0  0  0
 27 28  1  0  0  0
 27 59  1  0  0  0
 27 60  1  0  0  0
 28 29  2  0  0  0
 28 33  1  0  0  0
 29 30  1  0  0  0
 29 61  1  0  0  0
 30 31  2  0  0  0
 30 62  1  0  0  0
 31 32  1  0  0  0
 31 63  1  0  0  0
 32 33  2  0  0  0
 32 64  1  0  0  0
 33 65  1  0  0  0
M  END
> <s_m_entry_id>
516

> <s_m_entry_name>
dock_pv.515

> <s_m_Source_Path>
/home/csk/Desktop/cluster/DUD-E-result/kif11

> <s_m_Source_File>
dock_pv.maegz

> <i_m_Source_File_Index>
515

> <chembl_id>
CHEMBL213686

> <chembl_pref_name>
None

> <i_lp_mmshare_version>
53161

> <i_f3d_flags>
0

> <r_lp_tautomer_probability>
1

> <s_lp_Force_Field>
OPLS_2005

> <r_lp_Energy>
50.919284

> <b_lp_Chiralities_Consistent>
1

> <s_lp_Variant>
CHEMBL4581_lig117-1

> <s_i_glide_gridfile>
glide-grid_3cjo

> <i_i_glide_lignum>
201

> <i_i_glide_rotatable_bonds>
10

> <r_i_docking_score>
-6.98184869860851

> <r_i_glide_ligand_efficiency>
-0.199481391388815

> <r_i_glide_ligand_efficiency_sa>
-0.652516858108187

> <r_i_glide_ligand_efficiency_ln>
-1.53267074312774

> <r_i_glide_gscore>
-6.98184869860851

> <r_i_glide_lipo>
-4.02484370051384

> <r_i_glide_hbond>
0

> <r_i_glide_metal>
0

> <r_i_glide_rewards>
-0.917224503783726

> <r_i_glide_evdw>
-46.7750587463379

> <r_i_glide_ecoul>
-2.48534417152405

> <r_i_glide_erotb>
0.672898723812966

> <r_i_glide_esite>
-0.00112465507840196

> <r_i_glide_emodel>
-63.5677938615986

> <r_i_glide_energy>
-49.2604029178619

> <r_i_glide_einternal>
9.64204692840576

> <i_i_glide_confnum>
88

> <i_i_glide_posenum>
227

> <r_i_glide_eff_state_penalty>
0

> <s_user_duplicate_titles>
CHEMBL4581_lig117,355080

> <s_m_subgroup_title>
dock_pv

> <s_m_subgroupid>
dock_pv

> <b_m_subgroup_collapsed>
1

$$$$
CHEMBL4581_lig72
                    3D
 Schrodinger Suite 2021-1.
 45 47  0  0  1  0            999 V2000
   16.7627   13.7653  108.5233 C   0  0  0  0  0  0
   17.2401   14.3264  107.2503 N   0  0  2  0  0  0
   17.6299   15.7270  107.4196 C   0  0  0  0  0  0
   18.8778   15.8008  108.3267 C   0  0  1  0  0  0
   17.6462   14.0713  109.7500 C   0  0  0  0  0  0
   18.5820   15.1259  109.6765 C   0  0  0  0  0  0
   19.2469   15.5218  110.8377 C   0  0  0  0  0  0
   19.0892   14.8418  112.0351 C   0  0  0  0  0  0
   18.2260   13.7558  112.1117 C   0  0  0  0  0  0
   17.4884   13.3805  110.9715 C   0  0  0  0  0  0
   16.4802   12.2438  111.0518 C   0  0  0  0  0  0
   18.1178   13.0196  113.4430 C   0  0  0  0  0  0
   20.1299   15.2660  107.5948 C   0  0  0  0  0  0
   20.6805   16.0337  106.5593 C   0  0  0  0  0  0
   21.7786   15.5692  105.8399 C   0  0  0  0  0  0
   22.3350   14.3331  106.1587 C   0  0  0  0  0  0
   21.8099   13.5620  107.1919 C   0  0  0  0  0  0
   20.7173   14.0326  107.9173 C   0  0  0  0  0  0
   16.2854   14.2070  106.1434 C   0  0  0  0  0  0
   15.8500   12.7656  105.8284 C   0  0  0  0  0  0
   15.0607   12.7618  104.6096 N   0  0  0  0  0  0
   15.7541   14.1249  108.7333 H   0  0  0  0  0  0
   16.7007   12.6839  108.3953 H   0  0  0  0  0  0
   16.7960   16.3256  107.7920 H   0  0  0  0  0  0
   17.8964   16.1541  106.4512 H   0  0  0  0  0  0
   19.0882   16.8538  108.5243 H   0  0  0  0  0  0
   19.9179   16.3616  110.8127 H   0  0  0  0  0  0
   19.6497   15.1612  112.9019 H   0  0  0  0  0  0
   16.2592   11.9620  112.0768 H   0  0  0  0  0  0
   15.5318   12.5384  110.5986 H   0  0  0  0  0  0
   16.8481   11.3627  110.5293 H   0  0  0  0  0  0
   18.2577   11.9493  113.2931 H   0  0  0  0  0  0
   18.8752   13.3404  114.1587 H   0  0  0  0  0  0
   17.1349   13.1711  113.8896 H   0  0  0  0  0  0
   20.2482   16.9905  106.3036 H   0  0  0  0  0  0
   22.1908   16.1596  105.0347 H   0  0  0  0  0  0
   23.1780   13.9636  105.5935 H   0  0  0  0  0  0
   22.2421   12.6008  107.4239 H   0  0  0  0  0  0
   20.3098   13.4146  108.7038 H   0  0  0  0  0  0
   15.4011   14.8162  106.3421 H   0  0  0  0  0  0
   16.7453   14.6263  105.2462 H   0  0  0  0  0  0
   16.7163   12.1149  105.7037 H   0  0  0  0  0  0
   15.2416   12.3621  106.6367 H   0  0  0  0  0  0
   15.6702   12.9619  103.8288 H   0  0  0  0  0  0
   14.6912   11.8344  104.4564 H   0  0  0  0  0  0
  1  5  1  0  0  0
  1  2  1  0  0  0
  1 22  1  0  0  0
  1 23  1  0  0  0
  2  3  1  0  0  0
  2 19  1  0  0  0
  3  4  1  0  0  0
  3 24  1  0  0  0
  3 25  1  0  0  0
  4  6  1  0  0  0
  4 13  1  0  0  0
  4 26  1  0  0  0
  5 10  1  0  0  0
  5  6  2  0  0  0
  6  7  1  0  0  0
  7  8  2  0  0  0
  7 27  1  0  0  0
  8  9  1  0  0  0
  8 28  1  0  0  0
  9 12  1  0  0  0
  9 10  2  0  0  0
 10 11  1  0  0  0
 11 29  1  0  0  0
 11 30  1  0  0  0
 11 31  1  0  0  0
 12 32  1  0  0  0
 12 33  1  0  0  0
 12 34  1  0  0  0
 13 14  2  0  0  0
 13 18  1  0  0  0
 14 15  1  0  0  0
 14 35  1  0  0  0
 15 16  2  0  0  0
 15 36  1  0  0  0
 16 17  1  0  0  0
 16 37  1  0  0  0
 17 18  2  0  0  0
 17 38  1  0  0  0
 18 39  1  0  0  0
 19 20  1  0  0  0
 19 40  1  0  0  0
 19 41  1  0  0  0
 20 21  1  0  0  0
 20 42  1  0  0  0
 20 43  1  0  0  0
 21 44  1  0  0  0
 21 45  1  0  0  0
M  END
> <s_m_entry_id>
517

> <s_m_entry_name>
dock_pv.516

> <s_m_Source_Path>
/home/csk/Desktop/cluster/DUD-E-result/kif11

> <s_m_Source_File>
dock_pv.maegz

> <i_m_Source_File_Index>
516

> <chembl_id>
CHEMBL381599

> <chembl_pref_name>
None

> <i_lp_mmshare_version>
53161

> <i_f3d_flags>
0

> <r_lp_tautomer_probability>
1

> <s_lp_Force_Field>
OPLS_2005

> <r_lp_Energy>
30.587887

> <b_lp_Chiralities_Consistent>
1

> <s_lp_Variant>
CHEMBL4581_lig72-2

> <s_i_glide_gridfile>
glide-grid_3cjo

> <i_i_glide_lignum>
111

> <i_i_glide_rotatable_bonds>
3

> <r_i_docking_score>
-6.97642352540264

> <r_i_glide_ligand_efficiency>
-0.332210644066792

> <r_i_glide_ligand_efficiency_sa>
-0.916543976636871

> <r_i_glide_ligand_efficiency_ln>
-1.7249066194647

> <r_i_glide_gscore>
-6.97642352540264

> <r_i_glide_lipo>
-4.12790468373957

> <r_i_glide_hbond>
0

> <r_i_glide_metal>
0

> <r_i_glide_rewards>
-1.5434781385932

> <r_i_glide_evdw>
-33.6821060180664

> <r_i_glide_ecoul>
-0.535336911678314

> <r_i_glide_erotb>
0.459365134585191

> <r_i_glide_esite>
0

> <r_i_glide_emodel>
-46.9051142962247

> <r_i_glide_energy>
-34.2174429297447

> <r_i_glide_einternal>
1.85032784938812

> <i_i_glide_confnum>
8

> <i_i_glide_posenum>
326

> <r_i_glide_eff_state_penalty>
0

> <s_user_duplicate_titles>
CHEMBL4581_lig72

> <s_m_subgroup_title>
dock_pv

> <s_m_subgroupid>
dock_pv

> <b_m_subgroup_collapsed>
1

$$$$
CHEMBL4581_lig396
                    3D
 Schrodinger Suite 2021-1.
 49 53  0  0  1  0            999 V2000
   13.2282   12.8740  102.8376 C   0  0  0  0  0  0
   13.0493   11.8322  103.7462 C   0  0  0  0  0  0
   13.7907   11.7446  104.9240 C   0  0  0  0  0  0
   14.1606   13.8826  103.0770 C   0  0  0  0  0  0
   14.9327   13.8341  104.2480 C   0  0  0  0  0  0
   14.7308   12.7536  105.1565 C   0  0  0  0  0  0
   15.6174   12.9362  106.1915 N   0  0  0  0  0  0
   15.9753   14.6543  104.7973 C   0  0  0  0  0  0
   16.3507   14.0839  106.0010 C   0  0  0  0  0  0
   17.5055   14.5832  106.8776 C   0  0  1  0  0  0
   17.9835   15.9171  106.4229 N   0  0  2  0  0  0
   18.0517   16.0322  104.9591 C   0  0  0  0  0  0
   16.6575   15.9141  104.2925 C   0  0  0  0  0  0
   17.2491   14.4731  108.3889 C   0  0  0  0  0  0
   16.9056   15.5967  109.1573 C   0  0  0  0  0  0
   16.8621   15.5184  110.5489 C   0  0  0  0  0  0
   17.1172   14.3029  111.1799 C   0  0  0  0  0  0
   17.3490   13.1621  110.4193 C   0  0  0  0  0  0
   17.4252   13.2442  109.0302 C   0  0  0  0  0  0
   17.5180   11.9620  111.0417 O   0  0  0  0  0  0
   19.2406   16.3623  107.0659 C   0  0  0  0  0  0
   12.2887   12.9133  101.3903 Cl  0  0  0  0  0  0
   20.4783   15.5328  106.7755 C   0  0  0  0  0  0
   20.7187   14.3570  107.4881 C   0  0  0  0  0  0
   21.8141   13.5620  107.1660 C   0  0  0  0  0  0
   22.6729   13.9757  106.1522 C   0  0  0  0  0  0
   22.4520   15.1564  105.4469 C   0  0  0  0  0  0
   21.3455   15.9345  105.7588 C   0  0  0  0  0  0
   12.3137   11.0688  103.5336 H   0  0  0  0  0  0
   13.6477   10.9277  105.6167 H   0  0  0  0  0  0
   14.2910   14.6846  102.3663 H   0  0  0  0  0  0
   15.7609   12.3058  106.9714 H   0  0  0  0  0  0
   18.3189   13.8893  106.6667 H   0  0  0  0  0  0
   18.4579   17.0050  104.6832 H   0  0  0  0  0  0
   18.7462   15.2952  104.5591 H   0  0  0  0  0  0
   16.7832   15.8938  103.2104 H   0  0  0  0  0  0
   16.0643   16.8100  104.4850 H   0  0  0  0  0  0
   16.7344   16.5511  108.6798 H   0  0  0  0  0  0
   16.6486   16.4014  111.1328 H   0  0  0  0  0  0
   17.1155   14.2373  112.2574 H   0  0  0  0  0  0
   17.6581   12.3626  108.4513 H   0  0  0  0  0  0
   17.8673   11.2937  110.4346 H   0  0  0  0  0  0
   19.1197   16.4351  108.1468 H   0  0  0  0  0  0
   19.4784   17.3727  106.7323 H   0  0  0  0  0  0
   20.0540   14.0469  108.2811 H   0  0  0  0  0  0
   21.9988   12.6432  107.6992 H   0  0  0  0  0  0
   23.5178   13.3730  105.8916 H   0  0  0  0  0  0
   23.1195   15.4539  104.6538 H   0  0  0  0  0  0
   21.1566   16.8397  105.2010 H   0  0  0  0  0  0
  1  2  2  0  0  0
  1  4  1  0  0  0
  1 22  1  0  0  0
  2  3  1  0  0  0
  2 29  1  0  0  0
  3  6  2  0  0  0
  3 30  1  0  0  0
  4  5  2  0  0  0
  4 31  1  0  0  0
  5  8  1  0  0  0
  5  6  1  0  0  0
  6  7  1  0  0  0
  7  9  1  0  0  0
  7 32  1  0  0  0
  8  9  2  0  0  0
  8 13  1  0  0  0
  9 10  1  0  0  0
 10 14  1  0  0  0
 10 11  1  0  0  0
 10 33  1  0  0  0
 11 21  1  0  0  0
 11 12  1  0  0  0
 12 13  1  0  0  0
 12 34  1  0  0  0
 12 35  1  0  0  0
 13 36  1  0  0  0
 13 37  1  0  0  0
 14 15  2  0  0  0
 14 19  1  0  0  0
 15 16  1  0  0  0
 15 38  1  0  0  0
 16 17  2  0  0  0
 16 39  1  0  0  0
 17 18  1  0  0  0
 17 40  1  0  0  0
 18 19  2  0  0  0
 18 20  1  0  0  0
 19 41  1  0  0  0
 20 42  1  0  0  0
 21 23  1  0  0  0
 21 43  1  0  0  0
 21 44  1  0  0  0
 23 24  2  0  0  0
 23 28  1  0  0  0
 24 25  1  0  0  0
 24 45  1  0  0  0
 25 26  2  0  0  0
 25 46  1  0  0  0
 26 27  1  0  0  0
 26 47  1  0  0  0
 27 28  2  0  0  0
 27 48  1  0  0  0
 28 49  1  0  0  0
M  END
> <s_m_entry_id>
518

> <s_m_entry_name>
dock_pv.517

> <s_m_Source_Path>
/home/csk/Desktop/cluster/DUD-E-result/kif11

> <s_m_Source_File>
dock_pv.maegz

> <i_m_Source_File_Index>
517

> <chembl_id>
CHEMBL1163892

> <chembl_pref_name>
None

> <i_lp_mmshare_version>
53161

> <i_f3d_flags>
0

> <r_lp_tautomer_probability>
0.999999999997365

> <s_lp_Force_Field>
OPLS_2005

> <r_lp_Energy>
26.115805

> <b_lp_Chiralities_Consistent>
1

> <s_lp_Variant>
CHEMBL4581_lig396-2

> <s_i_glide_gridfile>
glide-grid_3cjo

> <i_i_glide_lignum>
569

> <i_i_glide_rotatable_bonds>
4

> <r_i_docking_score>
-6.97316262458524

> <r_i_glide_ligand_efficiency>
-0.249041522306616

> <r_i_glide_ligand_efficiency_sa>
-0.756236739335417

> <r_i_glide_ligand_efficiency_ln>
-1.60961067470548

> <r_i_glide_gscore>
-6.97316262458524

> <r_i_glide_lipo>
-3.02154477368412

> <r_i_glide_hbond>
-0.581744039181005

> <r_i_glide_metal>
0

> <r_i_glide_rewards>
-0.757574727272726

> <r_i_glide_evdw>
-35.6808090209961

> <r_i_glide_ecoul>
-8.01183319091797

> <r_i_glide_erotb>
0.386590639381133

> <r_i_glide_esite>
-0.0130742941410212

> <r_i_glide_emodel>
-57.3992672983989

> <r_i_glide_energy>
-43.6926422119141

> <r_i_glide_einternal>
6.24207401275635

> <i_i_glide_confnum>
5

> <i_i_glide_posenum>
375

> <r_i_glide_eff_state_penalty>
0

> <s_user_duplicate_titles>
CHEMBL4581_lig396

> <s_m_subgroup_title>
dock_pv

> <s_m_subgroupid>
dock_pv

> <b_m_subgroup_collapsed>
1

$$$$
CHEMBL4581_lig618
                    3D
 Schrodinger Suite 2021-1.
 48 52  0  0  1  0            999 V2000
   15.5431   15.9481  106.4156 C   0  0  0  0  0  0
   17.3385   16.3460  104.3020 C   0  0  0  0  0  0
   17.8225   15.9639  105.5656 C   0  0  0  0  0  0
   16.9254   15.7917  106.6568 C   0  0  0  0  0  0
   17.4461   15.4811  108.0836 C   0  0  1  0  0  0
   18.8975   15.1475  108.0811 N   0  0  0  0  0  0
   19.7638   15.9590  107.1987 C   0  0  0  0  0  0
   19.3134   15.7520  105.7584 C   0  0  0  0  0  0
   15.1073   16.3208  105.1533 C   0  0  0  0  0  0
   15.9777   16.5217  104.1313 C   0  0  0  0  0  0
   15.2956   16.8646  103.0083 O   0  0  0  0  0  0
   13.9701   17.0658  103.4217 C   0  0  0  0  0  0
   13.8397   16.5300  104.7129 O   0  0  0  0  0  0
   17.0223   16.5465  109.1106 C   0  0  0  0  0  0
   17.9350   17.4837  109.6161 C   0  0  0  0  0  0
   17.5330   18.4392  110.5415 C   0  0  0  0  0  0
   16.2080   18.4883  110.9586 C   0  0  0  0  0  0
   15.3003   17.5357  110.5106 C   0  0  0  0  0  0
   15.7108   16.5568  109.6084 C   0  0  0  0  0  0
   14.0094   17.5656  110.9578 O   0  0  0  0  0  0
   19.4896   14.3021  108.9767 C   0  0  0  0  0  0
   20.6974   14.0469  108.9582 O   0  0  0  0  0  0
   18.6820   13.7261  110.1153 C   0  0  0  0  0  0
   17.6073   12.8562  109.8940 C   0  0  0  0  0  0
   16.9524   12.2726  110.9721 C   0  0  0  0  0  0
   17.3603   12.5542  112.2723 C   0  0  0  0  0  0
   18.4066   13.4388  112.5079 C   0  0  0  0  0  0
   19.0727   14.0162  111.4301 C   0  0  0  0  0  0
   16.7196   11.9620  113.3274 O   0  0  0  0  0  0
   14.8148   15.7975  107.1942 H   0  0  0  0  0  0
   18.0106   16.5039  103.4764 H   0  0  0  0  0  0
   16.8917   14.5963  108.3789 H   0  0  0  0  0  0
   19.6973   17.0208  107.4324 H   0  0  0  0  0  0
   20.8255   15.7172  107.2797 H   0  0  0  0  0  0
   19.8785   16.4295  105.1162 H   0  0  0  0  0  0
   19.5957   14.7599  105.4258 H   0  0  0  0  0  0
   13.7633   18.1386  103.4549 H   0  0  0  0  0  0
   13.2783   16.5736  102.7361 H   0  0  0  0  0  0
   18.9669   17.4953  109.3071 H   0  0  0  0  0  0
   18.2447   19.1608  110.9143 H   0  0  0  0  0  0
   15.9041   19.2505  111.6601 H   0  0  0  0  0  0
   14.9974   15.8101  109.2993 H   0  0  0  0  0  0
   13.8389   18.3300  111.5133 H   0  0  0  0  0  0
   17.3167   12.5731  108.8911 H   0  0  0  0  0  0
   16.1567   11.5692  110.7857 H   0  0  0  0  0  0
   18.7147   13.6572  113.5200 H   0  0  0  0  0  0
   19.9058   14.6797  111.6216 H   0  0  0  0  0  0
   15.9931   11.3958  113.0415 H   0  0  0  0  0  0
  1  9  1  0  0  0
  1  4  2  0  0  0
  1 30  1  0  0  0
  2  3  2  0  0  0
  2 10  1  0  0  0
  2 31  1  0  0  0
  3  4  1  0  0  0
  3  8  1  0  0  0
  4  5  1  0  0  0
  5  6  1  0  0  0
  5 14  1  0  0  0
  5 32  1  0  0  0
  6  7  1  0  0  0
  6 21  1  0  0  0
  7  8  1  0  0  0
  7 33  1  0  0  0
  7 34  1  0  0  0
  8 35  1  0  0  0
  8 36  1  0  0  0
  9 10  2  0  0  0
  9 13  1  0  0  0
 10 11  1  0  0  0
 11 12  1  0  0  0
 12 13  1  0  0  0
 12 37  1  0  0  0
 12 38  1  0  0  0
 14 15  2  0  0  0
 14 19  1  0  0  0
 15 16  1  0  0  0
 15 39  1  0  0  0
 16 17  2  0  0  0
 16 40  1  0  0  0
 17 18  1  0  0  0
 17 41  1  0  0  0
 18 19  2  0  0  0
 18 20  1  0  0  0
 19 42  1  0  0  0
 20 43  1  0  0  0
 21 22  2  0  0  0
 21 23  1  0  0  0
 23 24  2  0  0  0
 23 28  1  0  0  0
 24 25  1  0  0  0
 24 44  1  0  0  0
 25 26  2  0  0  0
 25 45  1  0  0  0
 26 27  1  0  0  0
 26 29  1  0  0  0
 27 28  2  0  0  0
 27 46  1  0  0  0
 28 47  1  0  0  0
 29 48  1  0  0  0
M  END
> <s_m_entry_id>
519

> <s_m_entry_name>
dock_pv.518

> <s_m_Source_Path>
/home/csk/Desktop/cluster/DUD-E-result/kif11

> <s_m_Source_File>
dock_pv.maegz

> <i_m_Source_File_Index>
518

> <chembl_id>
CHEMBL2347653

> <chembl_pref_name>
None

> <i_lp_mmshare_version>
53161

> <i_f3d_flags>
0

> <r_lp_tautomer_probability>
0.99999999999473

> <s_lp_Force_Field>
OPLS_2005

> <r_lp_Energy>
46.62564

> <b_lp_Chiralities_Consistent>
1

> <s_lp_Variant>
CHEMBL4581_lig618-2

> <s_i_glide_gridfile>
glide-grid_3cjo

> <i_i_glide_lignum>
952

> <i_i_glide_rotatable_bonds>
5

> <r_i_docking_score>
-6.96663008611022

> <r_i_glide_ligand_efficiency>
-0.240228623658973

> <r_i_glide_ligand_efficiency_sa>
-0.738058441650396

> <r_i_glide_ligand_efficiency_ln>
-1.59518163122277

> <r_i_glide_gscore>
-6.96663008611022

> <r_i_glide_lipo>
-3.12720097451396

> <r_i_glide_hbond>
-0.32

> <r_i_glide_metal>
0

> <r_i_glide_rewards>
-1.34204802337203

> <r_i_glide_evdw>
-38.8425102233887

> <r_i_glide_ecoul>
-4.13956451416016

> <r_i_glide_erotb>
0.385679100069226

> <r_i_glide_esite>
0

> <r_i_glide_emodel>
-58.9987772633042

> <r_i_glide_energy>
-42.9820747375488

> <r_i_glide_einternal>
6.22572898864746

> <i_i_glide_confnum>
54

> <i_i_glide_posenum>
111

> <r_i_glide_eff_state_penalty>
0

> <s_user_duplicate_titles>
CHEMBL4581_lig618

> <s_m_subgroup_title>
dock_pv

> <s_m_subgroupid>
dock_pv

> <b_m_subgroup_collapsed>
1

$$$$
CHEMBL4581_lig209
                    3D
 Schrodinger Suite 2021-1.
 57 60  0  0  1  0            999 V2000
   22.6982   15.2819  105.2103 C   0  0  0  0  0  0
   22.3548   14.2642  106.0866 C   0  0  0  0  0  0
   21.2336   14.3620  106.8923 C   0  0  0  0  0  0
   20.4202   15.4981  106.8461 C   0  0  0  0  0  0
   20.7387   16.5023  105.9122 C   0  0  0  0  0  0
   21.8858   16.4077  105.1210 C   0  0  0  0  0  0
   23.1063   13.1626  106.1590 F   0  0  0  0  0  0
   19.9348   17.5618  105.7265 F   0  0  0  0  0  0
   19.2965   15.5910  107.7941 C   0  0  0  0  0  0
   18.6869   16.6401  108.1604 N   0  0  0  0  0  0
   17.7564   16.3666  109.1265 N   0  0  0  0  0  0
   17.6105   14.8980  109.3369 C   0  0  1  0  0  0
   18.8140   14.3887  108.5345 C   0  0  0  0  0  0
   17.0800   17.3963  109.7268 C   0  0  0  0  0  0
   17.2558   18.5821  109.4341 O   0  0  0  0  0  0
   17.8174   14.4086  110.7994 C   0  0  0  0  0  0
   16.2185   14.4872  108.7064 C   0  0  0  0  0  0
   17.2320   13.2190  111.2594 C   0  0  0  0  0  0
   17.5182   12.7316  112.5314 C   0  0  0  0  0  0
   18.3805   13.4345  113.3642 C   0  0  0  0  0  0
   18.9659   14.6192  112.9312 C   0  0  0  0  0  0
   18.6847   15.1042  111.6573 C   0  0  0  0  0  0
   16.1164   13.1242  107.9859 C   0  0  0  0  0  0
   16.3760   13.1569  106.4599 C   0  0  0  0  0  0
   16.0315   17.1254  110.8123 C   0  0  0  0  0  0
   15.2328   13.6425  105.6854 N   0  0  0  0  0  0
   15.5782   13.8247  104.2817 C   0  0  0  0  0  0
   14.2401   13.9224  103.5506 C   0  0  0  0  0  0
   13.2722   13.1363  104.4385 C   0  0  0  0  0  0
   14.1276   12.6909  105.6270 C   0  0  0  0  0  0
   23.5628   15.1662  104.5770 H   0  0  0  0  0  0
   21.0461   13.5418  107.5670 H   0  0  0  0  0  0
   22.1201   17.1893  104.4134 H   0  0  0  0  0  0
   18.5986   13.5696  107.8576 H   0  0  0  0  0  0
   19.6180   14.0380  109.1847 H   0  0  0  0  0  0
   15.4525   14.5129  109.4814 H   0  0  0  0  0  0
   15.8816   15.2403  107.9905 H   0  0  0  0  0  0
   16.5690   12.6394  110.6373 H   0  0  0  0  0  0
   17.0623   11.8115  112.8696 H   0  0  0  0  0  0
   18.6013   13.0545  114.3526 H   0  0  0  0  0  0
   19.6444   15.1613  113.5743 H   0  0  0  0  0  0
   19.1752   16.0092  111.3309 H   0  0  0  0  0  0
   16.7686   12.3836  108.4489 H   0  0  0  0  0  0
   15.1078   12.7620  108.1611 H   0  0  0  0  0  0
   17.1893   13.8553  106.2564 H   0  0  0  0  0  0
   16.7181   12.1849  106.1033 H   0  0  0  0  0  0
   16.3614   17.5484  111.7618 H   0  0  0  0  0  0
   15.0946   17.6151  110.5413 H   0  0  0  0  0  0
   15.8149   16.0739  110.9755 H   0  0  0  0  0  0
   16.1749   14.7330  104.1837 H   0  0  0  0  0  0
   16.2108   13.0209  103.8967 H   0  0  0  0  0  0
   13.9310   14.9646  103.4484 H   0  0  0  0  0  0
   14.3079   13.5003  102.5467 H   0  0  0  0  0  0
   12.8523   12.2740  103.9187 H   0  0  0  0  0  0
   12.4410   13.7600  104.7704 H   0  0  0  0  0  0
   14.4700   11.6585  105.5299 H   0  0  0  0  0  0
   13.5652   12.7270  106.5609 H   0  0  0  0  0  0
  1  6  1  0  0  0
  1  2  2  0  0  0
  1 31  1  0  0  0
  2  7  1  0  0  0
  2  3  1  0  0  0
  3  4  2  0  0  0
  3 32  1  0  0  0
  4  9  1  0  0  0
  4  5  1  0  0  0
  5  8  1  0  0  0
  5  6  2  0  0  0
  6 33  1  0  0  0
  9 10  2  0  0  0
  9 13  1  0  0  0
 10 11  1  0  0  0
 11 12  1  0  0  0
 11 14  1  0  0  0
 12 16  1  0  0  0
 12 17  1  0  0  0
 12 13  1  0  0  0
 13 34  1  0  0  0
 13 35  1  0  0  0
 14 15  2  0  0  0
 14 25  1  0  0  0
 16 18  2  0  0  0
 16 22  1  0  0  0
 17 23  1  0  0  0
 17 36  1  0  0  0
 17 37  1  0  0  0
 18 19  1  0  0  0
 18 38  1  0  0  0
 19 20  2  0  0  0
 19 39  1  0  0  0
 20 21  1  0  0  0
 20 40  1  0  0  0
 21 22  2  0  0  0
 21 41  1  0  0  0
 22 42  1  0  0  0
 23 24  1  0  0  0
 23 43  1  0  0  0
 23 44  1  0  0  0
 24 26  1  0  0  0
 24 45  1  0  0  0
 24 46  1  0  0  0
 25 47  1  0  0  0
 25 48  1  0  0  0
 25 49  1  0  0  0
 26 27  1  0  0  0
 26 30  1  0  0  0
 27 28  1  0  0  0
 27 50  1  0  0  0
 27 51  1  0  0  0
 28 29  1  0  0  0
 28 52  1  0  0  0
 28 53  1  0  0  0
 29 30  1  0  0  0
 29 54  1  0  0  0
 29 55  1  0  0  0
 30 56  1  0  0  0
 30 57  1  0  0  0
M  END
> <s_m_entry_id>
520

> <s_m_entry_name>
dock_pv.519

> <s_m_Source_Path>
/home/csk/Desktop/cluster/DUD-E-result/kif11

> <s_m_Source_File>
dock_pv.maegz

> <i_m_Source_File_Index>
519

> <chembl_id>
CHEMBL427688

> <chembl_pref_name>
None

> <i_lp_mmshare_version>
53161

> <i_f3d_flags>
0

> <r_lp_tautomer_probability>
1

> <s_lp_Force_Field>
OPLS_2005

> <r_lp_Energy>
50.13492

> <b_lp_Chiralities_Consistent>
1

> <s_lp_Variant>
CHEMBL4581_lig209-1

> <s_i_glide_gridfile>
glide-grid_3cjo

> <i_i_glide_lignum>
316

> <i_i_glide_rotatable_bonds>
7

> <r_i_docking_score>
-6.96545378174064

> <r_i_glide_ligand_efficiency>
-0.232181792724688

> <r_i_glide_ligand_efficiency_sa>
-0.721442812826869

> <r_i_glide_ligand_efficiency_ln>
-1.58262699390911

> <r_i_glide_gscore>
-6.96545378174064

> <r_i_glide_lipo>
-4.09733132536624

> <r_i_glide_hbond>
0

> <r_i_glide_metal>
0

> <r_i_glide_rewards>
-1.51933284533783

> <r_i_glide_evdw>
-38.3332443237305

> <r_i_glide_ecoul>
-0.0908541083335876

> <r_i_glide_erotb>
0.582028758180926

> <r_i_glide_esite>
-0.000528036780939728

> <r_i_glide_emodel>
-46.3085298031897

> <r_i_glide_energy>
-38.4240984320641

> <r_i_glide_einternal>
9.00632190704346

> <i_i_glide_confnum>
37

> <i_i_glide_posenum>
228

> <r_i_glide_eff_state_penalty>
0

> <s_user_duplicate_titles>
CHEMBL4581_lig209,402126

> <s_m_subgroup_title>
dock_pv

> <s_m_subgroupid>
dock_pv

> <b_m_subgroup_collapsed>
1

$$$$
CHEMBL4581_lig757
                    3D
 Schrodinger Suite 2021-1.
 52 54  0  0  1  0            999 V2000
   15.8081   13.7445  105.4768 C   0  0  1  0  0  0
   16.3179   12.3633  105.3590 N   0  0  0  0  0  0
   16.6931   14.6266  106.3864 C   0  0  0  0  0  0
   16.8325   14.0738  107.8333 C   0  0  0  0  0  0
   17.6727   14.9164  108.8761 C   0  0  0  0  0  0
   16.9743   16.2522  109.2758 C   0  0  0  0  0  0
   17.8273   14.1269  110.2217 C   0  0  0  0  0  0
   19.0411   15.1373  108.1575 C   0  0  0  0  0  0
   17.7230   17.2582  109.9062 C   0  0  0  0  0  0
   17.1240   18.4259  110.3533 C   0  0  0  0  0  0
   15.7611   18.6316  110.1569 C   0  0  0  0  0  0
   14.9989   17.6563  109.5166 C   0  0  0  0  0  0
   15.5996   16.4762  109.0821 C   0  0  0  0  0  0
   19.9919   14.1052  108.1590 C   0  0  0  0  0  0
   21.1179   14.1757  107.3456 C   0  0  0  0  0  0
   21.3214   15.2959  106.5459 C   0  0  0  0  0  0
   20.4295   16.3617  106.5779 C   0  0  0  0  0  0
   19.2986   16.2912  107.3868 C   0  0  0  0  0  0
   18.8013   14.5158  111.1579 C   0  0  0  0  0  0
   18.9054   13.8878  112.3958 C   0  0  0  0  0  0
   18.0610   12.8269  112.7044 C   0  0  0  0  0  0
   17.1184   12.3908  111.7808 C   0  0  0  0  0  0
   16.9972   13.0391  110.5553 C   0  0  0  0  0  0
   15.6544   14.3521  104.0608 C   0  0  0  0  0  0
   14.6741   15.0250  103.7507 O   0  0  0  0  0  0
   16.7180   14.0903  103.2408 O   0  0  0  0  0  0
   15.1160   19.9128  110.6529 C   0  0  0  0  0  0
   14.8052   13.7162  105.9082 H   0  0  0  0  0  0
   15.8154   11.7974  104.6900 H   0  0  0  0  0  0
   17.3142   12.3133  105.1615 H   0  0  0  0  0  0
   16.2871   15.6388  106.4240 H   0  0  0  0  0  0
   17.6792   14.7021  105.9277 H   0  0  0  0  0  0
   17.2949   13.0872  107.7557 H   0  0  0  0  0  0
   15.8287   13.8726  108.2048 H   0  0  0  0  0  0
   18.7831   17.1441  110.0665 H   0  0  0  0  0  0
   17.7313   19.1618  110.8556 H   0  0  0  0  0  0
   13.9398   17.8031  109.3628 H   0  0  0  0  0  0
   14.9623   15.7469  108.6115 H   0  0  0  0  0  0
   19.8239   13.2043  108.7323 H   0  0  0  0  0  0
   21.8218   13.3570  107.3205 H   0  0  0  0  0  0
   22.1925   15.3464  105.9092 H   0  0  0  0  0  0
   20.6088   17.2417  105.9773 H   0  0  0  0  0  0
   18.6250   17.1435  107.3699 H   0  0  0  0  0  0
   19.4838   15.3211  110.9397 H   0  0  0  0  0  0
   19.6478   14.2143  113.1090 H   0  0  0  0  0  0
   18.1456   12.3317  113.6611 H   0  0  0  0  0  0
   16.4689   11.5623  112.0190 H   0  0  0  0  0  0
   16.2349   12.6674  109.8888 H   0  0  0  0  0  0
   17.3968   13.5633  103.6883 H   0  0  0  0  0  0
   14.0302   19.8963  110.5523 H   0  0  0  0  0  0
   15.3520   20.0687  111.7069 H   0  0  0  0  0  0
   15.5094   20.7684  110.1028 H   0  0  0  0  0  0
  1  3  1  0  0  0
  1 24  1  0  0  0
  1  2  1  0  0  0
  1 28  1  0  0  0
  2 29  1  0  0  0
  2 30  1  0  0  0
  3  4  1  0  0  0
  3 31  1  0  0  0
  3 32  1  0  0  0
  4  5  1  0  0  0
  4 33  1  0  0  0
  4 34  1  0  0  0
  5  7  1  0  0  0
  5  8  1  0  0  0
  5  6  1  0  0  0
  6  9  2  0  0  0
  6 13  1  0  0  0
  7 19  2  0  0  0
  7 23  1  0  0  0
  8 14  2  0  0  0
  8 18  1  0  0  0
  9 10  1  0  0  0
  9 35  1  0  0  0
 10 11  2  0  0  0
 10 36  1  0  0  0
 11 12  1  0  0  0
 11 27  1  0  0  0
 12 13  2  0  0  0
 12 37  1  0  0  0
 13 38  1  0  0  0
 14 15  1  0  0  0
 14 39  1  0  0  0
 15 16  2  0  0  0
 15 40  1  0  0  0
 16 17  1  0  0  0
 16 41  1  0  0  0
 17 18  2  0  0  0
 17 42  1  0  0  0
 18 43  1  0  0  0
 19 20  1  0  0  0
 19 44  1  0  0  0
 20 21  2  0  0  0
 20 45  1  0  0  0
 21 22  1  0  0  0
 21 46  1  0  0  0
 22 23  2  0  0  0
 22 47  1  0  0  0
 23 48  1  0  0  0
 24 25  2  0  0  0
 24 26  1  0  0  0
 26 49  1  0  0  0
 27 50  1  0  0  0
 27 51  1  0  0  0
 27 52  1  0  0  0
M  END
> <s_m_entry_id>
521

> <s_m_entry_name>
dock_pv.520

> <s_m_Source_Path>
/home/csk/Desktop/cluster/DUD-E-result/kif11

> <s_m_Source_File>
dock_pv.maegz

> <i_m_Source_File_Index>
520

> <chembl_id>
CHEMBL2022999

> <chembl_pref_name>
None

> <i_lp_mmshare_version>
53161

> <i_f3d_flags>
0

> <r_lp_tautomer_probability>
1

> <s_lp_Force_Field>
OPLS_2005

> <r_lp_Energy>
29.671831

> <b_lp_Chiralities_Consistent>
1

> <s_lp_Variant>
CHEMBL4581_lig757-2

> <s_i_glide_gridfile>
glide-grid_3cjo

> <i_i_glide_lignum>
1120

> <i_i_glide_rotatable_bonds>
8

> <r_i_docking_score>
-6.96102955349867

> <r_i_glide_ligand_efficiency>
-0.25781590938884

> <r_i_glide_ligand_efficiency_sa>
-0.7734477273168

> <r_i_glide_ligand_efficiency_ln>
-1.6204129185132

> <r_i_glide_gscore>
-6.96102955349867

> <r_i_glide_lipo>
-4.19534210643843

> <r_i_glide_hbond>
-0.152

> <r_i_glide_metal>
0

> <r_i_glide_rewards>
-0.999888484848484

> <r_i_glide_evdw>
-36.5369186401367

> <r_i_glide_ecoul>
-5.40414762496948

> <r_i_glide_erotb>
1.03839867053893

> <r_i_glide_esite>
-0.0147295569984275

> <r_i_glide_emodel>
-59.0269668693775

> <r_i_glide_energy>
-41.9410662651062

> <r_i_glide_einternal>
2.87669277191162

> <i_i_glide_confnum>
70

> <i_i_glide_posenum>
340

> <r_i_glide_eff_state_penalty>
0

> <s_user_duplicate_titles>
CHEMBL4581_lig757,CHEMBL4581_lig836

> <s_m_subgroup_title>
dock_pv

> <s_m_subgroupid>
dock_pv

> <b_m_subgroup_collapsed>
1

$$$$
CHEMBL4581_lig771
                    3D
 Schrodinger Suite 2021-1.
 44 47  0  0  1  0            999 V2000
   16.6283   15.5436  108.4185 C   0  0  1  0  0  0
   16.3678   16.8975  109.1492 C   0  0  0  0  0  0
   15.1122   16.8709  110.0330 C   0  0  0  0  0  0
   13.9679   16.5735  109.2346 O   0  0  0  0  0  0
   17.5754   15.9595  106.9415 S   0  0  0  0  0  0
   19.0371   15.2274  107.6646 C   0  0  0  0  0  0
   18.8576   14.6295  108.7710 N   0  0  0  0  0  0
   17.5596   14.6700  109.1794 N   0  0  0  0  0  0
   20.3128   15.3152  106.9281 C   0  0  0  0  0  0
   20.5799   16.4327  106.1216 C   0  0  0  0  0  0
   21.7351   16.4934  105.3468 C   0  0  0  0  0  0
   22.6388   15.4363  105.3574 C   0  0  0  0  0  0
   22.3992   14.3264  106.1590 C   0  0  0  0  0  0
   21.2586   14.2728  106.9610 C   0  0  0  0  0  0
   17.1503   13.8701  110.2137 C   0  0  0  0  0  0
   15.9706   13.7846  110.5590 O   0  0  0  0  0  0
   18.1970   13.0102  110.9636 C   0  0  0  0  0  0
   21.1277   13.2256  107.8102 F   0  0  0  0  0  0
   21.9592   17.5619  104.5534 F   0  0  0  0  0  0
   15.2875   14.9013  107.9990 C   0  0  0  0  0  0
   14.0637   15.4345  108.4587 C   0  0  0  0  0  0
   12.8454   14.8508  108.1115 C   0  0  0  0  0  0
   12.8207   13.7127  107.3097 C   0  0  0  0  0  0
   14.0155   13.1621  106.8547 C   0  0  0  0  0  0
   15.2322   13.7468  107.2028 C   0  0  0  0  0  0
   17.6514   12.1245  112.1104 C   0  0  0  0  0  0
   17.5215   12.8815  113.3448 N   0  0  0  0  0  0
   16.2112   17.7002  108.4257 H   0  0  0  0  0  0
   17.2380   17.2017  109.7333 H   0  0  0  0  0  0
   14.9637   17.8429  110.5048 H   0  0  0  0  0  0
   15.2186   16.1449  110.8378 H   0  0  0  0  0  0
   19.8976   17.2692  106.0772 H   0  0  0  0  0  0
   23.5179   15.4722  104.7368 H   0  0  0  0  0  0
   23.1093   13.5132  106.1763 H   0  0  0  0  0  0
   18.6438   12.3622  110.2137 H   0  0  0  0  0  0
   18.9994   13.6511  111.3317 H   0  0  0  0  0  0
   11.9207   15.2822  108.4648 H   0  0  0  0  0  0
   11.8786   13.2555  107.0445 H   0  0  0  0  0  0
   14.0037   12.2693  106.2467 H   0  0  0  0  0  0
   16.1482   13.2907  106.8544 H   0  0  0  0  0  0
   16.6876   11.6870  111.8438 H   0  0  0  0  0  0
   18.3180   11.2806  112.2890 H   0  0  0  0  0  0
   17.1096   12.3025  114.0635 H   0  0  0  0  0  0
   18.4319   13.1536  113.6864 H   0  0  0  0  0  0
  1  2  1  0  0  0
  1 20  1  0  0  0
  1  8  1  0  0  0
  1  5  1  0  0  0
  2  3  1  0  0  0
  2 28  1  0  0  0
  2 29  1  0  0  0
  3  4  1  0  0  0
  3 30  1  0  0  0
  3 31  1  0  0  0
  4 21  1  0  0  0
  5  6  1  0  0  0
  6  7  2  0  0  0
  6  9  1  0  0  0
  7  8  1  0  0  0
  8 15  1  0  0  0
  9 10  2  0  0  0
  9 14  1  0  0  0
 10 11  1  0  0  0
 10 32  1  0  0  0
 11 12  2  0  0  0
 11 19  1  0  0  0
 12 13  1  0  0  0
 12 33  1  0  0  0
 13 14  2  0  0  0
 13 34  1  0  0  0
 14 18  1  0  0  0
 15 16  2  0  0  0
 15 17  1  0  0  0
 17 26  1  0  0  0
 17 35  1  0  0  0
 17 36  1  0  0  0
 20 21  2  0  0  0
 20 25  1  0  0  0
 21 22  1  0  0  0
 22 23  2  0  0  0
 22 37  1  0  0  0
 23 24  1  0  0  0
 23 38  1  0  0  0
 24 25  2  0  0  0
 24 39  1  0  0  0
 25 40  1  0  0  0
 26 27  1  0  0  0
 26 41  1  0  0  0
 26 42  1  0  0  0
 27 43  1  0  0  0
 27 44  1  0  0  0
M  END
> <s_m_entry_id>
523

> <s_m_entry_name>
dock_pv.522

> <s_m_Source_Path>
/home/csk/Desktop/cluster/DUD-E-result/kif11

> <s_m_Source_File>
dock_pv.maegz

> <i_m_Source_File_Index>
522

> <chembl_id>
CHEMBL3402349

> <chembl_pref_name>
None

> <i_lp_mmshare_version>
53161

> <i_f3d_flags>
0

> <r_lp_tautomer_probability>
1

> <s_lp_Force_Field>
OPLS_2005

> <r_lp_Energy>
29.362415

> <b_lp_Chiralities_Consistent>
1

> <s_lp_Variant>
CHEMBL4581_lig771-2

> <s_i_glide_gridfile>
glide-grid_3cjo

> <i_i_glide_lignum>
1148

> <i_i_glide_rotatable_bonds>
4

> <r_i_docking_score>
-6.95968031979948

> <r_i_glide_ligand_efficiency>
-0.257765937770351

> <r_i_glide_ligand_efficiency_sa>
-0.773297812461499

> <r_i_glide_ligand_efficiency_ln>
-1.62009883915188

> <r_i_glide_gscore>
-6.95968031979948

> <r_i_glide_lipo>
-2.89878433808054

> <r_i_glide_hbond>
0

> <r_i_glide_metal>
0

> <r_i_glide_rewards>
-2.18355311091255

> <r_i_glide_evdw>
-38.4572486877441

> <r_i_glide_ecoul>
-2.26750111579895

> <r_i_glide_erotb>
0.385644730950653

> <r_i_glide_esite>
0

> <r_i_glide_emodel>
-55.6716502388777

> <r_i_glide_energy>
-40.7247498035431

> <r_i_glide_einternal>
4.28212690353394

> <i_i_glide_confnum>
4

> <i_i_glide_posenum>
89

> <r_i_glide_eff_state_penalty>
0

> <s_user_duplicate_titles>
CHEMBL4581_lig771

> <s_m_subgroup_title>
dock_pv

> <s_m_subgroupid>
dock_pv

> <b_m_subgroup_collapsed>
1

$$$$
CHEMBL4581_lig250
                    3D
 Schrodinger Suite 2021-1.
 52 56  0  0  1  0            999 V2000
   17.6863   12.7652  112.6805 C   0  0  0  0  0  0
   18.6047   13.7106  113.1311 C   0  0  0  0  0  0
   19.1179   14.7018  112.2920 C   0  0  0  0  0  0
   17.2398   12.7696  111.3602 C   0  0  0  0  0  0
   17.7401   13.7406  110.4760 C   0  0  0  0  0  0
   18.6814   14.6952  110.9635 C   0  0  0  0  0  0
   19.0086   15.5047  109.8949 N   0  0  0  0  0  0
   17.5329   14.0317  109.0875 C   0  0  0  0  0  0
   18.3641   15.0805  108.7580 C   0  0  0  0  0  0
   18.5366   15.6791  107.3622 C   0  0  2  0  0  0
   16.6452   13.3645  108.0677 C   0  0  0  0  0  0
   17.1320   13.6510  106.6180 C   0  0  2  0  0  0
   17.5931   15.0143  106.4218 N   0  0  0  0  0  0
   17.1979   15.4979  105.2259 C   0  0  0  0  0  0
   16.1842   14.6891  104.8313 N   0  0  0  0  0  0
   16.0412   13.5772  105.5758 C   0  0  0  0  0  0
   15.2037   12.6827  105.4585 O   0  0  0  0  0  0
   17.7524   16.3645  104.5483 O   0  0  0  0  0  0
   15.2459   15.0267  103.7472 C   0  0  0  0  0  0
   14.1166   16.0130  104.1302 C   0  0  0  0  0  0
   14.5456   17.4769  104.3599 C   0  0  0  0  0  0
   15.1914   18.1368  103.1309 C   0  0  0  0  0  0
   19.9635   15.5021  106.8256 C   0  0  0  0  0  0
   20.7174   14.3616  107.1296 C   0  0  0  0  0  0
   21.9711   14.1606  106.5578 C   0  0  0  0  0  0
   22.5079   15.1246  105.7053 C   0  0  0  0  0  0
   21.7813   16.2812  105.4270 C   0  0  0  0  0  0
   20.5244   16.4761  105.9946 C   0  0  0  0  0  0
   22.2809   17.2108  104.5639 O   0  0  0  0  0  0
   17.9178   12.9516  106.3416 H   0  0  0  0  0  0
   17.3146   12.0146  113.3647 H   0  0  0  0  0  0
   18.9320   13.6665  114.1592 H   0  0  0  0  0  0
   19.8368   15.4235  112.6523 H   0  0  0  0  0  0
   16.5288   12.0292  111.0222 H   0  0  0  0  0  0
   19.6547   16.2800  109.8899 H   0  0  0  0  0  0
   18.3004   16.7436  107.3392 H   0  0  0  0  0  0
   15.6026   13.6501  108.2245 H   0  0  0  0  0  0
   16.7141   12.2938  108.2304 H   0  0  0  0  0  0
   14.7958   14.1119  103.3561 H   0  0  0  0  0  0
   15.8220   15.4268  102.9126 H   0  0  0  0  0  0
   13.5878   15.6377  105.0084 H   0  0  0  0  0  0
   13.3803   16.0079  103.3261 H   0  0  0  0  0  0
   15.2219   17.5505  105.2109 H   0  0  0  0  0  0
   13.6657   18.0567  104.6444 H   0  0  0  0  0  0
   15.4731   19.1628  103.3557 H   0  0  0  0  0  0
   14.5064   18.1577  102.2826 H   0  0  0  0  0  0
   16.0985   17.6237  102.8169 H   0  0  0  0  0  0
   20.3168   13.5948  107.7761 H   0  0  0  0  0  0
   22.5242   13.2578  106.7720 H   0  0  0  0  0  0
   23.4768   14.9628  105.2576 H   0  0  0  0  0  0
   19.9668   17.3684  105.7499 H   0  0  0  0  0  0
   23.0947   16.9312  104.1412 H   0  0  0  0  0  0
  1  2  2  0  0  0
  1  4  1  0  0  0
  1 31  1  0  0  0
  2  3  1  0  0  0
  2 32  1  0  0  0
  3  6  2  0  0  0
  3 33  1  0  0  0
  4  5  2  0  0  0
  4 34  1  0  0  0
  5  8  1  0  0  0
  5  6  1  0  0  0
  6  7  1  0  0  0
  7  9  1  0  0  0
  7 35  1  0  0  0
  8  9  2  0  0  0
  8 11  1  0  0  0
  9 10  1  0  0  0
 10 23  1  0  0  0
 10 13  1  0  0  0
 10 36  1  0  0  0
 11 12  1  0  0  0
 11 37  1  0  0  0
 11 38  1  0  0  0
 12 16  1  0  0  0
 12 13  1  0  0  0
 12 30  1  0  0  0
 13 14  1  0  0  0
 14 15  1  0  0  0
 14 18  2  0  0  0
 15 16  1  0  0  0
 15 19  1  0  0  0
 16 17  2  0  0  0
 19 20  1  0  0  0
 19 39  1  0  0  0
 19 40  1  0  0  0
 20 21  1  0  0  0
 20 41  1  0  0  0
 20 42  1  0  0  0
 21 22  1  0  0  0
 21 43  1  0  0  0
 21 44  1  0  0  0
 22 45  1  0  0  0
 22 46  1  0  0  0
 22 47  1  0  0  0
 23 24  2  0  0  0
 23 28  1  0  0  0
 24 25  1  0  0  0
 24 48  1  0  0  0
 25 26  2  0  0  0
 25 49  1  0  0  0
 26 27  1  0  0  0
 26 50  1  0  0  0
 27 28  2  0  0  0
 27 29  1  0  0  0
 28 51  1  0  0  0
 29 52  1  0  0  0
M  END
> <s_m_entry_id>
524

> <s_m_entry_name>
dock_pv.523

> <s_m_Source_Path>
/home/csk/Desktop/cluster/DUD-E-result/kif11

> <s_m_Source_File>
dock_pv.maegz

> <i_m_Source_File_Index>
523

> <chembl_id>
CHEMBL252340

> <chembl_pref_name>
None

> <i_lp_mmshare_version>
53161

> <i_f3d_flags>
0

> <r_lp_tautomer_probability>
0.999999999997365

> <s_lp_Force_Field>
OPLS_2005

> <r_lp_Energy>
28.82064

> <b_lp_Chiralities_Consistent>
1

> <s_lp_Variant>
CHEMBL4581_lig250-1

> <s_i_glide_gridfile>
glide-grid_3cjo

> <i_i_glide_lignum>
375

> <i_i_glide_rotatable_bonds>
5

> <r_i_docking_score>
-6.95770405431847

> <r_i_glide_ligand_efficiency>
-0.239920829459257

> <r_i_glide_ligand_efficiency_sa>
-0.737112800352823

> <r_i_glide_ligand_efficiency_ln>
-1.59313779628709

> <r_i_glide_gscore>
-6.95770405431847

> <r_i_glide_lipo>
-4.12413385973589

> <r_i_glide_hbond>
0

> <r_i_glide_metal>
0

> <r_i_glide_rewards>
-0.803770318181817

> <r_i_glide_evdw>
-44.7579383850098

> <r_i_glide_ecoul>
-0.839223206043243

> <r_i_glide_erotb>
0.385596661761266

> <r_i_glide_esite>
-0.0516161380050474

> <r_i_glide_emodel>
-64.1289657514466

> <r_i_glide_energy>
-45.597161591053

> <r_i_glide_einternal>
0.637803971767426

> <i_i_glide_confnum>
11

> <i_i_glide_posenum>
370

> <r_i_glide_eff_state_penalty>
0

> <s_user_duplicate_titles>
CHEMBL4581_lig250

> <s_m_subgroup_title>
dock_pv

> <s_m_subgroupid>
dock_pv

> <b_m_subgroup_collapsed>
1

$$$$
CHEMBL4581_lig608
                    3D
 Schrodinger Suite 2021-1.
 50 52  0  0  1  0            999 V2000
   14.5316   13.3477  105.8042 C   0  0  0  0  0  0
   16.0282   13.0667  105.5310 C   0  0  2  0  0  0
   16.9694   13.9092  106.4146 C   0  0  0  0  0  0
   13.9495   14.3550  105.4014 O   0  0  0  0  0  0
   13.9606   12.3621  106.5588 O   0  0  0  0  0  0
   16.8692   13.5142  108.1846 S   0  0  0  0  0  0
   18.0180   14.6979  109.0241 C   0  0  0  0  0  0
   17.5146   16.1780  108.8634 C   0  0  0  0  0  0
   18.1117   14.3704  110.5530 C   0  0  0  0  0  0
   17.3188   13.3883  111.1829 C   0  0  0  0  0  0
   17.5190   13.0481  112.5178 C   0  0  0  0  0  0
   18.5030   13.6953  113.2535 C   0  0  0  0  0  0
   19.2808   14.6863  112.6655 C   0  0  0  0  0  0
   19.0772   15.0312  111.3325 C   0  0  0  0  0  0
   19.4051   14.5057  108.3273 C   0  0  0  0  0  0
   19.7625   15.2180  107.1633 C   0  0  0  0  0  0
   20.9393   14.9349  106.4759 C   0  0  0  0  0  0
   21.8005   13.9616  106.9579 C   0  0  0  0  0  0
   21.5181   13.3104  108.1548 C   0  0  0  0  0  0
   20.3223   13.5618  108.8192 C   0  0  0  0  0  0
   16.1088   16.5115  109.3580 C   0  0  0  0  0  0
   15.9246   17.1703  110.5756 C   0  0  0  0  0  0
   14.6460   17.5660  110.9658 C   0  0  0  0  0  0
   13.5397   17.2921  110.1589 C   0  0  0  0  0  0
   13.7160   16.6181  108.9469 C   0  0  0  0  0  0
   14.9979   16.2437  108.5473 C   0  0  0  0  0  0
   11.9718   17.7786  110.7020 Cl  0  0  0  0  0  0
   16.3180   13.3406  104.1102 N   0  0  0  0  0  0
   12.3762   16.2406  107.9211 Cl  0  0  0  0  0  0
   16.2309   12.0133  105.7322 H   0  0  0  0  0  0
   16.8049   14.9756  106.2500 H   0  0  0  0  0  0
   17.9922   13.6932  106.1220 H   0  0  0  0  0  0
   14.5875   11.6874  106.8529 H   0  0  0  0  0  0
   18.2254   16.8651  109.3249 H   0  0  0  0  0  0
   17.4970   16.4864  107.8225 H   0  0  0  0  0  0
   16.5472   12.8425  110.6602 H   0  0  0  0  0  0
   16.9175   12.2772  112.9781 H   0  0  0  0  0  0
   18.6724   13.4163  114.2842 H   0  0  0  0  0  0
   20.0603   15.1633  113.2373 H   0  0  0  0  0  0
   19.7096   15.7837  110.8847 H   0  0  0  0  0  0
   19.1167   15.9552  106.7170 H   0  0  0  0  0  0
   21.1739   15.4574  105.5598 H   0  0  0  0  0  0
   22.7194   13.7445  106.4308 H   0  0  0  0  0  0
   22.2300   12.6125  108.5557 H   0  0  0  0  0  0
   20.1060   12.9862  109.7080 H   0  0  0  0  0  0
   16.7704   17.4027  111.2067 H   0  0  0  0  0  0
   14.5117   18.0846  111.9027 H   0  0  0  0  0  0
   15.1220   15.7554  107.5929 H   0  0  0  0  0  0
   17.3179   13.1627  103.9675 H   0  0  0  0  0  0
   15.8199   12.7012  103.5098 H   0  0  0  0  0  0
  1  2  1  0  0  0
  1  4  2  0  0  0
  1  5  1  0  0  0
  2  3  1  0  0  0
  2 28  1  0  0  0
  2 30  1  0  0  0
  3  6  1  0  0  0
  3 31  1  0  0  0
  3 32  1  0  0  0
  5 33  1  0  0  0
  6  7  1  0  0  0
  7  8  1  0  0  0
  7  9  1  0  0  0
  7 15  1  0  0  0
  8 21  1  0  0  0
  8 34  1  0  0  0
  8 35  1  0  0  0
  9 10  1  0  0  0
  9 14  2  0  0  0
 10 11  2  0  0  0
 10 36  1  0  0  0
 11 12  1  0  0  0
 11 37  1  0  0  0
 12 13  2  0  0  0
 12 38  1  0  0  0
 13 14  1  0  0  0
 13 39  1  0  0  0
 14 40  1  0  0  0
 15 16  1  0  0  0
 15 20  2  0  0  0
 16 17  2  0  0  0
 16 41  1  0  0  0
 17 18  1  0  0  0
 17 42  1  0  0  0
 18 19  2  0  0  0
 18 43  1  0  0  0
 19 20  1  0  0  0
 19 44  1  0  0  0
 20 45  1  0  0  0
 21 22  1  0  0  0
 21 26  2  0  0  0
 22 23  2  0  0  0
 22 46  1  0  0  0
 23 24  1  0  0  0
 23 47  1  0  0  0
 24 25  2  0  0  0
 24 27  1  0  0  0
 25 26  1  0  0  0
 25 29  1  0  0  0
 26 48  1  0  0  0
 28 49  1  0  0  0
 28 50  1  0  0  0
M  END
> <s_m_entry_id>
525

> <s_m_entry_name>
dock_pv.524

> <s_m_Source_Path>
/home/csk/Desktop/cluster/DUD-E-result/kif11

> <s_m_Source_File>
dock_pv.maegz

> <i_m_Source_File_Index>
524

> <chembl_id>
CHEMBL2043393

> <chembl_pref_name>
None

> <i_lp_mmshare_version>
53161

> <i_f3d_flags>
0

> <r_lp_tautomer_probability>
1

> <s_lp_Force_Field>
OPLS_2005

> <r_lp_Energy>
19.438108

> <b_lp_Chiralities_Consistent>
1

> <s_lp_Variant>
CHEMBL4581_lig608-1

> <s_i_glide_gridfile>
glide-grid_3cjo

> <i_i_glide_lignum>
939

> <i_i_glide_rotatable_bonds>
9

> <r_i_docking_score>
-6.95633235750393

> <r_i_glide_ligand_efficiency>
-0.239873529569101

> <r_i_glide_ligand_efficiency_sa>
-0.736967480104605

> <r_i_glide_ligand_efficiency_ln>
-1.59282371249979

> <r_i_glide_gscore>
-6.95633235750393

> <r_i_glide_lipo>
-3.92616753628047

> <r_i_glide_hbond>
-0.152

> <r_i_glide_metal>
0

> <r_i_glide_rewards>
-0.427709569282271

> <r_i_glide_evdw>
-36.1009063720703

> <r_i_glide_ecoul>
-9.61666107177734

> <r_i_glide_erotb>
0.803598896412173

> <r_i_glide_esite>
-0.00650966898324602

> <r_i_glide_emodel>
-63.6238152927932

> <r_i_glide_energy>
-45.7175674438477

> <r_i_glide_einternal>
5.64826202392578

> <i_i_glide_confnum>
131

> <i_i_glide_posenum>
139

> <r_i_glide_eff_state_penalty>
0

> <s_user_duplicate_titles>
CHEMBL4581_lig608

> <s_m_subgroup_title>
dock_pv

> <s_m_subgroupid>
dock_pv

> <b_m_subgroup_collapsed>
1

$$$$
CHEMBL4581_lig389
                    3D
 Schrodinger Suite 2021-1.
 50 53  0  0  1  0            999 V2000
   22.2582   15.1269  105.4254 C   0  0  0  0  0  0
   21.7432   16.3515  105.0009 C   0  0  0  0  0  0
   20.5810   16.8820  105.5640 C   0  0  0  0  0  0
   21.7250   14.4491  106.5112 C   0  0  0  0  0  0
   20.6026   14.9833  107.1410 C   0  0  0  0  0  0
   20.0028   16.1649  106.6168 C   0  0  0  0  0  0
   18.8418   16.3620  107.3363 N   0  0  0  0  0  0
   19.8672   14.6212  108.3010 C   0  0  0  0  0  0
   18.7309   15.4085  108.3187 C   0  0  0  0  0  0
   17.5792   15.2381  109.3163 C   0  0  2  0  0  0
   17.8342   14.0337  110.1457 N   0  0  1  0  0  0
   19.2393   13.9472  110.5817 C   0  0  0  0  0  0
   20.1143   13.5746  109.3650 C   0  0  0  0  0  0
   16.2369   15.1868  108.5797 C   0  0  0  0  0  0
   15.4577   16.3406  108.4393 C   0  0  0  0  0  0
   14.2488   16.2912  107.7428 C   0  0  0  0  0  0
   13.8156   15.0912  107.1761 C   0  0  0  0  0  0
   14.5908   13.9396  107.3033 C   0  0  0  0  0  0
   15.7961   13.9882  107.9990 C   0  0  0  0  0  0
   14.1720   12.7620  106.7460 O   0  0  0  0  0  0
   16.9235   13.8966  111.2804 C   0  0  0  0  0  0
   23.5180   14.3620  104.5590 Cl  0  0  0  0  0  0
   16.8873   12.4150  111.7239 C   0  0  0  0  0  0
   16.7214   12.1277  113.2319 C   0  0  0  0  0  0
   17.4203   13.0632  114.2340 C   0  0  0  0  0  0
   18.8364   13.1620  113.9442 N   0  0  0  0  0  0
   22.1999   16.8513  104.1589 H   0  0  0  0  0  0
   20.1434   17.7933  105.1874 H   0  0  0  0  0  0
   22.1599   13.5205  106.8491 H   0  0  0  0  0  0
   18.1489   17.0831  107.2036 H   0  0  0  0  0  0
   17.5599   16.0981  109.9890 H   0  0  0  0  0  0
   19.3925   13.1620  111.3131 H   0  0  0  0  0  0
   19.5581   14.8631  111.0834 H   0  0  0  0  0  0
   19.9127   12.5567  109.0299 H   0  0  0  0  0  0
   21.1602   13.5620  109.6670 H   0  0  0  0  0  0
   15.7837   17.2766  108.8699 H   0  0  0  0  0  0
   13.6480   17.1831  107.6399 H   0  0  0  0  0  0
   12.8808   15.0540  106.6363 H   0  0  0  0  0  0
   16.3987   13.0948  108.0894 H   0  0  0  0  0  0
   14.7507   12.0192  106.9590 H   0  0  0  0  0  0
   15.9179   14.1731  110.9591 H   0  0  0  0  0  0
   17.1918   14.5855  112.0810 H   0  0  0  0  0  0
   17.7237   11.8369  111.3272 H   0  0  0  0  0  0
   16.0416   11.9620  111.2089 H   0  0  0  0  0  0
   17.1694   11.1620  113.3590 H   0  0  0  0  0  0
   15.6841   11.9620  113.5196 H   0  0  0  0  0  0
   17.2981   12.6693  115.2440 H   0  0  0  0  0  0
   16.9737   14.0572  114.2299 H   0  0  0  0  0  0
   18.9717   13.6425  113.0671 H   0  0  0  0  0  0
   19.2993   13.7092  114.6549 H   0  0  0  0  0  0
  1  2  2  0  0  0
  1 22  1  0  0  0
  1  4  1  0  0  0
  2  3  1  0  0  0
  2 27  1  0  0  0
  3  6  2  0  0  0
  3 28  1  0  0  0
  4  5  2  0  0  0
  4 29  1  0  0  0
  5  8  1  0  0  0
  5  6  1  0  0  0
  6  7  1  0  0  0
  7  9  1  0  0  0
  7 30  1  0  0  0
  8  9  2  0  0  0
  8 13  1  0  0  0
  9 10  1  0  0  0
 10 11  1  0  0  0
 10 14  1  0  0  0
 10 31  1  0  0  0
 11 12  1  0  0  0
 11 21  1  0  0  0
 12 13  1  0  0  0
 12 32  1  0  0  0
 12 33  1  0  0  0
 13 34  1  0  0  0
 13 35  1  0  0  0
 14 15  2  0  0  0
 14 19  1  0  0  0
 15 16  1  0  0  0
 15 36  1  0  0  0
 16 17  2  0  0  0
 16 37  1  0  0  0
 17 18  1  0  0  0
 17 38  1  0  0  0
 18 19  2  0  0  0
 18 20  1  0  0  0
 19 39  1  0  0  0
 20 40  1  0  0  0
 21 23  1  0  0  0
 21 41  1  0  0  0
 21 42  1  0  0  0
 23 24  1  0  0  0
 23 43  1  0  0  0
 23 44  1  0  0  0
 24 25  1  0  0  0
 24 45  1  0  0  0
 24 46  1  0  0  0
 25 26  1  0  0  0
 25 47  1  0  0  0
 25 48  1  0  0  0
 26 49  1  0  0  0
 26 50  1  0  0  0
M  END
> <s_m_entry_id>
526

> <s_m_entry_name>
dock_pv.525

> <s_m_Source_Path>
/home/csk/Desktop/cluster/DUD-E-result/kif11

> <s_m_Source_File>
dock_pv.maegz

> <i_m_Source_File_Index>
525

> <chembl_id>
CHEMBL1165475

> <chembl_pref_name>
None

> <i_lp_mmshare_version>
53161

> <i_f3d_flags>
0

> <r_lp_tautomer_probability>
0.999999999997365

> <s_lp_Force_Field>
OPLS_2005

> <r_lp_Energy>
27.814284

> <b_lp_Chiralities_Consistent>
1

> <s_lp_Variant>
CHEMBL4581_lig389-1

> <s_i_glide_gridfile>
glide-grid_3cjo

> <i_i_glide_lignum>
554

> <i_i_glide_rotatable_bonds>
6

> <r_i_docking_score>
-6.94825618914995

> <r_i_glide_ligand_efficiency>
-0.267240622659613

> <r_i_glide_ligand_efficiency_sa>
-0.791699293088031

> <r_i_glide_ligand_efficiency_ln>
-1.63177516693373

> <r_i_glide_gscore>
-6.94825618914995

> <r_i_glide_lipo>
-4.08312654157596

> <r_i_glide_hbond>
-0.32

> <r_i_glide_metal>
0

> <r_i_glide_rewards>
-0.92879762121212

> <r_i_glide_evdw>
-35.7021865844727

> <r_i_glide_ecoul>
-2.6338095664978

> <r_i_glide_erotb>
0.56384873783644

> <r_i_glide_esite>
0

> <r_i_glide_emodel>
-48.4381866019295

> <r_i_glide_energy>
-38.3359961509705

> <r_i_glide_einternal>
4.72164583206177

> <i_i_glide_confnum>
20

> <i_i_glide_posenum>
99

> <r_i_glide_eff_state_penalty>
0

> <s_user_duplicate_titles>
CHEMBL4581_lig389

> <s_m_subgroup_title>
dock_pv

> <s_m_subgroupid>
dock_pv

> <b_m_subgroup_collapsed>
1

$$$$
CHEMBL4581_lig82
                    3D
 Schrodinger Suite 2021-1.
 42 44  0  0  1  0            999 V2000
   21.1178   14.4926  106.9966 C   0  0  0  0  0  0
   20.8906   15.7153  106.3819 C   0  0  0  0  0  0
   19.6745   16.3618  106.5713 C   0  0  0  0  0  0
   20.1618   13.9628  107.8562 C   0  0  0  0  0  0
   18.9146   14.5762  108.0227 C   0  0  0  0  0  0
   18.6783   15.8156  107.3894 C   0  0  0  0  0  0
   17.3660   16.5685  107.6061 C   0  0  0  0  0  0
   16.5850   16.0040  108.7207 N   0  0  0  0  0  0
   16.4357   14.5429  108.6570 C   0  0  0  0  0  0
   17.8426   13.9548  108.9374 C   0  0  2  0  0  0
   18.1969   14.0207  110.4277 C   0  0  0  0  0  0
   17.5744   13.1508  111.3331 C   0  0  0  0  0  0
   17.9203   13.1794  112.6841 C   0  0  0  0  0  0
   18.9082   14.0508  113.1318 C   0  0  0  0  0  0
   19.5169   14.9329  112.2480 C   0  0  0  0  0  0
   19.1503   14.9279  110.9083 C   0  0  0  0  0  0
   15.7480   16.7627  109.4793 C   0  0  0  0  0  0
   14.6211   16.3604  109.7790 O   0  0  0  0  0  0
   16.1969   17.9780  109.8991 N   0  0  0  0  0  0
   17.5887   18.2649  110.2646 C   0  0  0  0  0  0
   15.2740   19.0495  110.2776 C   0  0  0  0  0  0
   17.2901   12.3610  113.5768 O   0  0  0  0  0  0
   22.2687   16.5375  105.3594 Br  0  0  0  0  0  0
   22.0627   13.9862  106.8635 H   0  0  0  0  0  0
   19.5193   17.3176  106.0949 H   0  0  0  0  0  0
   20.3780   13.0455  108.3839 H   0  0  0  0  0  0
   17.5828   17.6210  107.7647 H   0  0  0  0  0  0
   16.7702   16.5103  106.6944 H   0  0  0  0  0  0
   15.6973   14.1602  109.3644 H   0  0  0  0  0  0
   16.0909   14.2598  107.6614 H   0  0  0  0  0  0
   17.8116   12.8891  108.7012 H   0  0  0  0  0  0
   16.8242   12.4513  110.9924 H   0  0  0  0  0  0
   19.2147   14.0504  114.1591 H   0  0  0  0  0  0
   20.2788   15.6138  112.5962 H   0  0  0  0  0  0
   19.6423   15.6204  110.2435 H   0  0  0  0  0  0
   18.2737   17.4542  110.0194 H   0  0  0  0  0  0
   17.9352   19.1606  109.7530 H   0  0  0  0  0  0
   17.6657   18.4443  111.3379 H   0  0  0  0  0  0
   14.2511   18.8525  109.9540 H   0  0  0  0  0  0
   15.2672   19.1795  111.3602 H   0  0  0  0  0  0
   15.5861   19.9923  109.8270 H   0  0  0  0  0  0
   17.6469   12.4311  114.4655 H   0  0  0  0  0  0
  1  2  2  0  0  0
  1  4  1  0  0  0
  1 24  1  0  0  0
  2  3  1  0  0  0
  2 23  1  0  0  0
  3  6  2  0  0  0
  3 25  1  0  0  0
  4  5  2  0  0  0
  4 26  1  0  0  0
  5 10  1  0  0  0
  5  6  1  0  0  0
  6  7  1  0  0  0
  7  8  1  0  0  0
  7 27  1  0  0  0
  7 28  1  0  0  0
  8 17  1  0  0  0
  8  9  1  0  0  0
  9 10  1  0  0  0
  9 29  1  0  0  0
  9 30  1  0  0  0
 10 11  1  0  0  0
 10 31  1  0  0  0
 11 12  2  0  0  0
 11 16  1  0  0  0
 12 13  1  0  0  0
 12 32  1  0  0  0
 13 14  2  0  0  0
 13 22  1  0  0  0
 14 15  1  0  0  0
 14 33  1  0  0  0
 15 16  2  0  0  0
 15 34  1  0  0  0
 16 35  1  0  0  0
 17 18  2  0  0  0
 17 19  1  0  0  0
 19 20  1  0  0  0
 19 21  1  0  0  0
 20 36  1  0  0  0
 20 37  1  0  0  0
 20 38  1  0  0  0
 21 39  1  0  0  0
 21 40  1  0  0  0
 21 41  1  0  0  0
 22 42  1  0  0  0
M  END
> <s_m_entry_id>
527

> <s_m_entry_name>
dock_pv.526

> <s_m_Source_Path>
/home/csk/Desktop/cluster/DUD-E-result/kif11

> <s_m_Source_File>
dock_pv.maegz

> <i_m_Source_File_Index>
526

> <chembl_id>
CHEMBL438800

> <chembl_pref_name>
None

> <i_lp_mmshare_version>
53161

> <i_f3d_flags>
0

> <r_lp_tautomer_probability>
0.999999999997365

> <s_lp_Force_Field>
OPLS_2005

> <r_lp_Energy>
45.946581

> <b_lp_Chiralities_Consistent>
1

> <s_lp_Variant>
CHEMBL4581_lig82-1

> <s_i_glide_gridfile>
glide-grid_3cjo

> <i_i_glide_lignum>
129

> <i_i_glide_rotatable_bonds>
4

> <r_i_docking_score>
-6.94719265550429

> <r_i_glide_ligand_efficiency>
-0.302051854587143

> <r_i_glide_ligand_efficiency_sa>
-0.858995294565512

> <r_i_glide_ligand_efficiency_ln>
-1.67989417776115

> <r_i_glide_gscore>
-6.94719265550429

> <r_i_glide_lipo>
-4.11202121404156

> <r_i_glide_hbond>
0

> <r_i_glide_metal>
0

> <r_i_glide_rewards>
-1.11245058978641

> <r_i_glide_evdw>
-37.3750495910645

> <r_i_glide_ecoul>
-0.858103692531586

> <r_i_glide_erotb>
0.274747181756639

> <r_i_glide_esite>
0

> <r_i_glide_emodel>
-53.2707768637027

> <r_i_glide_energy>
-38.233153283596

> <r_i_glide_einternal>
1.37910997867584

> <i_i_glide_confnum>
33

> <i_i_glide_posenum>
224

> <r_i_glide_eff_state_penalty>
0

> <s_user_duplicate_titles>
CHEMBL4581_lig82

> <s_m_subgroup_title>
dock_pv

> <s_m_subgroupid>
dock_pv

> <b_m_subgroup_collapsed>
1

$$$$
CHEMBL4581_lig804
                    3D
 Schrodinger Suite 2021-1.
 43 44  0  0  1  0            999 V2000
   19.7498   13.7753  109.0869 S   0  0  0  0  0  0
   20.1707   15.1607  107.9756 C   0  0  0  0  0  0
   20.3533   14.8281  106.4836 C   0  0  1  0  0  0
   20.0361   16.1098  105.6770 C   0  0  0  0  0  0
   18.7315   16.1159  105.2697 O   0  0  0  0  0  0
   20.8547   17.0031  105.4508 O   0  0  0  0  0  0
   21.7188   14.3611  106.1591 N   0  0  0  0  0  0
   18.0243   14.0167  109.7511 C   0  0  0  0  0  0
   17.0838   13.1727  108.8094 C   0  0  0  0  0  0
   18.0243   13.4444  111.1999 C   0  0  0  0  0  0
   17.5738   15.5155  109.8651 C   0  0  0  0  0  0
   17.1326   12.4425  111.6308 C   0  0  0  0  0  0
   17.1179   12.0279  112.9597 C   0  0  0  0  0  0
   17.9873   12.6065  113.8782 C   0  0  0  0  0  0
   18.9049   13.5627  113.4671 C   0  0  0  0  0  0
   18.9302   13.9630  112.1408 C   0  0  0  0  0  0
   18.4541   16.5135  110.3237 C   0  0  0  0  0  0
   18.0457   17.8347  110.4734 C   0  0  0  0  0  0
   16.7373   18.1889  110.1665 C   0  0  0  0  0  0
   15.8392   17.2284  109.7165 C   0  0  0  0  0  0
   16.2523   15.9064  109.5696 C   0  0  0  0  0  0
   17.0052   13.5618  107.3213 C   0  0  0  0  0  0
   19.4372   15.9513  108.1010 H   0  0  0  0  0  0
   21.1169   15.5592  108.3251 H   0  0  0  0  0  0
   19.6459   14.0529  106.2006 H   0  0  0  0  0  0
   18.2677   15.3117  105.5148 H   0  0  0  0  0  0
   22.0523   13.7075  106.8533 H   0  0  0  0  0  0
   21.7448   13.8783  105.2662 H   0  0  0  0  0  0
   17.3887   12.1266  108.8439 H   0  0  0  0  0  0
   16.0658   13.1646  109.1971 H   0  0  0  0  0  0
   16.4235   11.9757  110.9655 H   0  0  0  0  0  0
   16.4122   11.2735  113.2832 H   0  0  0  0  0  0
   17.9664   12.2983  114.9142 H   0  0  0  0  0  0
   19.6057   13.9897  114.1634 H   0  0  0  0  0  0
   19.6735   14.6894  111.8606 H   0  0  0  0  0  0
   19.4833   16.2836  110.5519 H   0  0  0  0  0  0
   18.7415   18.5851  110.8225 H   0  0  0  0  0  0
   16.4164   19.2135  110.2855 H   0  0  0  0  0  0
   14.8215   17.5089  109.4845 H   0  0  0  0  0  0
   15.5103   15.2002  109.2337 H   0  0  0  0  0  0
   16.1147   13.1288  106.8631 H   0  0  0  0  0  0
   16.9659   14.6402  107.1721 H   0  0  0  0  0  0
   17.8544   13.1624  106.7729 H   0  0  0  0  0  0
  1  2  1  0  0  0
  1  8  1  0  0  0
  2  3  1  0  0  0
  2 23  1  0  0  0
  2 24  1  0  0  0
  3  7  1  0  0  0
  3  4  1  0  0  0
  3 25  1  0  0  0
  4  6  2  0  0  0
  4  5  1  0  0  0
  5 26  1  0  0  0
  7 27  1  0  0  0
  7 28  1  0  0  0
  8  9  1  0  0  0
  8 10  1  0  0  0
  8 11  1  0  0  0
  9 22  1  0  0  0
  9 29  1  0  0  0
  9 30  1  0  0  0
 10 12  2  0  0  0
 10 16  1  0  0  0
 11 17  2  0  0  0
 11 21  1  0  0  0
 12 13  1  0  0  0
 12 31  1  0  0  0
 13 14  2  0  0  0
 13 32  1  0  0  0
 14 15  1  0  0  0
 14 33  1  0  0  0
 15 16  2  0  0  0
 15 34  1  0  0  0
 16 35  1  0  0  0
 17 18  1  0  0  0
 17 36  1  0  0  0
 18 19  2  0  0  0
 18 37  1  0  0  0
 19 20  1  0  0  0
 19 38  1  0  0  0
 20 21  2  0  0  0
 20 39  1  0  0  0
 21 40  1  0  0  0
 22 41  1  0  0  0
 22 42  1  0  0  0
 22 43  1  0  0  0
M  END
> <s_m_entry_id>
528

> <s_m_entry_name>
dock_pv.527

> <s_m_Source_Path>
/home/csk/Desktop/cluster/DUD-E-result/kif11

> <s_m_Source_File>
dock_pv.maegz

> <i_m_Source_File_Index>
527

> <chembl_id>
CHEMBL405609

> <chembl_pref_name>
None

> <i_lp_mmshare_version>
53161

> <i_f3d_flags>
0

> <r_lp_tautomer_probability>
1

> <s_lp_Force_Field>
OPLS_2005

> <r_lp_Energy>
15.553928

> <b_lp_Chiralities_Consistent>
1

> <s_lp_Variant>
CHEMBL4581_lig804-1

> <s_i_glide_gridfile>
glide-grid_3cjo

> <i_i_glide_lignum>
1189

> <i_i_glide_rotatable_bonds>
8

> <r_i_docking_score>
-6.94398523172006

> <r_i_glide_ligand_efficiency>
-0.315635692350912

> <r_i_glide_ligand_efficiency_sa>
-0.884423623214635

> <r_i_glide_ligand_efficiency_ln>
-1.69736327864791

> <r_i_glide_gscore>
-6.94398523172006

> <r_i_glide_lipo>
-4.17697972837685

> <r_i_glide_hbond>
-0.0806869517577445

> <r_i_glide_metal>
0

> <r_i_glide_rewards>
-1.58629798371342

> <r_i_glide_evdw>
-38.7597732543945

> <r_i_glide_ecoul>
-1.89219570159912

> <r_i_glide_erotb>
1.12179745008755

> <r_i_glide_esite>
0

> <r_i_glide_emodel>
-52.8656678506448

> <r_i_glide_energy>
-40.6519689559937

> <r_i_glide_einternal>
11.7923851013184

> <i_i_glide_confnum>
110

> <i_i_glide_posenum>
109

> <r_i_glide_eff_state_penalty>
0

> <s_user_duplicate_titles>
CHEMBL4581_lig804

> <s_m_subgroup_title>
dock_pv

> <s_m_subgroupid>
dock_pv

> <b_m_subgroup_collapsed>
1

$$$$
CHEMBL4581_lig21
                    3D
 Schrodinger Suite 2021-1.
 40 41  0  0  1  0            999 V2000
   16.4843   14.0776  107.2051 C   0  0  0  0  0  0
   17.2167   15.2239  107.3462 N   0  0  0  0  0  0
   18.2793   15.4434  108.3622 C   0  0  1  0  0  0
   17.8650   14.6158  109.6192 C   0  0  0  0  0  0
   17.1465   13.4653  109.4374 C   0  0  0  0  0  0
   16.6617   13.1623  108.1989 N   0  0  0  0  0  0
   18.4849   15.0329  110.8983 C   0  0  0  0  0  0
   18.8493   16.1910  111.1104 O   0  0  0  0  0  0
   15.3133   13.9200  106.0481 S   0  0  0  0  0  0
   16.7085   12.4671  110.5030 C   0  0  0  0  0  0
   19.6499   15.0938  107.7644 C   0  0  0  0  0  0
   20.1667   15.8963  106.7426 C   0  0  0  0  0  0
   21.3441   15.5354  106.0658 C   0  0  0  0  0  0
   21.9889   14.3491  106.4269 C   0  0  0  0  0  0
   21.5175   13.5641  107.4762 C   0  0  0  0  0  0
   20.3690   13.9604  108.1598 C   0  0  0  0  0  0
   18.6415   14.0291  111.7861 O   0  0  0  0  0  0
   19.1395   14.2517  113.0934 C   0  0  0  0  0  0
   18.7324   13.0485  113.9483 C   0  0  0  0  0  0
   21.9180   16.2788  105.0491 O   0  0  0  0  0  0
   21.2727   17.4670  104.6210 C   0  0  0  0  0  0
   23.1181   13.9625  105.7590 O   0  0  0  0  0  0
   17.0849   15.8945  106.6041 H   0  0  0  0  0  0
   18.3894   16.5016  108.6135 H   0  0  0  0  0  0
   16.1685   12.2943  108.0234 H   0  0  0  0  0  0
   16.3166   12.9877  111.3741 H   0  0  0  0  0  0
   15.9180   11.8099  110.1590 H   0  0  0  0  0  0
   17.5434   11.8409  110.8140 H   0  0  0  0  0  0
   19.6182   16.7819  106.4625 H   0  0  0  0  0  0
   22.0377   12.6601  107.7577 H   0  0  0  0  0  0
   20.0077   13.3218  108.9522 H   0  0  0  0  0  0
   18.7204   15.1625  113.5243 H   0  0  0  0  0  0
   20.2243   14.3638  113.0650 H   0  0  0  0  0  0
   19.1173   13.1459  114.9588 H   0  0  0  0  0  0
   19.1172   12.1151  113.5355 H   0  0  0  0  0  0
   17.6470   12.9610  114.0161 H   0  0  0  0  0  0
   21.8966   17.9618  103.8758 H   0  0  0  0  0  0
   20.3069   17.2548  104.1614 H   0  0  0  0  0  0
   21.1201   18.1524  105.4541 H   0  0  0  0  0  0
   23.2759   14.5441  105.0118 H   0  0  0  0  0  0
  1  6  1  0  0  0
  1  9  2  0  0  0
  1  2  1  0  0  0
  2  3  1  0  0  0
  2 23  1  0  0  0
  3 11  1  0  0  0
  3  4  1  0  0  0
  3 24  1  0  0  0
  4  7  1  0  0  0
  4  5  2  0  0  0
  5 10  1  0  0  0
  5  6  1  0  0  0
  6 25  1  0  0  0
  7  8  2  0  0  0
  7 17  1  0  0  0
 10 26  1  0  0  0
 10 27  1  0  0  0
 10 28  1  0  0  0
 11 12  1  0  0  0
 11 16  2  0  0  0
 12 13  2  0  0  0
 12 29  1  0  0  0
 13 14  1  0  0  0
 13 20  1  0  0  0
 14 15  2  0  0  0
 14 22  1  0  0  0
 15 16  1  0  0  0
 15 30  1  0  0  0
 16 31  1  0  0  0
 17 18  1  0  0  0
 18 19  1  0  0  0
 18 32  1  0  0  0
 18 33  1  0  0  0
 19 34  1  0  0  0
 19 35  1  0  0  0
 19 36  1  0  0  0
 20 21  1  0  0  0
 21 37  1  0  0  0
 21 38  1  0  0  0
 21 39  1  0  0  0
 22 40  1  0  0  0
M  END
> <s_m_entry_id>
529

> <s_m_entry_name>
dock_pv.528

> <s_m_Source_Path>
/home/csk/Desktop/cluster/DUD-E-result/kif11

> <s_m_Source_File>
dock_pv.maegz

> <i_m_Source_File_Index>
528

> <chembl_id>
CHEMBL2013079

> <chembl_pref_name>
None

> <i_lp_mmshare_version>
53161

> <i_f3d_flags>
0

> <r_lp_tautomer_probability>
0.999999999997873

> <s_lp_Force_Field>
OPLS_2005

> <r_lp_Energy>
36.910639

> <b_lp_Chiralities_Consistent>
1

> <s_lp_Variant>
CHEMBL4581_lig21-2

> <s_i_glide_gridfile>
glide-grid_3cjo

> <i_i_glide_lignum>
29

> <i_i_glide_rotatable_bonds>
6

> <r_i_docking_score>
-6.94296207855607

> <r_i_glide_ligand_efficiency>
-0.315589185388912

> <r_i_glide_ligand_efficiency_sa>
-0.884293308878098

> <r_i_glide_ligand_efficiency_ln>
-1.69711318269421

> <r_i_glide_gscore>
-6.94296207855607

> <r_i_glide_lipo>
-3.18910021956029

> <r_i_glide_hbond>
-0.32

> <r_i_glide_metal>
0

> <r_i_glide_rewards>
-1.58265738383619

> <r_i_glide_evdw>
-40.8979339599609

> <r_i_glide_ecoul>
-2.28109335899353

> <r_i_glide_erotb>
0.539777657962176

> <r_i_glide_esite>
-0.0039214312746946

> <r_i_glide_emodel>
-55.6795807440408

> <r_i_glide_energy>
-43.1790273189545

> <r_i_glide_einternal>
5.9191255569458

> <i_i_glide_confnum>
9

> <i_i_glide_posenum>
34

> <r_i_glide_eff_state_penalty>
0

> <s_user_duplicate_titles>
CHEMBL4581_lig21

> <s_m_subgroup_title>
dock_pv

> <s_m_subgroupid>
dock_pv

> <b_m_subgroup_collapsed>
1

$$$$
CHEMBL4581_lig834
                    3D
 Schrodinger Suite 2021-1.
 49 51  0  0  1  0            999 V2000
   16.1800   18.8633  109.9661 C   0  0  0  0  0  0
   15.1936   19.2448  110.9580 N   0  0  0  0  0  0
   16.3254   17.3355  109.9204 C   0  0  0  0  0  0
   17.3867   16.9101  108.8778 C   0  0  0  0  0  0
   17.7784   15.3874  108.7000 C   0  0  0  0  0  0
   19.0986   15.3158  107.8563 C   0  0  0  0  0  0
   18.0592   14.7463  110.1015 C   0  0  0  0  0  0
   16.6016   14.6880  107.9394 C   0  0  0  0  0  0
   19.4266   16.3002  106.9055 C   0  0  0  0  0  0
   20.5531   16.1974  106.0917 C   0  0  0  0  0  0
   21.3916   15.0978  106.2130 C   0  0  0  0  0  0
   21.1187   14.1275  107.1780 C   0  0  0  0  0  0
   19.9892   14.2413  107.9924 C   0  0  0  0  0  0
   16.7464   14.1907  106.6268 C   0  0  0  0  0  0
   15.6790   13.5913  105.9643 C   0  0  0  0  0  0
   14.4423   13.4893  106.5919 C   0  0  0  0  0  0
   14.2738   13.9618  107.8901 C   0  0  0  0  0  0
   15.3462   14.5412  108.5589 C   0  0  0  0  0  0
   17.5658   13.4767  110.4561 C   0  0  0  0  0  0
   17.8313   12.9280  111.7093 C   0  0  0  0  0  0
   18.6218   13.6279  112.6152 C   0  0  0  0  0  0
   19.1544   14.8647  112.2700 C   0  0  0  0  0  0
   18.8715   15.4248  111.0288 C   0  0  0  0  0  0
   22.0609   12.9587  107.3512 C   0  0  0  0  0  0
   17.1387   19.3358  110.1874 H   0  0  0  0  0  0
   15.8599   19.2441  108.9953 H   0  0  0  0  0  0
   15.5183   19.0042  111.8875 H   0  0  0  0  0  0
   15.0779   20.2490  110.9571 H   0  0  0  0  0  0
   15.3503   16.9294  109.6629 H   0  0  0  0  0  0
   16.5802   16.9582  110.9106 H   0  0  0  0  0  0
   18.2897   17.4845  109.0996 H   0  0  0  0  0  0
   17.0312   17.2943  107.9214 H   0  0  0  0  0  0
   18.8039   17.1570  106.7663 H   0  0  0  0  0  0
   20.7644   16.9675  105.3630 H   0  0  0  0  0  0
   22.2587   15.0133  105.5745 H   0  0  0  0  0  0
   19.7902   13.4573  108.7072 H   0  0  0  0  0  0
   17.6853   14.2506  106.0937 H   0  0  0  0  0  0
   15.8144   13.2075  104.9626 H   0  0  0  0  0  0
   13.6136   13.0254  106.0762 H   0  0  0  0  0  0
   13.3167   13.8627  108.3804 H   0  0  0  0  0  0
   15.1997   14.8568  109.5810 H   0  0  0  0  0  0
   16.9816   12.8847  109.7648 H   0  0  0  0  0  0
   17.4370   11.9566  111.9680 H   0  0  0  0  0  0
   18.8402   13.1976  113.5825 H   0  0  0  0  0  0
   19.7935   15.3915  112.9590 H   0  0  0  0  0  0
   19.3042   16.3815  110.7794 H   0  0  0  0  0  0
   22.6573   12.7785  106.4551 H   0  0  0  0  0  0
   22.7145   13.1613  108.1938 H   0  0  0  0  0  0
   21.5189   12.0421  107.5626 H   0  0  0  0  0  0
  1  2  1  0  0  0
  1  3  1  0  0  0
  1 25  1  0  0  0
  1 26  1  0  0  0
  2 27  1  0  0  0
  2 28  1  0  0  0
  3  4  1  0  0  0
  3 29  1  0  0  0
  3 30  1  0  0  0
  4  5  1  0  0  0
  4 31  1  0  0  0
  4 32  1  0  0  0
  5  7  1  0  0  0
  5  8  1  0  0  0
  5  6  1  0  0  0
  6 13  1  0  0  0
  6  9  2  0  0  0
  7 19  2  0  0  0
  7 23  1  0  0  0
  8 14  2  0  0  0
  8 18  1  0  0  0
  9 10  1  0  0  0
  9 33  1  0  0  0
 10 11  2  0  0  0
 10 34  1  0  0  0
 11 12  1  0  0  0
 11 35  1  0  0  0
 12 13  2  0  0  0
 12 24  1  0  0  0
 13 36  1  0  0  0
 14 15  1  0  0  0
 14 37  1  0  0  0
 15 16  2  0  0  0
 15 38  1  0  0  0
 16 17  1  0  0  0
 16 39  1  0  0  0
 17 18  2  0  0  0
 17 40  1  0  0  0
 18 41  1  0  0  0
 19 20  1  0  0  0
 19 42  1  0  0  0
 20 21  2  0  0  0
 20 43  1  0  0  0
 21 22  1  0  0  0
 21 44  1  0  0  0
 22 23  2  0  0  0
 22 45  1  0  0  0
 23 46  1  0  0  0
 24 47  1  0  0  0
 24 48  1  0  0  0
 24 49  1  0  0  0
M  END
> <s_m_entry_id>
530

> <s_m_entry_name>
dock_pv.529

> <s_m_Source_Path>
/home/csk/Desktop/cluster/DUD-E-result/kif11

> <s_m_Source_File>
dock_pv.maegz

> <i_m_Source_File_Index>
529

> <chembl_id>
CHEMBL2022997

> <chembl_pref_name>
None

> <i_lp_mmshare_version>
53161

> <i_f3d_flags>
0

> <r_lp_tautomer_probability>
1

> <s_lp_Force_Field>
OPLS_2005

> <r_lp_Energy>
29.305798

> <b_lp_Chiralities_Consistent>
1

> <s_lp_Variant>
CHEMBL4581_lig834-1

> <s_i_glide_gridfile>
glide-grid_3cjo

> <i_i_glide_lignum>
1221

> <i_i_glide_rotatable_bonds>
6

> <r_i_docking_score>
-6.94150821753483

> <r_i_glide_ligand_efficiency>
-0.289229509063951

> <r_i_glide_ligand_efficiency_sa>
-0.834282269451615

> <r_i_glide_ligand_efficiency_ln>
-1.66142144151282

> <r_i_glide_gscore>
-6.94150821753483

> <r_i_glide_lipo>
-4.35629085666561

> <r_i_glide_hbond>
-0.32

> <r_i_glide_metal>
0

> <r_i_glide_rewards>
-1.32267771761768

> <r_i_glide_evdw>
-34.3391723632812

> <r_i_glide_ecoul>
-1.06870377063751

> <r_i_glide_erotb>
0.934724540508144

> <r_i_glide_esite>
0

> <r_i_glide_emodel>
-49.5182886359845

> <r_i_glide_energy>
-35.4078761339188

> <r_i_glide_einternal>
3.90560221672058

> <i_i_glide_confnum>
32

> <i_i_glide_posenum>
206

> <r_i_glide_eff_state_penalty>
0

> <s_user_duplicate_titles>
CHEMBL4581_lig834

> <s_m_subgroup_title>
dock_pv

> <s_m_subgroupid>
dock_pv

> <b_m_subgroup_collapsed>
1

$$$$
CHEMBL4581_lig850
                    3D
 Schrodinger Suite 2021-1.
 50 52  0  0  1  0            999 V2000
   16.3179   11.9620  105.3589 O   0  0  0  0  0  0
   15.3759   13.0647  105.1657 S   0  0  0  0  0  0
   14.0002   12.8103  104.7253 O   0  0  0  0  0  0
   15.4650   18.3910  110.3596 C   0  0  0  0  0  0
   14.4162   18.4460  111.3589 N   0  0  0  0  0  0
   16.6957   17.6403  110.8968 C   0  0  0  0  0  0
   17.8833   17.2195  109.5900 S   0  0  0  0  0  0
   17.8666   15.3784  109.2864 C   0  0  0  0  0  0
   16.5274   14.9721  108.5747 C   0  0  0  0  0  0
   19.0876   15.1375  108.3374 C   0  0  0  0  0  0
   18.0477   14.6132  110.6402 C   0  0  0  0  0  0
   15.2811   15.2059  109.1821 C   0  0  0  0  0  0
   14.0816   14.8548  108.5633 C   0  0  0  0  0  0
   14.0945   14.2261  107.3246 C   0  0  0  0  0  0
   15.3137   13.9400  106.7159 C   0  0  0  0  0  0
   16.5107   14.3043  107.3346 C   0  0  0  0  0  0
   17.3442   13.4243  110.9103 C   0  0  0  0  0  0
   17.5180   12.7435  112.1123 C   0  0  0  0  0  0
   18.3958   13.2414  113.0678 C   0  0  0  0  0  0
   19.1177   14.4036  112.8192 C   0  0  0  0  0  0
   18.9465   15.0826  111.6144 C   0  0  0  0  0  0
   20.0618   14.1580  108.5961 C   0  0  0  0  0  0
   21.1179   13.9563  107.7125 C   0  0  0  0  0  0
   21.2200   14.7257  106.5585 C   0  0  0  0  0  0
   20.2802   15.7107  106.2857 C   0  0  0  0  0  0
   19.2249   15.9115  107.1681 C   0  0  0  0  0  0
   16.1494   14.3070  103.9890 C   0  0  0  0  0  0
   15.7460   19.4054  110.0708 H   0  0  0  0  0  0
   15.0679   17.9125  109.4642 H   0  0  0  0  0  0
   14.0362   17.5283  111.5293 H   0  0  0  0  0  0
   14.8121   18.7616  112.2409 H   0  0  0  0  0  0
   16.4266   16.7439  111.4517 H   0  0  0  0  0  0
   17.2139   18.2790  111.6127 H   0  0  0  0  0  0
   15.2169   15.6435  110.1596 H   0  0  0  0  0  0
   13.1405   15.0565  109.0536 H   0  0  0  0  0  0
   13.1635   13.9395  106.8564 H   0  0  0  0  0  0
   17.4259   14.0242  106.8344 H   0  0  0  0  0  0
   16.6681   12.9945  110.1859 H   0  0  0  0  0  0
   16.9677   11.8326  112.3006 H   0  0  0  0  0  0
   18.5296   12.7145  114.0018 H   0  0  0  0  0  0
   19.8141   14.7726  113.5575 H   0  0  0  0  0  0
   19.5291   15.9754  111.4375 H   0  0  0  0  0  0
   20.0075   13.5238  109.4682 H   0  0  0  0  0  0
   21.8530   13.1913  107.9162 H   0  0  0  0  0  0
   22.0353   14.5552  105.8702 H   0  0  0  0  0  0
   20.3648   16.3102  105.3913 H   0  0  0  0  0  0
   18.4967   16.6726  106.9313 H   0  0  0  0  0  0
   16.2386   13.8360  103.0128 H   0  0  0  0  0  0
   15.5087   15.1848  103.9358 H   0  0  0  0  0  0
   17.1358   14.5704  104.3661 H   0  0  0  0  0  0
  1  2  2  0  0  0
  2  3  2  0  0  0
  2 15  1  0  0  0
  2 27  1  0  0  0
  4  5  1  0  0  0
  4  6  1  0  0  0
  4 28  1  0  0  0
  4 29  1  0  0  0
  5 30  1  0  0  0
  5 31  1  0  0  0
  6  7  1  0  0  0
  6 32  1  0  0  0
  6 33  1  0  0  0
  7  8  1  0  0  0
  8  9  1  0  0  0
  8 10  1  0  0  0
  8 11  1  0  0  0
  9 16  1  0  0  0
  9 12  2  0  0  0
 10 22  2  0  0  0
 10 26  1  0  0  0
 11 17  2  0  0  0
 11 21  1  0  0  0
 12 13  1  0  0  0
 12 34  1  0  0  0
 13 14  2  0  0  0
 13 35  1  0  0  0
 14 15  1  0  0  0
 14 36  1  0  0  0
 15 16  2  0  0  0
 16 37  1  0  0  0
 17 18  1  0  0  0
 17 38  1  0  0  0
 18 19  2  0  0  0
 18 39  1  0  0  0
 19 20  1  0  0  0
 19 40  1  0  0  0
 20 21  2  0  0  0
 20 41  1  0  0  0
 21 42  1  0  0  0
 22 23  1  0  0  0
 22 43  1  0  0  0
 23 24  2  0  0  0
 23 44  1  0  0  0
 24 25  1  0  0  0
 24 45  1  0  0  0
 25 26  2  0  0  0
 25 46  1  0  0  0
 26 47  1  0  0  0
 27 48  1  0  0  0
 27 49  1  0  0  0
 27 50  1  0  0  0
M  END
> <s_m_entry_id>
531

> <s_m_entry_name>
dock_pv.530

> <s_m_Source_Path>
/home/csk/Desktop/cluster/DUD-E-result/kif11

> <s_m_Source_File>
dock_pv.maegz

> <i_m_Source_File_Index>
530

> <chembl_id>
CHEMBL2024128

> <chembl_pref_name>
None

> <i_lp_mmshare_version>
53161

> <i_f3d_flags>
0

> <r_lp_tautomer_probability>
1

> <s_lp_Force_Field>
OPLS_2005

> <r_lp_Energy>
23.934287

> <b_lp_Chiralities_Consistent>
1

> <s_lp_Variant>
CHEMBL4581_lig850-1

> <s_i_glide_gridfile>
glide-grid_3cjo

> <i_i_glide_lignum>
1237

> <i_i_glide_rotatable_bonds>
7

> <r_i_docking_score>
-6.91696892940215

> <r_i_glide_ligand_efficiency>
-0.256184034422302

> <r_i_glide_ligand_efficiency_sa>
-0.768552102422565

> <r_i_glide_ligand_efficiency_ln>
-1.61015633161969

> <r_i_glide_gscore>
-6.91696892940215

> <r_i_glide_lipo>
-4.2960834404184

> <r_i_glide_hbond>
-0.32

> <r_i_glide_metal>
0

> <r_i_glide_rewards>
-0.805477872309949

> <r_i_glide_evdw>
-42.601245880127

> <r_i_glide_ecoul>
0.131771266460419

> <r_i_glide_erotb>
0.619293828301251

> <r_i_glide_esite>
-0.0044048409377703

> <r_i_glide_emodel>
-56.9395856933336

> <r_i_glide_energy>
-42.4694746136665

> <r_i_glide_einternal>
6.66082143783569

> <i_i_glide_confnum>
95

> <i_i_glide_posenum>
66

> <r_i_glide_eff_state_penalty>
0

> <s_user_duplicate_titles>
CHEMBL4581_lig850

> <s_m_subgroup_title>
dock_pv

> <s_m_subgroupid>
dock_pv

> <b_m_subgroup_collapsed>
1

$$$$
CHEMBL4581_lig893
                    3D
 Schrodinger Suite 2021-1.
 53 55  0  0  1  0            999 V2000
   17.4628   14.9307  108.3937 C   0  0  1  0  0  0
   18.8472   15.1074  107.6913 C   0  0  0  0  0  0
   17.5886   14.0770  109.7017 C   0  0  0  0  0  0
   19.0243   16.1062  106.7259 C   0  0  0  0  0  0
   20.2197   16.2440  106.0282 C   0  0  0  0  0  0
   21.2634   15.3546  106.2689 C   0  0  0  0  0  0
   21.1179   14.3619  107.2370 C   0  0  0  0  0  0
   19.9302   14.2566  107.9574 C   0  0  0  0  0  0
   16.9777   12.8209  109.8393 C   0  0  0  0  0  0
   16.9956   12.1485  111.0517 C   0  0  0  0  0  0
   17.6090   12.7049  112.1633 C   0  0  0  0  0  0
   18.2836   13.9237  112.0347 C   0  0  0  0  0  0
   18.2808   14.5907  110.8134 C   0  0  0  0  0  0
   16.8332   16.2753  108.8834 C   0  0  0  0  0  0
   17.6497   17.3555  109.2591 C   0  0  0  0  0  0
   17.1049   18.4997  109.8274 C   0  0  0  0  0  0
   15.7289   18.6057  109.9915 C   0  0  0  0  0  0
   14.8947   17.5619  109.6070 C   0  0  0  0  0  0
   15.4441   16.4014  109.0683 C   0  0  0  0  0  0
   16.5244   14.1972  107.3449 C   0  0  0  0  0  0
   16.0996   14.8695  106.0042 C   0  0  0  0  0  0
   14.8617   14.1578  105.3946 C   0  0  0  0  0  0
   15.0635   12.7384  105.1150 N   0  0  0  0  0  0
   22.5645   15.4768  105.4969 C   0  0  0  0  0  0
   17.4900   11.9924  113.3333 O   0  0  0  0  0  0
   17.8386   12.6187  114.5557 C   0  0  0  0  0  0
   15.7767   16.1508  106.1720 F   0  0  0  0  0  0
   17.0863   14.8483  105.1094 F   0  0  0  0  0  0
   18.2050   16.7620  106.4898 H   0  0  0  0  0  0
   20.3184   17.0224  105.2858 H   0  0  0  0  0  0
   21.9223   13.6673  107.4310 H   0  0  0  0  0  0
   19.8483   13.4595  108.6812 H   0  0  0  0  0  0
   16.4563   12.3380  109.0306 H   0  0  0  0  0  0
   16.4953   11.1956  111.1375 H   0  0  0  0  0  0
   18.7981   14.3704  112.8712 H   0  0  0  0  0  0
   18.7987   15.5346  110.7500 H   0  0  0  0  0  0
   18.7235   17.3007  109.1624 H   0  0  0  0  0  0
   17.7549   19.2930  110.1588 H   0  0  0  0  0  0
   15.3088   19.4982  110.4322 H   0  0  0  0  0  0
   13.8265   17.6436  109.7461 H   0  0  0  0  0  0
   14.7682   15.5981  108.8234 H   0  0  0  0  0  0
   17.0060   13.2560  107.0707 H   0  0  0  0  0  0
   15.6011   13.9058  107.8427 H   0  0  0  0  0  0
   14.0091   14.2640  106.0670 H   0  0  0  0  0  0
   14.5818   14.6544  104.4647 H   0  0  0  0  0  0
   15.3141   12.2273  105.9535 H   0  0  0  0  0  0
   14.2075   12.3198  104.7787 H   0  0  0  0  0  0
   22.7134   16.4933  105.1291 H   0  0  0  0  0  0
   23.4154   15.2465  106.1407 H   0  0  0  0  0  0
   22.5739   14.7865  104.6515 H   0  0  0  0  0  0
   17.5181   11.9623  115.3591 H   0  0  0  0  0  0
   18.9149   12.7715  114.6393 H   0  0  0  0  0  0
   17.3183   13.5673  114.6831 H   0  0  0  0  0  0
  1  2  1  0  0  0
  1  3  1  0  0  0
  1 14  1  0  0  0
  1 20  1  0  0  0
  2  4  2  0  0  0
  2  8  1  0  0  0
  3  9  2  0  0  0
  3 13  1  0  0  0
  4  5  1  0  0  0
  4 29  1  0  0  0
  5  6  2  0  0  0
  5 30  1  0  0  0
  6  7  1  0  0  0
  6 24  1  0  0  0
  7  8  2  0  0  0
  7 31  1  0  0  0
  8 32  1  0  0  0
  9 10  1  0  0  0
  9 33  1  0  0  0
 10 11  2  0  0  0
 10 34  1  0  0  0
 11 12  1  0  0  0
 11 25  1  0  0  0
 12 13  2  0  0  0
 12 35  1  0  0  0
 13 36  1  0  0  0
 14 15  2  0  0  0
 14 19  1  0  0  0
 15 16  1  0  0  0
 15 37  1  0  0  0
 16 17  2  0  0  0
 16 38  1  0  0  0
 17 18  1  0  0  0
 17 39  1  0  0  0
 18 19  2  0  0  0
 18 40  1  0  0  0
 19 41  1  0  0  0
 20 21  1  0  0  0
 20 42  1  0  0  0
 20 43  1  0  0  0
 21 22  1  0  0  0
 21 27  1  0  0  0
 21 28  1  0  0  0
 22 23  1  0  0  0
 22 44  1  0  0  0
 22 45  1  0  0  0
 23 46  1  0  0  0
 23 47  1  0  0  0
 24 48  1  0  0  0
 24 49  1  0  0  0
 24 50  1  0  0  0
 25 26  1  0  0  0
 26 51  1  0  0  0
 26 52  1  0  0  0
 26 53  1  0  0  0
M  END
> <s_m_entry_id>
532

> <s_m_entry_name>
dock_pv.531

> <s_m_Source_Path>
/home/csk/Desktop/cluster/DUD-E-result/kif11

> <s_m_Source_File>
dock_pv.maegz

> <i_m_Source_File_Index>
531

> <chembl_id>
CHEMBL2325427

> <chembl_pref_name>
None

> <i_lp_mmshare_version>
53161

> <i_f3d_flags>
0

> <r_lp_tautomer_probability>
1

> <s_lp_Force_Field>
OPLS_2005

> <r_lp_Energy>
38.542289

> <b_lp_Chiralities_Consistent>
1

> <s_lp_Variant>
CHEMBL4581_lig893-2

> <s_i_glide_gridfile>
glide-grid_3cjo

> <i_i_glide_lignum>
1296

> <i_i_glide_rotatable_bonds>
7

> <r_i_docking_score>
-6.91149015585185

> <r_i_glide_ligand_efficiency>
-0.246838934137566

> <r_i_glide_ligand_efficiency_sa>
-0.749548384399127

> <r_i_glide_ligand_efficiency_ln>
-1.59537485813945

> <r_i_glide_gscore>
-6.91149015585185

> <r_i_glide_lipo>
-4.4367123058555

> <r_i_glide_hbond>
-0.000498794595390777

> <r_i_glide_metal>
0

> <r_i_glide_rewards>
-0.86997128376739

> <r_i_glide_evdw>
-39.7022933959961

> <r_i_glide_ecoul>
-1.58888983726501

> <r_i_glide_erotb>
0.667007217774942

> <r_i_glide_esite>
-0.0478668440189536

> <r_i_glide_emodel>
-56.8085516456673

> <r_i_glide_energy>
-41.2911832332611

> <r_i_glide_einternal>
2.38322329521179

> <i_i_glide_confnum>
11

> <i_i_glide_posenum>
242

> <r_i_glide_eff_state_penalty>
0

> <s_user_duplicate_titles>
CHEMBL4581_lig893

> <s_m_subgroup_title>
dock_pv

> <s_m_subgroupid>
dock_pv

> <b_m_subgroup_collapsed>
1

$$$$
CHEMBL4581_lig84
                    3D
 Schrodinger Suite 2021-1.
 47 49  0  0  1  0            999 V2000
   18.9175   13.4046  109.1393 C   0  0  0  0  0  0
   17.6609   13.8400  109.7699 N   0  0  0  0  0  0
   16.5771   14.1348  108.8259 C   0  0  0  0  0  0
   16.9807   15.3149  107.9089 C   0  0  2  0  0  0
   19.3711   14.3624  108.0151 C   0  0  0  0  0  0
   18.4277   15.2194  107.4031 C   0  0  0  0  0  0
   18.8228   16.0060  106.3209 C   0  0  0  0  0  0
   20.1186   15.9747  105.8336 C   0  0  0  0  0  0
   21.0614   15.1312  106.4089 C   0  0  0  0  0  0
   20.6933   14.3375  107.5142 C   0  0  0  0  0  0
   21.7089   13.3996  108.1615 C   0  0  0  0  0  0
   22.4425   15.0607  105.7617 C   0  0  0  0  0  0
   17.6221   14.2856  111.0545 C   0  0  0  0  0  0
   17.0743   15.3450  111.3587 O   0  0  0  0  0  0
   18.1804   13.4906  112.0047 N   0  0  0  0  0  0
   18.5848   14.0343  113.3026 C   0  0  0  0  0  0
   17.9180   12.0485  112.0400 C   0  0  0  0  0  0
   16.6247   16.6735  108.5249 C   0  0  0  0  0  0
   17.5651   17.4144  109.2528 C   0  0  0  0  0  0
   17.2047   18.6196  109.8512 C   0  0  0  0  0  0
   15.9136   19.1206  109.6970 C   0  0  0  0  0  0
   14.9769   18.4049  108.9527 C   0  0  0  0  0  0
   15.3305   17.1863  108.3716 C   0  0  0  0  0  0
   13.3756   19.0185  108.7610 Cl  0  0  0  0  0  0
   19.7001   13.2640  109.8844 H   0  0  0  0  0  0
   18.7417   12.4290  108.6858 H   0  0  0  0  0  0
   15.6130   14.2528  109.3235 H   0  0  0  0  0  0
   16.4432   13.2370  108.2200 H   0  0  0  0  0  0
   16.3543   15.2392  107.0179 H   0  0  0  0  0  0
   18.1047   16.6572  105.8461 H   0  0  0  0  0  0
   20.3786   16.5936  104.9872 H   0  0  0  0  0  0
   22.7181   13.5429  107.7908 H   0  0  0  0  0  0
   21.7525   13.5620  109.2380 H   0  0  0  0  0  0
   21.4312   12.3619  107.9976 H   0  0  0  0  0  0
   22.6950   14.0254  105.5292 H   0  0  0  0  0  0
   22.4874   15.6119  104.8211 H   0  0  0  0  0  0
   23.2141   15.4511  106.4242 H   0  0  0  0  0  0
   18.8344   15.0947  113.2392 H   0  0  0  0  0  0
   17.7816   13.9162  114.0306 H   0  0  0  0  0  0
   19.4647   13.5116  113.6781 H   0  0  0  0  0  0
   17.8096   11.6108  111.0472 H   0  0  0  0  0  0
   18.7178   11.5218  112.5588 H   0  0  0  0  0  0
   16.9956   11.8549  112.5898 H   0  0  0  0  0  0
   18.5688   17.0396  109.3915 H   0  0  0  0  0  0
   17.9330   19.1612  110.4363 H   0  0  0  0  0  0
   15.6404   20.0590  110.1572 H   0  0  0  0  0  0
   14.5903   16.6343  107.8113 H   0  0  0  0  0  0
  1  5  1  0  0  0
  1  2  1  0  0  0
  1 25  1  0  0  0
  1 26  1  0  0  0
  2 13  1  0  0  0
  2  3  1  0  0  0
  3  4  1  0  0  0
  3 27  1  0  0  0
  3 28  1  0  0  0
  4  6  1  0  0  0
  4 18  1  0  0  0
  4 29  1  0  0  0
  5  6  2  0  0  0
  5 10  1  0  0  0
  6  7  1  0  0  0
  7  8  2  0  0  0
  7 30  1  0  0  0
  8  9  1  0  0  0
  8 31  1  0  0  0
  9 12  1  0  0  0
  9 10  2  0  0  0
 10 11  1  0  0  0
 11 32  1  0  0  0
 11 33  1  0  0  0
 11 34  1  0  0  0
 12 35  1  0  0  0
 12 36  1  0  0  0
 12 37  1  0  0  0
 13 14  2  0  0  0
 13 15  1  0  0  0
 15 16  1  0  0  0
 15 17  1  0  0  0
 16 38  1  0  0  0
 16 39  1  0  0  0
 16 40  1  0  0  0
 17 41  1  0  0  0
 17 42  1  0  0  0
 17 43  1  0  0  0
 18 19  2  0  0  0
 18 23  1  0  0  0
 19 20  1  0  0  0
 19 44  1  0  0  0
 20 21  2  0  0  0
 20 45  1  0  0  0
 21 22  1  0  0  0
 21 46  1  0  0  0
 22 23  2  0  0  0
 22 24  1  0  0  0
 23 47  1  0  0  0
M  END
> <s_m_entry_id>
533

> <s_m_entry_name>
dock_pv.532

> <s_m_Source_Path>
/home/csk/Desktop/cluster/DUD-E-result/kif11

> <s_m_Source_File>
dock_pv.maegz

> <i_m_Source_File_Index>
532

> <chembl_id>
CHEMBL207601

> <chembl_pref_name>
None

> <i_lp_mmshare_version>
53161

> <i_f3d_flags>
0

> <r_lp_tautomer_probability>
1

> <s_lp_Force_Field>
OPLS_2005

> <r_lp_Energy>
48.495668

> <b_lp_Chiralities_Consistent>
1

> <s_lp_Variant>
CHEMBL4581_lig84-1

> <s_i_glide_gridfile>
glide-grid_3cjo

> <i_i_glide_lignum>
133

> <i_i_glide_rotatable_bonds>
3

> <r_i_docking_score>
-6.90857972637488

> <r_i_glide_ligand_efficiency>
-0.287857488598953

> <r_i_glide_ligand_efficiency_sa>
-0.830324677603615

> <r_i_glide_ligand_efficiency_ln>
-1.65354014258824

> <r_i_glide_gscore>
-6.90857972637488

> <r_i_glide_lipo>
-3.72984127779358

> <r_i_glide_hbond>
0

> <r_i_glide_metal>
0

> <r_i_glide_rewards>
-1.54033619637455

> <r_i_glide_evdw>
-35.6259613037109

> <r_i_glide_ecoul>
-1.19873952865601

> <r_i_glide_erotb>
0.322706742277195

> <r_i_glide_esite>
0

> <r_i_glide_emodel>
-45.855952829996

> <r_i_glide_energy>
-36.8247008323669

> <r_i_glide_einternal>
10.1335144042969

> <i_i_glide_confnum>
27

> <i_i_glide_posenum>
347

> <r_i_glide_eff_state_penalty>
0

> <s_user_duplicate_titles>
CHEMBL4581_lig84

> <s_m_subgroup_title>
dock_pv

> <s_m_subgroupid>
dock_pv

> <b_m_subgroup_collapsed>
1

$$$$
CHEMBL4581_lig303
                    3D
 Schrodinger Suite 2021-1.
 46 49  0  0  1  0            999 V2000
   17.4169   17.5921  109.3626 N   0  0  0  0  0  0
   16.0722   15.7838  109.3450 C   0  0  0  0  0  0
   17.3922   16.2181  109.3971 C   0  0  0  0  0  0
   18.6125   15.2932  109.5276 C   0  0  1  0  0  0
   18.0720   14.0237  110.0901 N   0  0  0  0  0  0
   17.0003   13.4343  109.2568 C   0  0  0  0  0  0
   15.7122   14.2980  109.4112 C   0  0  0  0  0  0
   16.1325   18.0887  109.2862 C   0  0  0  0  0  0
   15.2545   16.9603  109.2737 C   0  0  0  0  0  0
   13.8708   17.1828  109.2097 C   0  0  0  0  0  0
   13.3974   18.4917  109.1606 C   0  0  0  0  0  0
   14.2737   19.5742  109.1747 C   0  0  0  0  0  0
   15.6572   19.4040  109.2366 C   0  0  0  0  0  0
   19.5300   15.1619  108.2984 C   0  0  0  0  0  0
   20.3949   14.0644  108.1864 C   0  0  0  0  0  0
   21.2844   13.9621  107.1151 C   0  0  0  0  0  0
   21.3460   14.9743  106.1589 C   0  0  0  0  0  0
   20.5176   16.0873  106.2729 C   0  0  0  0  0  0
   19.6124   16.1757  107.3311 C   0  0  0  0  0  0
   18.1814   13.7596  111.4234 C   0  0  0  0  0  0
   18.8906   14.4444  112.1681 O   0  0  0  0  0  0
   17.5130   12.4868  111.9994 C   0  0  0  0  0  0
   17.4062   12.4308  113.5413 C   0  0  0  0  0  0
   18.7179   12.3621  114.1589 N   0  0  0  0  0  0
   20.6084   17.1037  105.3595 O   0  0  0  0  0  0
   11.5221   18.8020  109.0776 Br  0  0  0  0  0  0
   18.2757   18.1213  109.4114 H   0  0  0  0  0  0
   19.2512   15.7548  110.2821 H   0  0  0  0  0  0
   16.8694   12.3645  109.4279 H   0  0  0  0  0  0
   17.3430   13.4545  108.2209 H   0  0  0  0  0  0
   15.0013   14.0288  108.6297 H   0  0  0  0  0  0
   15.2170   14.0640  110.3529 H   0  0  0  0  0  0
   13.1795   16.3538  109.1992 H   0  0  0  0  0  0
   13.8685   20.5755  109.1406 H   0  0  0  0  0  0
   16.3183   20.2579  109.2532 H   0  0  0  0  0  0
   20.3773   13.2803  108.9295 H   0  0  0  0  0  0
   21.9332   13.1023  107.0306 H   0  0  0  0  0  0
   22.0408   14.8981  105.3354 H   0  0  0  0  0  0
   18.9931   17.0544  107.3989 H   0  0  0  0  0  0
   18.0555   11.6144  111.6364 H   0  0  0  0  0  0
   16.4984   12.4005  111.6144 H   0  0  0  0  0  0
   16.8177   11.5622  113.8395 H   0  0  0  0  0  0
   16.8807   13.3079  113.9219 H   0  0  0  0  0  0
   19.2287   13.1962  113.8912 H   0  0  0  0  0  0
   18.6568   12.3622  115.1728 H   0  0  0  0  0  0
   20.0950   17.8741  105.6134 H   0  0  0  0  0  0
  1  8  1  0  0  0
  1  3  1  0  0  0
  1 27  1  0  0  0
  2  7  1  0  0  0
  2  9  1  0  0  0
  2  3  2  0  0  0
  3  4  1  0  0  0
  4  5  1  0  0  0
  4 14  1  0  0  0
  4 28  1  0  0  0
  5  6  1  0  0  0
  5 20  1  0  0  0
  6  7  1  0  0  0
  6 29  1  0  0  0
  6 30  1  0  0  0
  7 31  1  0  0  0
  7 32  1  0  0  0
  8 13  1  0  0  0
  8  9  2  0  0  0
  9 10  1  0  0  0
 10 11  2  0  0  0
 10 33  1  0  0  0
 11 12  1  0  0  0
 11 26  1  0  0  0
 12 13  2  0  0  0
 12 34  1  0  0  0
 13 35  1  0  0  0
 14 15  2  0  0  0
 14 19  1  0  0  0
 15 16  1  0  0  0
 15 36  1  0  0  0
 16 17  2  0  0  0
 16 37  1  0  0  0
 17 18  1  0  0  0
 17 38  1  0  0  0
 18 19  2  0  0  0
 18 25  1  0  0  0
 19 39  1  0  0  0
 20 21  2  0  0  0
 20 22  1  0  0  0
 22 23  1  0  0  0
 22 40  1  0  0  0
 22 41  1  0  0  0
 23 24  1  0  0  0
 23 42  1  0  0  0
 23 43  1  0  0  0
 24 44  1  0  0  0
 24 45  1  0  0  0
 25 46  1  0  0  0
M  END
> <s_m_entry_id>
534

> <s_m_entry_name>
dock_pv.533

> <s_m_Source_Path>
/home/csk/Desktop/cluster/DUD-E-result/kif11

> <s_m_Source_File>
dock_pv.maegz

> <i_m_Source_File_Index>
533

> <chembl_id>
CHEMBL592518

> <chembl_pref_name>
None

> <i_lp_mmshare_version>
53161

> <i_f3d_flags>
0

> <r_lp_tautomer_probability>
0.999999999997365

> <s_lp_Force_Field>
OPLS_2005

> <r_lp_Energy>
22.122994

> <b_lp_Chiralities_Consistent>
1

> <s_lp_Variant>
CHEMBL4581_lig303-2

> <s_i_glide_gridfile>
glide-grid_3cjo

> <i_i_glide_lignum>
445

> <i_i_glide_rotatable_bonds>
5

> <r_i_docking_score>
-6.90507593968572

> <r_i_glide_ligand_efficiency>
-0.265579843834066

> <r_i_glide_ligand_efficiency_sa>
-0.786779242352197

> <r_i_glide_ligand_efficiency_ln>
-1.62163442703301

> <r_i_glide_gscore>
-6.90507593968572

> <r_i_glide_lipo>
-3.37495076428673

> <r_i_glide_hbond>
-0.32

> <r_i_glide_metal>
0

> <r_i_glide_rewards>
-1.10407650467966

> <r_i_glide_evdw>
-38.0142517089844

> <r_i_glide_ecoul>
-3.6686155796051

> <r_i_glide_erotb>
0.344956251670651

> <r_i_glide_esite>
0

> <r_i_glide_emodel>
-55.37444784409

> <r_i_glide_energy>
-41.6828672885895

> <r_i_glide_einternal>
3.43550777435303

> <i_i_glide_confnum>
4

> <i_i_glide_posenum>
176

> <r_i_glide_eff_state_penalty>
0

> <s_user_duplicate_titles>
CHEMBL4581_lig303

> <s_m_subgroup_title>
dock_pv

> <s_m_subgroupid>
dock_pv

> <b_m_subgroup_collapsed>
1

$$$$
CHEMBL4581_lig744
                    3D
 Schrodinger Suite 2021-1.
 37 38  0  0  1  0            999 V2000
   14.1109   13.6167  106.5514 C   0  0  0  0  0  0
   13.4520   12.5640  105.6663 C   0  0  0  0  0  0
   13.7343   14.7859  106.4637 O   0  0  0  0  0  0
   15.0872   13.1620  107.3639 N   0  0  0  0  0  0
   17.4341   13.1622  108.5615 S   0  0  0  0  0  0
   15.8448   13.8591  108.2430 C   0  0  0  0  0  0
   15.5240   14.9034  108.8832 N   0  0  0  0  0  0
   16.5335   15.3378  109.6894 N   0  0  0  0  0  0
   17.7737   14.5041  109.7423 C   0  0  1  0  0  0
   17.9742   13.9092  111.1686 C   0  0  0  0  0  0
   17.1211   12.8934  111.6345 C   0  0  0  0  0  0
   17.2696   12.3619  112.9121 C   0  0  0  0  0  0
   18.2618   12.8516  113.7534 C   0  0  0  0  0  0
   19.1179   13.8553  113.3145 C   0  0  0  0  0  0
   18.9916   14.3627  112.0242 C   0  0  0  0  0  0
   19.0262   15.2306  109.1342 C   0  0  0  0  0  0
   20.2803   14.3619  108.8775 C   0  0  0  0  0  0
   16.2981   16.4754  110.4220 C   0  0  0  0  0  0
   15.1632   16.9105  110.6457 O   0  0  0  0  0  0
   17.4475   17.3339  110.9549 C   0  0  0  0  0  0
   13.6846   12.7599  104.6196 H   0  0  0  0  0  0
   12.3689   12.5965  105.7863 H   0  0  0  0  0  0
   13.7920   11.5565  105.9100 H   0  0  0  0  0  0
   15.3265   12.1809  107.2680 H   0  0  0  0  0  0
   16.3225   12.5133  111.0141 H   0  0  0  0  0  0
   16.6015   11.5830  113.2529 H   0  0  0  0  0  0
   18.3696   12.4484  114.7506 H   0  0  0  0  0  0
   19.8945   14.2275  113.9667 H   0  0  0  0  0  0
   19.6885   15.1258  111.7162 H   0  0  0  0  0  0
   18.7452   15.7026  108.1905 H   0  0  0  0  0  0
   19.3431   16.0505  109.7686 H   0  0  0  0  0  0
   21.1177   14.9856  108.5736 H   0  0  0  0  0  0
   20.5832   13.7990  109.7588 H   0  0  0  0  0  0
   20.1280   13.6436  108.0734 H   0  0  0  0  0  0
   18.1336   16.7796  111.5851 H   0  0  0  0  0  0
   17.9939   17.7891  110.1292 H   0  0  0  0  0  0
   17.0498   18.1540  111.5544 H   0  0  0  0  0  0
  1  2  1  0  0  0
  1  3  2  0  0  0
  1  4  1  0  0  0
  2 21  1  0  0  0
  2 22  1  0  0  0
  2 23  1  0  0  0
  4  6  1  0  0  0
  4 24  1  0  0  0
  5  6  1  0  0  0
  5  9  1  0  0  0
  6  7  2  0  0  0
  7  8  1  0  0  0
  8  9  1  0  0  0
  8 18  1  0  0  0
  9 10  1  0  0  0
  9 16  1  0  0  0
 10 11  1  0  0  0
 10 15  2  0  0  0
 11 12  2  0  0  0
 11 25  1  0  0  0
 12 13  1  0  0  0
 12 26  1  0  0  0
 13 14  2  0  0  0
 13 27  1  0  0  0
 14 15  1  0  0  0
 14 28  1  0  0  0
 15 29  1  0  0  0
 16 17  1  0  0  0
 16 30  1  0  0  0
 16 31  1  0  0  0
 17 32  1  0  0  0
 17 33  1  0  0  0
 17 34  1  0  0  0
 18 19  2  0  0  0
 18 20  1  0  0  0
 20 35  1  0  0  0
 20 36  1  0  0  0
 20 37  1  0  0  0
M  END
> <s_m_entry_id>
535

> <s_m_entry_name>
dock_pv.534

> <s_m_Source_Path>
/home/csk/Desktop/cluster/DUD-E-result/kif11

> <s_m_Source_File>
dock_pv.maegz

> <i_m_Source_File_Index>
534

> <chembl_id>
CHEMBL3735259

> <chembl_pref_name>
None

> <i_lp_mmshare_version>
53161

> <i_f3d_flags>
0

> <r_lp_tautomer_probability>
1

> <s_lp_Force_Field>
OPLS_2005

> <r_lp_Energy>
19.516835

> <b_lp_Chiralities_Consistent>
1

> <s_lp_Variant>
CHEMBL4581_lig744-1

> <s_i_glide_gridfile>
glide-grid_3cjo

> <i_i_glide_lignum>
1094

> <i_i_glide_rotatable_bonds>
5

> <r_i_docking_score>
-6.9040623461902

> <r_i_glide_ligand_efficiency>
-0.34520311730951

> <r_i_glide_ligand_efficiency_sa>
-0.93702542199272

> <r_i_glide_ligand_efficiency_ln>
-1.7278590940352

> <r_i_glide_gscore>
-6.9040623461902

> <r_i_glide_lipo>
-2.81787849120205

> <r_i_glide_hbond>
-0.32

> <r_i_glide_metal>
0

> <r_i_glide_rewards>
-1.77787242188184

> <r_i_glide_evdw>
-32.3722839355469

> <r_i_glide_ecoul>
-4.98680400848389

> <r_i_glide_erotb>
0.429699200720085

> <r_i_glide_esite>
-0.0513758357764737

> <r_i_glide_emodel>
-51.1835143115305

> <r_i_glide_energy>
-37.3590879440308

> <r_i_glide_einternal>
4.19945955276489

> <i_i_glide_confnum>
4

> <i_i_glide_posenum>
332

> <r_i_glide_eff_state_penalty>
0

> <s_user_duplicate_titles>
CHEMBL4581_lig744

> <s_m_subgroup_title>
dock_pv

> <s_m_subgroupid>
dock_pv

> <b_m_subgroup_collapsed>
1

$$$$
CHEMBL4581_lig549
                    3D
 Schrodinger Suite 2021-1.
 61 64  0  0  1  0            999 V2000
   18.7525   16.3620  106.4627 N   0  0  0  0  0  0
   18.2724   15.4865  107.2749 C   0  0  0  0  0  0
   19.0954   14.4937  107.8262 N   0  0  0  0  0  0
   20.4673   14.3619  107.5907 C   0  0  0  0  0  0
   20.0489   16.2706  106.0815 C   0  0  0  0  0  0
   20.9053   15.2884  106.5565 C   0  0  0  0  0  0
   22.4551   15.3329  105.7593 S   0  0  0  0  0  0
   21.9881   16.7724  104.9193 C   0  0  0  0  0  0
   20.6743   17.1275  105.1749 C   0  0  0  0  0  0
   21.1886   13.5478  108.1739 O   0  0  0  0  0  0
   16.7838   15.6216  107.7232 C   0  0  2  0  0  0
   15.8667   14.7051  106.9697 N   0  0  0  0  0  0
   16.2898   17.0987  107.7456 C   0  0  0  0  0  0
   15.7576   14.6849  105.5979 C   0  0  0  0  0  0
   14.7690   13.7384  104.9596 C   0  0  0  0  0  0
   16.3912   15.4356  104.8546 O   0  0  0  0  0  0
   14.9997   13.9062  107.8744 C   0  0  0  0  0  0
   13.4694   14.0416  107.6855 C   0  0  0  0  0  0
   18.5066   13.4426  108.6990 C   0  0  0  0  0  0
   18.4968   13.6941  110.2084 C   0  0  0  0  0  0
   17.8573   12.7618  111.0282 C   0  0  0  0  0  0
   17.8845   12.9050  112.4132 C   0  0  0  0  0  0
   18.5293   14.0007  112.9804 C   0  0  0  0  0  0
   19.1349   14.9571  112.1660 C   0  0  0  0  0  0
   19.1176   14.8075  110.7843 C   0  0  0  0  0  0
   14.9279   17.3107  108.4222 C   0  0  0  0  0  0
   12.7378   14.2676  109.0045 C   0  0  0  0  0  0
   11.3134   14.0939  108.8306 N   0  0  0  0  0  0
   13.6587   14.2171  104.2324 C   0  0  0  0  0  0
   12.7026   13.3211  103.7510 C   0  0  0  0  0  0
   12.8240   11.9563  103.9965 C   0  0  0  0  0  0
   13.9155   11.4773  104.7136 C   0  0  0  0  0  0
   14.8951   12.3585  105.1692 C   0  0  0  0  0  0
   13.3885   15.9058  103.9459 Cl  0  0  0  0  0  0
   22.6757   17.2615  104.2460 H   0  0  0  0  0  0
   20.1742   17.9614  104.7091 H   0  0  0  0  0  0
   16.7847   15.3379  108.7751 H   0  0  0  0  0  0
   17.0220   17.7205  108.2643 H   0  0  0  0  0  0
   16.2308   17.4830  106.7280 H   0  0  0  0  0  0
   15.2779   12.8575  107.7745 H   0  0  0  0  0  0
   15.2319   14.1434  108.9126 H   0  0  0  0  0  0
   13.2230   14.8642  107.0153 H   0  0  0  0  0  0
   13.0949   13.1387  107.1967 H   0  0  0  0  0  0
   17.4999   13.1965  108.3700 H   0  0  0  0  0  0
   19.0452   12.5052  108.5638 H   0  0  0  0  0  0
   17.3663   11.9032  110.5916 H   0  0  0  0  0  0
   17.4089   12.1707  113.0461 H   0  0  0  0  0  0
   18.5595   14.0961  114.0584 H   0  0  0  0  0  0
   19.6408   15.8079  112.5910 H   0  0  0  0  0  0
   19.6131   15.5495  110.1765 H   0  0  0  0  0  0
   14.7047   18.3740  108.5164 H   0  0  0  0  0  0
   14.1207   16.8655  107.8414 H   0  0  0  0  0  0
   14.9084   16.8812  109.4239 H   0  0  0  0  0  0
   13.0868   13.5635  109.7584 H   0  0  0  0  0  0
   12.9375   15.2768  109.3639 H   0  0  0  0  0  0
   10.8320   14.3831  109.6703 H   0  0  0  0  0  0
   10.9858   14.7027  108.0939 H   0  0  0  0  0  0
   11.8480   13.6923  103.2054 H   0  0  0  0  0  0
   12.0689   11.2715  103.6410 H   0  0  0  0  0  0
   14.0030   10.4197  104.9213 H   0  0  0  0  0  0
   15.7355   11.9568  105.7218 H   0  0  0  0  0  0
  1  5  1  0  0  0
  1  2  2  0  0  0
  2 11  1  0  0  0
  2  3  1  0  0  0
  3 19  1  0  0  0
  3  4  1  0  0  0
  4 10  2  0  0  0
  4  6  1  0  0  0
  5  9  1  0  0  0
  5  6  2  0  0  0
  6  7  1  0  0  0
  7  8  1  0  0  0
  8  9  2  0  0  0
  8 35  1  0  0  0
  9 36  1  0  0  0
 11 12  1  0  0  0
 11 13  1  0  0  0
 11 37  1  0  0  0
 12 17  1  0  0  0
 12 14  1  0  0  0
 13 26  1  0  0  0
 13 38  1  0  0  0
 13 39  1  0  0  0
 14 15  1  0  0  0
 14 16  2  0  0  0
 15 29  2  0  0  0
 15 33  1  0  0  0
 17 18  1  0  0  0
 17 40  1  0  0  0
 17 41  1  0  0  0
 18 27  1  0  0  0
 18 42  1  0  0  0
 18 43  1  0  0  0
 19 20  1  0  0  0
 19 44  1  0  0  0
 19 45  1  0  0  0
 20 21  2  0  0  0
 20 25  1  0  0  0
 21 22  1  0  0  0
 21 46  1  0  0  0
 22 23  2  0  0  0
 22 47  1  0  0  0
 23 24  1  0  0  0
 23 48  1  0  0  0
 24 25  2  0  0  0
 24 49  1  0  0  0
 25 50  1  0  0  0
 26 51  1  0  0  0
 26 52  1  0  0  0
 26 53  1  0  0  0
 27 28  1  0  0  0
 27 54  1  0  0  0
 27 55  1  0  0  0
 28 56  1  0  0  0
 28 57  1  0  0  0
 29 30  1  0  0  0
 29 34  1  0  0  0
 30 31  2  0  0  0
 30 58  1  0  0  0
 31 32  1  0  0  0
 31 59  1  0  0  0
 32 33  2  0  0  0
 32 60  1  0  0  0
 33 61  1  0  0  0
M  END
> <s_m_entry_id>
536

> <s_m_entry_name>
dock_pv.535

> <s_m_Source_Path>
/home/csk/Desktop/cluster/DUD-E-result/kif11

> <s_m_Source_File>
dock_pv.maegz

> <i_m_Source_File_Index>
535

> <chembl_id>
CHEMBL1829398

> <chembl_pref_name>
None

> <i_lp_mmshare_version>
53161

> <i_f3d_flags>
0

> <r_lp_tautomer_probability>
1

> <s_lp_Force_Field>
OPLS_2005

> <r_lp_Energy>
58.860211

> <b_lp_Chiralities_Consistent>
1

> <s_lp_Variant>
CHEMBL4581_lig549-1

> <s_i_glide_gridfile>
glide-grid_3cjo

> <i_i_glide_lignum>
824

> <i_i_glide_rotatable_bonds>
10

> <r_i_docking_score>
-6.90094771035905

> <r_i_glide_ligand_efficiency>
-0.202969050304678

> <r_i_glide_ligand_efficiency_sa>
-0.657540929888209

> <r_i_glide_ligand_efficiency_ln>
-1.52461291424511

> <r_i_glide_gscore>
-6.90094771035905

> <r_i_glide_lipo>
-3.96184695513801

> <r_i_glide_hbond>
0

> <r_i_glide_metal>
0

> <r_i_glide_rewards>
-0.508998503494667

> <r_i_glide_evdw>
-46.4047203063965

> <r_i_glide_ecoul>
-4.58302068710327

> <r_i_glide_erotb>
0.582214055407366

> <r_i_glide_esite>
-0.00462718874842423

> <r_i_glide_emodel>
-62.6658395915184

> <r_i_glide_energy>
-50.9877409934998

> <r_i_glide_einternal>
16.6885204315186

> <i_i_glide_confnum>
17

> <i_i_glide_posenum>
19

> <r_i_glide_eff_state_penalty>
0

> <s_user_duplicate_titles>
CHEMBL4581_lig549

> <s_m_subgroup_title>
dock_pv

> <s_m_subgroupid>
dock_pv

> <b_m_subgroup_collapsed>
1

$$$$
CHEMBL4581_lig642
                    3D
 Schrodinger Suite 2021-1.
 26 27  0  0  1  0            999 V2000
   21.1179   13.9621  107.3990 C   0  0  0  0  0  0
   20.4708   15.2051  107.3422 C   0  0  0  0  0  0
   20.9632   16.1594  106.4477 C   0  0  0  0  0  0
   22.0625   15.8523  105.6425 C   0  0  0  0  0  0
   22.6405   14.5849  105.7589 C   0  0  0  0  0  0
   22.1816   13.6382  106.6163 N   0  0  0  0  0  0
   19.3744   15.5241  108.1540 N   0  0  0  0  0  0
   18.6785   14.6791  109.0248 C   0  0  0  0  0  0
   18.9574   14.6914  110.3939 C   0  0  0  0  0  0
   18.2484   13.8524  111.2696 C   0  0  0  0  0  0
   17.2453   13.0230  110.7531 C   0  0  0  0  0  0
   16.9612   13.0220  109.3878 C   0  0  0  0  0  0
   17.6818   13.8421  108.5223 C   0  0  0  0  0  0
   18.5438   13.8244  112.7706 C   0  0  0  0  0  0
   19.6434   14.5123  113.0862 F   0  0  0  0  0  0
   18.6982   12.5676  113.1914 F   0  0  0  0  0  0
   17.5184   14.3607  113.4282 F   0  0  0  0  0  0
   20.7897   13.1971  108.0874 H   0  0  0  0  0  0
   20.5009   17.1356  106.3808 H   0  0  0  0  0  0
   22.4510   16.5743  104.9417 H   0  0  0  0  0  0
   23.4799   14.3001  105.1431 H   0  0  0  0  0  0
   18.9764   16.4443  108.0195 H   0  0  0  0  0  0
   19.7293   15.3516  110.7705 H   0  0  0  0  0  0
   16.6838   12.3697  111.4105 H   0  0  0  0  0  0
   16.1900   12.3737  108.9944 H   0  0  0  0  0  0
   17.4675   13.8278  107.4620 H   0  0  0  0  0  0
  1  2  1  0  0  0
  1  6  2  0  0  0
  1 18  1  0  0  0
  2  3  2  0  0  0
  2  7  1  0  0  0
  3  4  1  0  0  0
  3 19  1  0  0  0
  4  5  2  0  0  0
  4 20  1  0  0  0
  5  6  1  0  0  0
  5 21  1  0  0  0
  7  8  1  0  0  0
  7 22  1  0  0  0
  8  9  1  0  0  0
  8 13  2  0  0  0
  9 10  2  0  0  0
  9 23  1  0  0  0
 10 11  1  0  0  0
 10 14  1  0  0  0
 11 12  2  0  0  0
 11 24  1  0  0  0
 12 13  1  0  0  0
 12 25  1  0  0  0
 13 26  1  0  0  0
 14 15  1  0  0  0
 14 16  1  0  0  0
 14 17  1  0  0  0
M  END
> <s_m_entry_id>
537

> <s_m_entry_name>
dock_pv.536

> <s_m_Source_Path>
/home/csk/Desktop/cluster/DUD-E-result/kif11

> <s_m_Source_File>
dock_pv.maegz

> <i_m_Source_File_Index>
536

> <chembl_id>
CHEMBL3288961

> <chembl_pref_name>
None

> <i_lp_mmshare_version>
53161

> <i_f3d_flags>
0

> <r_lp_tautomer_probability>
0.999999999999999

> <s_lp_Force_Field>
OPLS_2005

> <r_lp_Energy>
13.732136

> <b_lp_Chiralities_Consistent>
1

> <s_lp_Variant>
CHEMBL4581_lig642-1

> <s_i_glide_gridfile>
glide-grid_3cjo

> <i_i_glide_lignum>
980

> <i_i_glide_rotatable_bonds>
3

> <r_i_docking_score>
-6.90093465350461

> <r_i_glide_ligand_efficiency>
-0.405937332559095

> <r_i_glide_ligand_efficiency_sa>
-1.04377918918436

> <r_i_glide_ligand_efficiency_ln>
-1.80030017484031

> <r_i_glide_gscore>
-6.90093465350461

> <r_i_glide_lipo>
-3.09207987170875

> <r_i_glide_hbond>
0

> <r_i_glide_metal>
0

> <r_i_glide_rewards>
-2.70780617228128

> <r_i_glide_evdw>
-30.1998653411865

> <r_i_glide_ecoul>
-1.32844352722168

> <r_i_glide_erotb>
0.608211186627998

> <r_i_glide_esite>
0

> <r_i_glide_emodel>
-40.96698019438

> <r_i_glide_energy>
-31.5283088684082

> <r_i_glide_einternal>
7.77042865753174

> <i_i_glide_confnum>
2

> <i_i_glide_posenum>
356

> <r_i_glide_eff_state_penalty>
0

> <s_user_duplicate_titles>
CHEMBL4581_lig642

> <s_m_subgroup_title>
dock_pv

> <s_m_subgroupid>
dock_pv

> <b_m_subgroup_collapsed>
1

$$$$
CHEMBL4581_lig291
                    3D
 Schrodinger Suite 2021-1.
 52 55  0  0  1  0            999 V2000
   18.7714   15.9585  109.3408 N   0  0  0  0  0  0
   17.4469   14.2387  108.7808 C   0  0  0  0  0  0
   18.1702   15.3119  108.2965 C   0  0  0  0  0  0
   18.2691   15.7479  106.8368 C   0  0  2  0  0  0
   17.3268   14.9235  106.0337 N   0  0  0  0  0  0
   17.2106   13.5020  106.4232 C   0  0  0  0  0  0
   16.6003   13.3981  107.8428 C   0  0  0  0  0  0
   18.6001   15.2402  110.5004 C   0  0  0  0  0  0
   17.7454   14.1397  110.1823 C   0  0  0  0  0  0
   17.3991   13.2414  111.2052 C   0  0  0  0  0  0
   17.9181   13.4449  112.4835 C   0  0  0  0  0  0
   18.7624   14.5165  112.7571 C   0  0  0  0  0  0
   19.1180   15.4452  111.7800 C   0  0  0  0  0  0
   19.7206   15.7479  106.3332 C   0  0  0  0  0  0
   20.1798   16.7624  105.4880 C   0  0  0  0  0  0
   21.4965   16.7652  105.0226 C   0  0  0  0  0  0
   22.3537   15.7184  105.3563 C   0  0  0  0  0  0
   21.8935   14.6798  106.1591 C   0  0  0  0  0  0
   20.5995   14.7124  106.6699 C   0  0  0  0  0  0
   16.7298   15.4495  104.9255 C   0  0  0  0  0  0
   17.0400   16.5564  104.4749 O   0  0  0  0  0  0
   15.6423   14.6266  104.1607 C   0  0  1  0  0  0
   14.4114   15.4979  103.7273 C   0  0  0  0  0  0
   22.7080   13.6222  106.4451 O   0  0  0  0  0  0
   17.5021   12.3620  113.7560 Cl  0  0  0  0  0  0
   14.6470   16.4798  102.5549 C   0  0  0  0  0  0
   13.7312   16.2299  104.9035 C   0  0  0  0  0  0
   16.3195   13.9617  103.0312 N   0  0  0  0  0  0
   19.3224   16.7942  109.2084 H   0  0  0  0  0  0
   17.9241   16.7659  106.7694 H   0  0  0  0  0  0
   18.2402   13.1617  106.4625 H   0  0  0  0  0  0
   16.7658   12.8385  105.6824 H   0  0  0  0  0  0
   16.6264   12.3622  108.1672 H   0  0  0  0  0  0
   15.5515   13.7000  107.8436 H   0  0  0  0  0  0
   16.7557   12.3971  111.0035 H   0  0  0  0  0  0
   19.1473   14.6377  113.7593 H   0  0  0  0  0  0
   19.7696   16.2761  112.0067 H   0  0  0  0  0  0
   19.5183   17.5618  105.1955 H   0  0  0  0  0  0
   21.8397   17.5603  104.3762 H   0  0  0  0  0  0
   23.3594   15.7013  104.9649 H   0  0  0  0  0  0
   20.2728   13.9114  107.3131 H   0  0  0  0  0  0
   15.2265   13.8757  104.8315 H   0  0  0  0  0  0
   13.6707   14.7855  103.3590 H   0  0  0  0  0  0
   23.5289   13.6529  105.9514 H   0  0  0  0  0  0
   15.3289   17.2880  102.8166 H   0  0  0  0  0  0
   15.0497   15.9681  101.6801 H   0  0  0  0  0  0
   13.7070   16.9411  102.2485 H   0  0  0  0  0  0
   14.3716   17.0062  105.3258 H   0  0  0  0  0  0
   12.8051   16.7099  104.5852 H   0  0  0  0  0  0
   13.4790   15.5349  105.7052 H   0  0  0  0  0  0
   16.6010   14.6664  102.3663 H   0  0  0  0  0  0
   17.1736   13.5067  103.3586 H   0  0  0  0  0  0
  1  8  1  0  0  0
  1  3  1  0  0  0
  1 29  1  0  0  0
  2  9  1  0  0  0
  2  3  2  0  0  0
  2  7  1  0  0  0
  3  4  1  0  0  0
  4  5  1  0  0  0
  4 14  1  0  0  0
  4 30  1  0  0  0
  5  6  1  0  0  0
  5 20  1  0  0  0
  6  7  1  0  0  0
  6 31  1  0  0  0
  6 32  1  0  0  0
  7 33  1  0  0  0
  7 34  1  0  0  0
  8 13  1  0  0  0
  8  9  2  0  0  0
  9 10  1  0  0  0
 10 11  2  0  0  0
 10 35  1  0  0  0
 11 25  1  0  0  0
 11 12  1  0  0  0
 12 13  2  0  0  0
 12 36  1  0  0  0
 13 37  1  0  0  0
 14 15  2  0  0  0
 14 19  1  0  0  0
 15 16  1  0  0  0
 15 38  1  0  0  0
 16 17  2  0  0  0
 16 39  1  0  0  0
 17 18  1  0  0  0
 17 40  1  0  0  0
 18 19  2  0  0  0
 18 24  1  0  0  0
 19 41  1  0  0  0
 20 21  2  0  0  0
 20 22  1  0  0  0
 22 23  1  0  0  0
 22 28  1  0  0  0
 22 42  1  0  0  0
 23 26  1  0  0  0
 23 27  1  0  0  0
 23 43  1  0  0  0
 24 44  1  0  0  0
 26 45  1  0  0  0
 26 46  1  0  0  0
 26 47  1  0  0  0
 27 48  1  0  0  0
 27 49  1  0  0  0
 27 50  1  0  0  0
 28 51  1  0  0  0
 28 52  1  0  0  0
M  END
> <s_m_entry_id>
538

> <s_m_entry_name>
dock_pv.537

> <s_m_Source_Path>
/home/csk/Desktop/cluster/DUD-E-result/kif11

> <s_m_Source_File>
dock_pv.maegz

> <i_m_Source_File_Index>
537

> <chembl_id>
CHEMBL589392

> <chembl_pref_name>
None

> <i_lp_mmshare_version>
53161

> <i_f3d_flags>
0

> <r_lp_tautomer_probability>
0.999999999997365

> <s_lp_Force_Field>
OPLS_2005

> <r_lp_Energy>
28.371065

> <b_lp_Chiralities_Consistent>
1

> <s_lp_Variant>
CHEMBL4581_lig291-1

> <s_i_glide_gridfile>
glide-grid_3cjo

> <i_i_glide_lignum>
418

> <i_i_glide_rotatable_bonds>
5

> <r_i_docking_score>
-6.89941843304438

> <r_i_glide_ligand_efficiency>
-0.246407801180156

> <r_i_glide_ligand_efficiency_sa>
-0.748239210816699

> <r_i_glide_ligand_efficiency_ln>
-1.5925883500743

> <r_i_glide_gscore>
-6.89941843304438

> <r_i_glide_lipo>
-3.95416692122739

> <r_i_glide_hbond>
-0.129086901092017

> <r_i_glide_metal>
0

> <r_i_glide_rewards>
-0.747237864670267

> <r_i_glide_evdw>
-42.0080337524414

> <r_i_glide_ecoul>
-2.04695248603821

> <r_i_glide_erotb>
0.371001841389569

> <r_i_glide_esite>
-0.0324840269164797

> <r_i_glide_emodel>
-60.5588867174153

> <r_i_glide_energy>
-44.0549862384796

> <r_i_glide_einternal>
3.69080972671509

> <i_i_glide_confnum>
8

> <i_i_glide_posenum>
296

> <r_i_glide_eff_state_penalty>
0

> <s_user_duplicate_titles>
CHEMBL4581_lig291

> <s_m_subgroup_title>
dock_pv

> <s_m_subgroupid>
dock_pv

> <b_m_subgroup_collapsed>
1

$$$$
CHEMBL4581_lig605
                    3D
 Schrodinger Suite 2021-1.
 50 52  0  0  1  0            999 V2000
   17.4260   14.4791  109.7144 C   0  0  0  0  0  0
   17.3600   15.4828  108.5198 C   0  0  2  0  0  0
   16.2422   16.5069  108.8680 C   0  0  0  0  0  0
   14.9098   16.0673  108.9521 C   0  0  0  0  0  0
   13.8824   16.9480  109.2794 C   0  0  0  0  0  0
   14.1756   18.2860  109.5262 C   0  0  0  0  0  0
   15.4872   18.7458  109.4552 C   0  0  0  0  0  0
   16.5133   17.8636  109.1296 C   0  0  0  0  0  0
   16.8979   14.6143  106.9462 S   0  0  0  0  0  0
   16.6709   15.9342  105.7078 C   0  0  0  0  0  0
   16.9853   15.4453  104.2769 C   0  0  2  0  0  0
   18.7525   16.1844  108.2791 C   0  0  0  0  0  0
   19.8960   15.3618  107.6685 C   0  0  0  0  0  0
   20.4364   14.2574  108.3357 C   0  0  0  0  0  0
   21.5094   13.5619  107.7791 C   0  0  0  0  0  0
   22.0352   13.9621  106.5552 C   0  0  0  0  0  0
   21.5140   15.0684  105.8903 C   0  0  0  0  0  0
   20.4437   15.7652  106.4440 C   0  0  0  0  0  0
   17.1130   16.5581  103.3157 N   0  0  0  0  0  0
   15.9212   14.4590  103.7401 C   0  0  0  0  0  0
   16.3180   13.1624  103.8862 O   0  0  0  0  0  0
   14.8580   14.8260  103.2414 O   0  0  0  0  0  0
   18.1143   14.8216  110.8936 C   0  0  0  0  0  0
   17.5495   12.7079  111.9140 C   0  0  0  0  0  0
   16.8315   12.3618  110.7755 C   0  0  0  0  0  0
   16.7810   13.2271  109.6841 C   0  0  0  0  0  0
   18.1983   13.9372  111.9676 C   0  0  0  0  0  0
   19.1197   14.3620  113.3588 Cl  0  0  0  0  0  0
   14.6656   15.0327  108.7630 H   0  0  0  0  0  0
   12.8625   16.5951  109.3358 H   0  0  0  0  0  0
   13.3800   18.9720  109.7805 H   0  0  0  0  0  0
   15.7072   19.7841  109.6572 H   0  0  0  0  0  0
   17.5142   18.2671  109.0999 H   0  0  0  0  0  0
   15.6530   16.3202  105.7845 H   0  0  0  0  0  0
   17.3297   16.7619  105.9456 H   0  0  0  0  0  0
   17.9387   14.9178  104.3062 H   0  0  0  0  0  0
   18.6153   17.0449  107.6292 H   0  0  0  0  0  0
   19.1185   16.6450  109.1915 H   0  0  0  0  0  0
   20.0480   13.9346  109.2876 H   0  0  0  0  0  0
   21.9291   12.7116  108.2909 H   0  0  0  0  0  0
   22.8576   13.4139  106.1189 H   0  0  0  0  0  0
   21.9306   15.3764  104.9422 H   0  0  0  0  0  0
   20.0479   16.6234  105.9192 H   0  0  0  0  0  0
   16.6986   16.2963  102.4309 H   0  0  0  0  0  0
   16.5838   17.3567  103.6407 H   0  0  0  0  0  0
   17.2478   13.0715  104.1590 H   0  0  0  0  0  0
   18.5992   15.7779  111.0014 H   0  0  0  0  0  0
   17.6034   12.0240  112.7489 H   0  0  0  0  0  0
   16.3251   11.4080  110.7334 H   0  0  0  0  0  0
   16.2138   12.8980  108.8265 H   0  0  0  0  0  0
  1 23  2  0  0  0
  1  2  1  0  0  0
  1 26  1  0  0  0
  2  9  1  0  0  0
  2  3  1  0  0  0
  2 12  1  0  0  0
  3  4  2  0  0  0
  3  8  1  0  0  0
  4  5  1  0  0  0
  4 29  1  0  0  0
  5  6  2  0  0  0
  5 30  1  0  0  0
  6  7  1  0  0  0
  6 31  1  0  0  0
  7  8  2  0  0  0
  7 32  1  0  0  0
  8 33  1  0  0  0
  9 10  1  0  0  0
 10 11  1  0  0  0
 10 34  1  0  0  0
 10 35  1  0  0  0
 11 19  1  0  0  0
 11 20  1  0  0  0
 11 36  1  0  0  0
 12 13  1  0  0  0
 12 37  1  0  0  0
 12 38  1  0  0  0
 13 14  2  0  0  0
 13 18  1  0  0  0
 14 15  1  0  0  0
 14 39  1  0  0  0
 15 16  2  0  0  0
 15 40  1  0  0  0
 16 17  1  0  0  0
 16 41  1  0  0  0
 17 18  2  0  0  0
 17 42  1  0  0  0
 18 43  1  0  0  0
 19 44  1  0  0  0
 19 45  1  0  0  0
 20 21  1  0  0  0
 20 22  2  0  0  0
 21 46  1  0  0  0
 23 27  1  0  0  0
 23 47  1  0  0  0
 24 27  2  0  0  0
 24 25  1  0  0  0
 24 48  1  0  0  0
 25 26  2  0  0  0
 25 49  1  0  0  0
 26 50  1  0  0  0
 27 28  1  0  0  0
M  END
> <s_m_entry_id>
539

> <s_m_entry_name>
dock_pv.538

> <s_m_Source_Path>
/home/csk/Desktop/cluster/DUD-E-result/kif11

> <s_m_Source_File>
dock_pv.maegz

> <i_m_Source_File_Index>
538

> <chembl_id>
CHEMBL2043397

> <chembl_pref_name>
None

> <i_lp_mmshare_version>
53161

> <i_f3d_flags>
0

> <r_lp_tautomer_probability>
1

> <s_lp_Force_Field>
OPLS_2005

> <r_lp_Energy>
21.701113

> <b_lp_Chiralities_Consistent>
1

> <s_lp_Variant>
CHEMBL4581_lig605-2

> <s_i_glide_gridfile>
glide-grid_3cjo

> <i_i_glide_lignum>
935

> <i_i_glide_rotatable_bonds>
9

> <r_i_docking_score>
-6.89889859769913

> <r_i_glide_ligand_efficiency>
-0.246389235632112

> <r_i_glide_ligand_efficiency_sa>
-0.748182834878312

> <r_i_glide_ligand_efficiency_ln>
-1.59246835681359

> <r_i_glide_gscore>
-6.89889859769913

> <r_i_glide_lipo>
-4.06576169133405

> <r_i_glide_hbond>
0

> <r_i_glide_metal>
0

> <r_i_glide_rewards>
-0.650375136363635

> <r_i_glide_evdw>
-40.6310691833496

> <r_i_glide_ecoul>
-7.07789611816406

> <r_i_glide_erotb>
0.929380525067386

> <r_i_glide_esite>
-0.0189044181767409

> <r_i_glide_emodel>
-63.3791852905666

> <r_i_glide_energy>
-47.7089653015137

> <r_i_glide_einternal>
8.61896896362305

> <i_i_glide_confnum>
156

> <i_i_glide_posenum>
36

> <r_i_glide_eff_state_penalty>
0

> <s_user_duplicate_titles>
CHEMBL4581_lig605

> <s_m_subgroup_title>
dock_pv

> <s_m_subgroupid>
dock_pv

> <b_m_subgroup_collapsed>
1

$$$$
CHEMBL4581_lig451
                    3D
 Schrodinger Suite 2021-1.
 59 61  0  0  1  0            999 V2000
   17.5517   14.7174  109.2957 C   0  0  0  0  0  0
   16.7097   13.1844  108.6443 S   0  0  0  0  0  0
   18.7866   14.9719  108.3566 C   0  0  0  0  0  0
   16.5347   15.9141  109.3739 C   0  0  0  0  0  0
   18.0628   14.3635  110.7385 C   0  0  0  0  0  0
   16.1206   16.4538  110.6035 C   0  0  0  0  0  0
   15.2907   17.5672  110.6710 C   0  0  0  0  0  0
   14.8276   18.1913  109.5084 C   0  0  0  0  0  0
   15.2113   17.6506  108.2749 C   0  0  0  0  0  0
   16.0481   16.5402  108.2163 C   0  0  0  0  0  0
   19.0101   16.1714  107.6526 C   0  0  0  0  0  0
   20.0751   16.3047  106.7641 C   0  0  0  0  0  0
   20.9775   15.2612  106.6028 C   0  0  0  0  0  0
   20.8415   14.1042  107.3610 C   0  0  0  0  0  0
   19.7560   13.9628  108.2254 C   0  0  0  0  0  0
   17.4577   13.3720  111.5410 C   0  0  0  0  0  0
   17.9181   13.0918  112.8227 C   0  0  0  0  0  0
   18.9961   13.8017  113.3319 C   0  0  0  0  0  0
   19.6062   14.7896  112.5677 C   0  0  0  0  0  0
   19.1425   15.0702  111.2857 C   0  0  0  0  0  0
   15.4833   13.5023  107.3333 C   0  0  0  0  0  0
   16.0569   13.1897  105.9328 C   0  0  1  0  0  0
   14.9623   12.6706  104.9659 C   0  0  0  0  0  0
   14.4911   11.4509  105.3590 O   0  0  0  0  0  0
   14.5879   13.2837  103.9642 O   0  0  0  0  0  0
   16.7184   14.3621  105.3314 N   0  0  0  0  0  0
   13.9308   19.4493  109.6243 C   0  0  0  0  0  0
   13.4534   19.9917  108.2512 C   0  0  0  0  0  0
   14.7210   20.5825  110.3242 C   0  0  0  0  0  0
   12.6666   19.1205  110.4561 C   0  0  0  0  0  0
   16.4564   16.0458  111.5418 H   0  0  0  0  0  0
   15.0278   17.9564  111.6436 H   0  0  0  0  0  0
   14.8890   18.0853  107.3419 H   0  0  0  0  0  0
   16.3434   16.1818  107.2419 H   0  0  0  0  0  0
   18.3827   17.0375  107.7696 H   0  0  0  0  0  0
   20.2070   17.2247  106.2137 H   0  0  0  0  0  0
   21.8050   15.3623  105.9158 H   0  0  0  0  0  0
   21.5584   13.3026  107.2566 H   0  0  0  0  0  0
   19.6497   13.0415  108.7808 H   0  0  0  0  0  0
   16.6023   12.8072  111.2037 H   0  0  0  0  0  0
   17.4388   12.3272  113.4174 H   0  0  0  0  0  0
   19.3635   13.5750  114.3216 H   0  0  0  0  0  0
   20.4460   15.3383  112.9656 H   0  0  0  0  0  0
   19.6269   15.8514  110.7181 H   0  0  0  0  0  0
   14.6791   12.8068  107.5745 H   0  0  0  0  0  0
   14.9997   14.4700  107.3849 H   0  0  0  0  0  0
   16.7814   12.3792  106.0324 H   0  0  0  0  0  0
   14.9210   11.1116  106.1556 H   0  0  0  0  0  0
   17.6135   14.0552  104.9541 H   0  0  0  0  0  0
   16.1752   14.6555  104.5296 H   0  0  0  0  0  0
   12.8189   20.8714  108.3675 H   0  0  0  0  0  0
   12.8700   19.2505  107.7037 H   0  0  0  0  0  0
   14.2907   20.2928  107.6203 H   0  0  0  0  0  0
   15.0454   20.3040  111.3276 H   0  0  0  0  0  0
   15.6141   20.8518  109.7588 H   0  0  0  0  0  0
   14.1222   21.4881  110.4282 H   0  0  0  0  0  0
   12.9073   18.8198  111.4758 H   0  0  0  0  0  0
   12.0031   19.9827  110.5338 H   0  0  0  0  0  0
   12.0931   18.3103  110.0042 H   0  0  0  0  0  0
  1  5  1  0  0  0
  1  3  1  0  0  0
  1  2  1  0  0  0
  1  4  1  0  0  0
  2 21  1  0  0  0
  3 15  1  0  0  0
  3 11  2  0  0  0
  4 10  1  0  0  0
  4  6  2  0  0  0
  5 16  2  0  0  0
  5 20  1  0  0  0
  6  7  1  0  0  0
  6 31  1  0  0  0
  7  8  2  0  0  0
  7 32  1  0  0  0
  8  9  1  0  0  0
  8 27  1  0  0  0
  9 10  2  0  0  0
  9 33  1  0  0  0
 10 34  1  0  0  0
 11 12  1  0  0  0
 11 35  1  0  0  0
 12 13  2  0  0  0
 12 36  1  0  0  0
 13 14  1  0  0  0
 13 37  1  0  0  0
 14 15  2  0  0  0
 14 38  1  0  0  0
 15 39  1  0  0  0
 16 17  1  0  0  0
 16 40  1  0  0  0
 17 18  2  0  0  0
 17 41  1  0  0  0
 18 19  1  0  0  0
 18 42  1  0  0  0
 19 20  2  0  0  0
 19 43  1  0  0  0
 20 44  1  0  0  0
 21 22  1  0  0  0
 21 45  1  0  0  0
 21 46  1  0  0  0
 22 23  1  0  0  0
 22 26  1  0  0  0
 22 47  1  0  0  0
 23 24  1  0  0  0
 23 25  2  0  0  0
 24 48  1  0  0  0
 26 49  1  0  0  0
 26 50  1  0  0  0
 27 28  1  0  0  0
 27 29  1  0  0  0
 27 30  1  0  0  0
 28 51  1  0  0  0
 28 52  1  0  0  0
 28 53  1  0  0  0
 29 54  1  0  0  0
 29 55  1  0  0  0
 29 56  1  0  0  0
 30 57  1  0  0  0
 30 58  1  0  0  0
 30 59  1  0  0  0
M  END
> <s_m_entry_id>
540

> <s_m_entry_name>
dock_pv.539

> <s_m_Source_Path>
/home/csk/Desktop/cluster/DUD-E-result/kif11

> <s_m_Source_File>
dock_pv.maegz

> <i_m_Source_File_Index>
539

> <chembl_id>
CHEMBL1688926

> <chembl_pref_name>
None

> <i_lp_mmshare_version>
53161

> <i_f3d_flags>
0

> <r_lp_tautomer_probability>
1

> <s_lp_Force_Field>
OPLS_2005

> <r_lp_Energy>
28.806666

> <b_lp_Chiralities_Consistent>
1

> <s_lp_Variant>
CHEMBL4581_lig451-1

> <s_i_glide_gridfile>
glide-grid_3cjo

> <i_i_glide_lignum>
674

> <i_i_glide_rotatable_bonds>
9

> <r_i_docking_score>
-6.89819659079774

> <r_i_glide_ligand_efficiency>
-0.229939886359925

> <r_i_glide_ligand_efficiency_sa>
-0.714476688502869

> <r_i_glide_ligand_efficiency_ln>
-1.5673454273011

> <r_i_glide_gscore>
-6.89819659079774

> <r_i_glide_lipo>
-3.80299928480444

> <r_i_glide_hbond>
-0.139558182392558

> <r_i_glide_metal>
0

> <r_i_glide_rewards>
-0.609827110914994

> <r_i_glide_evdw>
-38.6244354248047

> <r_i_glide_ecoul>
-7.96769332885742

> <r_i_glide_erotb>
0.786677981913561

> <r_i_glide_esite>
-0.00611422403046719

> <r_i_glide_emodel>
-60.0267347932236

> <r_i_glide_energy>
-46.5921287536621

> <r_i_glide_einternal>
12.3584823608398

> <i_i_glide_confnum>
39

> <i_i_glide_posenum>
52

> <r_i_glide_eff_state_penalty>
0

> <s_user_duplicate_titles>
CHEMBL4581_lig451

> <s_m_subgroup_title>
dock_pv

> <s_m_subgroupid>
dock_pv

> <b_m_subgroup_collapsed>
1

$$$$
CHEMBL4581_lig68
                    3D
 Schrodinger Suite 2021-1.
 57 59  0  0  1  0            999 V2000
   16.7265   13.4748  109.1445 C   0  0  0  0  0  0
   16.9501   14.0605  107.8176 N   0  0  2  0  0  0
   17.1721   15.5055  107.9446 C   0  0  0  0  0  0
   18.5167   15.7508  108.6689 C   0  0  1  0  0  0
   17.7284   13.8917  110.2330 C   0  0  0  0  0  0
   18.5225   15.0418  110.0341 C   0  0  0  0  0  0
   19.3206   15.4981  111.0834 C   0  0  0  0  0  0
   19.3866   14.8187  112.2914 C   0  0  0  0  0  0
   18.6331   13.6669  112.4932 C   0  0  0  0  0  0
   17.8024   13.2015  111.4605 C   0  0  0  0  0  0
   16.9389   11.9592  111.6500 C   0  0  0  0  0  0
   18.7455   12.9593  113.8377 C   0  0  0  0  0  0
   19.7156   15.4086  107.7586 C   0  0  0  0  0  0
   20.0538   16.2878  106.7243 C   0  0  0  0  0  0
   21.1165   16.0126  105.8682 C   0  0  0  0  0  0
   21.8422   14.8371  106.0354 C   0  0  0  0  0  0
   21.5178   13.9483  107.0559 C   0  0  0  0  0  0
   20.4689   14.2401  107.9254 C   0  0  0  0  0  0
   15.8384   13.7088  106.9243 C   0  0  0  0  0  0
   16.2466   13.5926  105.4402 C   0  0  0  0  0  0
   16.5814   14.9158  104.7177 C   0  0  0  0  0  0
   16.2945   14.8623  103.2028 C   0  0  0  0  0  0
   16.7993   16.0159  102.4433 N   0  0  0  0  0  0
   16.3046   17.2971  102.9501 C   0  0  0  0  0  0
   16.3824   15.8752  101.0491 C   0  0  0  0  0  0
   15.7214   13.7172  109.4990 H   0  0  0  0  0  0
   16.7691   12.3908  109.0153 H   0  0  0  0  0  0
   17.2378   15.9735  106.9669 H   0  0  0  0  0  0
   16.3295   15.9836  108.4480 H   0  0  0  0  0  0
   18.5998   16.8207  108.8626 H   0  0  0  0  0  0
   19.9171   16.3883  110.9589 H   0  0  0  0  0  0
   20.0362   15.1853  113.0709 H   0  0  0  0  0  0
   16.9166   11.5629  112.6634 H   0  0  0  0  0  0
   15.9181   12.2136  111.3866 H   0  0  0  0  0  0
   17.2517   11.1694  110.9658 H   0  0  0  0  0  0
   17.7949   12.9877  114.3700 H   0  0  0  0  0  0
   19.0148   11.9169  113.6852 H   0  0  0  0  0  0
   19.5147   13.3950  114.4755 H   0  0  0  0  0  0
   19.4807   17.1825  106.5709 H   0  0  0  0  0  0
   21.3668   16.6970  105.0728 H   0  0  0  0  0  0
   22.6562   14.6068  105.3635 H   0  0  0  0  0  0
   22.0808   13.0339  107.1730 H   0  0  0  0  0  0
   20.2249   13.5334  108.7057 H   0  0  0  0  0  0
   15.0456   14.4526  107.0322 H   0  0  0  0  0  0
   15.3831   12.7619  107.2167 H   0  0  0  0  0  0
   15.4169   13.1103  104.9213 H   0  0  0  0  0  0
   17.0878   12.9032  105.3590 H   0  0  0  0  0  0
   17.6129   15.2175  104.9095 H   0  0  0  0  0  0
   15.9322   15.6810  105.1444 H   0  0  0  0  0  0
   15.2140   14.7760  103.0638 H   0  0  0  0  0  0
   16.7089   13.9365  102.7983 H   0  0  0  0  0  0
   16.6479   18.1213  102.3236 H   0  0  0  0  0  0
   16.6802   17.4903  103.9552 H   0  0  0  0  0  0
   15.2134   17.3248  102.9830 H   0  0  0  0  0  0
   16.7178   16.7217  100.4474 H   0  0  0  0  0  0
   16.8051   14.9731  100.6031 H   0  0  0  0  0  0
   15.2947   15.8179  100.9532 H   0  0  0  0  0  0
  1  5  1  0  0  0
  1  2  1  0  0  0
  1 26  1  0  0  0
  1 27  1  0  0  0
  2  3  1  0  0  0
  2 19  1  0  0  0
  3  4  1  0  0  0
  3 28  1  0  0  0
  3 29  1  0  0  0
  4 13  1  0  0  0
  4  6  1  0  0  0
  4 30  1  0  0  0
  5  6  2  0  0  0
  5 10  1  0  0  0
  6  7  1  0  0  0
  7  8  2  0  0  0
  7 31  1  0  0  0
  8  9  1  0  0  0
  8 32  1  0  0  0
  9 12  1  0  0  0
  9 10  2  0  0  0
 10 11  1  0  0  0
 11 33  1  0  0  0
 11 34  1  0  0  0
 11 35  1  0  0  0
 12 36  1  0  0  0
 12 37  1  0  0  0
 12 38  1  0  0  0
 13 14  2  0  0  0
 13 18  1  0  0  0
 14 15  1  0  0  0
 14 39  1  0  0  0
 15 16  2  0  0  0
 15 40  1  0  0  0
 16 17  1  0  0  0
 16 41  1  0  0  0
 17 18  2  0  0  0
 17 42  1  0  0  0
 18 43  1  0  0  0
 19 20  1  0  0  0
 19 44  1  0  0  0
 19 45  1  0  0  0
 20 21  1  0  0  0
 20 46  1  0  0  0
 20 47  1  0  0  0
 21 22  1  0  0  0
 21 48  1  0  0  0
 21 49  1  0  0  0
 22 23  1  0  0  0
 22 50  1  0  0  0
 22 51  1  0  0  0
 23 24  1  0  0  0
 23 25  1  0  0  0
 24 52  1  0  0  0
 24 53  1  0  0  0
 24 54  1  0  0  0
 25 55  1  0  0  0
 25 56  1  0  0  0
 25 57  1  0  0  0
M  END
> <s_m_entry_id>
541

> <s_m_entry_name>
dock_pv.540

> <s_m_Source_Path>
/home/csk/Desktop/cluster/DUD-E-result/kif11

> <s_m_Source_File>
dock_pv.maegz

> <i_m_Source_File_Index>
540

> <chembl_id>
CHEMBL205297

> <chembl_pref_name>
None

> <i_lp_mmshare_version>
53161

> <i_f3d_flags>
0

> <r_lp_tautomer_probability>
1

> <s_lp_Force_Field>
OPLS_2005

> <r_lp_Energy>
27.467119

> <b_lp_Chiralities_Consistent>
1

> <s_lp_Variant>
CHEMBL4581_lig68-2

> <s_i_glide_gridfile>
glide-grid_3cjo

> <i_i_glide_lignum>
103

> <i_i_glide_rotatable_bonds>
6

> <r_i_docking_score>
-6.88693374380115

> <r_i_glide_ligand_efficiency>
-0.275477349752046

> <r_i_glide_ligand_efficiency_sa>
-0.805500656286583

> <r_i_glide_ligand_efficiency_ln>
-1.63240968203095

> <r_i_glide_gscore>
-6.88693374380115

> <r_i_glide_lipo>
-4.33832231975302

> <r_i_glide_hbond>
0

> <r_i_glide_metal>
0

> <r_i_glide_rewards>
-1.20596286721433

> <r_i_glide_evdw>
-38.3530616760254

> <r_i_glide_ecoul>
-1.72624838352203

> <r_i_glide_erotb>
0.83394178449578

> <r_i_glide_esite>
0

> <r_i_glide_emodel>
-51.937493593656

> <r_i_glide_energy>
-40.0793100595474

> <r_i_glide_einternal>
6.35696506500244

> <i_i_glide_confnum>
62

> <i_i_glide_posenum>
276

> <r_i_glide_eff_state_penalty>
0

> <s_user_duplicate_titles>
CHEMBL4581_lig68

> <s_m_subgroup_title>
dock_pv

> <s_m_subgroupid>
dock_pv

> <b_m_subgroup_collapsed>
1

$$$$
CHEMBL4581_lig295
                    3D
 Schrodinger Suite 2021-1.
 59 63  0  0  1  0            999 V2000
   18.9102   15.6798  109.4911 N   0  0  0  0  0  0
   17.4128   14.1203  108.9224 C   0  0  0  0  0  0
   18.2172   15.1335  108.4429 C   0  0  0  0  0  0
   18.2749   15.6479  107.0035 C   0  0  2  0  0  0
   17.3372   14.8381  106.1549 N   0  0  0  0  0  0
   17.0207   13.4362  106.5572 C   0  0  0  0  0  0
   16.4562   13.4015  108.0006 C   0  0  0  0  0  0
   18.6593   14.9846  110.6502 C   0  0  0  0  0  0
   17.7047   13.9759  110.3239 C   0  0  0  0  0  0
   17.2649   13.1143  111.3438 C   0  0  0  0  0  0
   17.7791   13.2702  112.6346 C   0  0  0  0  0  0
   18.7192   14.2612  112.9132 C   0  0  0  0  0  0
   19.1741   15.1461  111.9377 C   0  0  0  0  0  0
   19.7281   15.6808  106.4891 C   0  0  0  0  0  0
   20.1748   16.7620  105.7213 C   0  0  0  0  0  0
   21.4664   16.7905  105.1963 C   0  0  0  0  0  0
   22.3229   15.7147  105.4056 C   0  0  0  0  0  0
   21.8900   14.6283  106.1591 C   0  0  0  0  0  0
   20.6137   14.6213  106.7185 C   0  0  0  0  0  0
   16.9580   15.3407  104.9387 C   0  0  0  0  0  0
   17.2816   16.4757  104.5758 O   0  0  0  0  0  0
   16.0918   14.5070  103.9562 C   0  0  1  0  0  0
   22.7179   13.5623  106.3481 O   0  0  0  0  0  0
   17.3128   12.3617  113.7553 C   0  0  0  0  0  0
   14.6221   14.3262  104.3852 C   0  0  0  0  0  0
   14.0202   13.3004  103.4027 C   0  0  0  0  0  0
   15.6318   14.0259  101.5804 N   0  0  1  0  0  0
   16.1569   15.0417  102.5023 C   0  0  0  0  0  0
   14.2355   13.6765  101.9122 C   0  0  0  0  0  0
   15.6993   14.5108  100.2035 C   0  0  0  0  0  0
   19.5282   16.4681  109.3700 H   0  0  0  0  0  0
   17.9215   16.6807  107.0040 H   0  0  0  0  0  0
   16.2909   12.9384  105.9247 H   0  0  0  0  0  0
   17.9180   12.8340  106.5142 H   0  0  0  0  0  0
   15.4586   13.8410  108.0370 H   0  0  0  0  0  0
   16.3451   12.3637  108.3160 H   0  0  0  0  0  0
   16.5410   12.3413  111.1284 H   0  0  0  0  0  0
   19.1113   14.3513  113.9151 H   0  0  0  0  0  0
   19.8992   15.9128  112.1679 H   0  0  0  0  0  0
   19.5182   17.5882  105.5116 H   0  0  0  0  0  0
   21.7908   17.6294  104.5994 H   0  0  0  0  0  0
   23.3135   15.7230  104.9786 H   0  0  0  0  0  0
   20.3051   13.7734  107.3087 H   0  0  0  0  0  0
   16.6270   13.5555  103.9502 H   0  0  0  0  0  0
   23.5106   13.6199  105.8124 H   0  0  0  0  0  0
   16.7213   11.5218  113.3874 H   0  0  0  0  0  0
   18.1768   11.9623  114.2870 H   0  0  0  0  0  0
   16.7204   12.9217  114.4791 H   0  0  0  0  0  0
   14.0587   15.2561  104.2919 H   0  0  0  0  0  0
   14.5045   13.9041  105.3830 H   0  0  0  0  0  0
   12.9505   13.2054  103.5915 H   0  0  0  0  0  0
   14.4209   12.3029  103.5867 H   0  0  0  0  0  0
   17.1753   15.3274  102.2341 H   0  0  0  0  0  0
   15.5480   15.9425  102.3955 H   0  0  0  0  0  0
   13.5849   14.5180  101.6669 H   0  0  0  0  0  0
   13.9180   12.8534  101.2699 H   0  0  0  0  0  0
   15.3493   13.7450   99.5103 H   0  0  0  0  0  0
   16.7228   14.7618   99.9242 H   0  0  0  0  0  0
   15.0869   15.4035  100.0595 H   0  0  0  0  0  0
  1  8  1  0  0  0
  1  3  1  0  0  0
  1 31  1  0  0  0
  2  9  1  0  0  0
  2  3  2  0  0  0
  2  7  1  0  0  0
  3  4  1  0  0  0
  4  5  1  0  0  0
  4 14  1  0  0  0
  4 32  1  0  0  0
  5  6  1  0  0  0
  5 20  1  0  0  0
  6  7  1  0  0  0
  6 33  1  0  0  0
  6 34  1  0  0  0
  7 35  1  0  0  0
  7 36  1  0  0  0
  8  9  2  0  0  0
  8 13  1  0  0  0
  9 10  1  0  0  0
 10 11  2  0  0  0
 10 37  1  0  0  0
 11 24  1  0  0  0
 11 12  1  0  0  0
 12 13  2  0  0  0
 12 38  1  0  0  0
 13 39  1  0  0  0
 14 15  2  0  0  0
 14 19  1  0  0  0
 15 16  1  0  0  0
 15 40  1  0  0  0
 16 17  2  0  0  0
 16 41  1  0  0  0
 17 18  1  0  0  0
 17 42  1  0  0  0
 18 19  2  0  0  0
 18 23  1  0  0  0
 19 43  1  0  0  0
 20 21  2  0  0  0
 20 22  1  0  0  0
 22 25  1  0  0  0
 22 28  1  0  0  0
 22 44  1  0  0  0
 23 45  1  0  0  0
 24 46  1  0  0  0
 24 47  1  0  0  0
 24 48  1  0  0  0
 25 26  1  0  0  0
 25 49  1  0  0  0
 25 50  1  0  0  0
 26 29  1  0  0  0
 26 51  1  0  0  0
 26 52  1  0  0  0
 27 29  1  0  0  0
 27 28  1  0  0  0
 27 30  1  0  0  0
 28 53  1  0  0  0
 28 54  1  0  0  0
 29 55  1  0  0  0
 29 56  1  0  0  0
 30 57  1  0  0  0
 30 58  1  0  0  0
 30 59  1  0  0  0
M  END
> <s_m_entry_id>
542

> <s_m_entry_name>
dock_pv.541

> <s_m_Source_Path>
/home/csk/Desktop/cluster/DUD-E-result/kif11

> <s_m_Source_File>
dock_pv.maegz

> <i_m_Source_File_Index>
541

> <chembl_id>
CHEMBL594459

> <chembl_pref_name>
None

> <i_lp_mmshare_version>
53161

> <i_f3d_flags>
0

> <r_lp_tautomer_probability>
0.999999999997365

> <s_lp_Force_Field>
OPLS_2005

> <r_lp_Energy>
38.107642

> <b_lp_Chiralities_Consistent>
1

> <s_lp_Variant>
CHEMBL4581_lig295-3

> <s_i_glide_gridfile>
glide-grid_3cjo

> <i_i_glide_lignum>
428

> <i_i_glide_rotatable_bonds>
4

> <r_i_docking_score>
-6.87669970272547

> <r_i_glide_ligand_efficiency>
-0.229223323424182

> <r_i_glide_ligand_efficiency_sa>
-0.712250160858893

> <r_i_glide_ligand_efficiency_ln>
-1.56246110010372

> <r_i_glide_gscore>
-6.87669970272547

> <r_i_glide_lipo>
-3.94240236830609

> <r_i_glide_hbond>
-0.00695361867229753

> <r_i_glide_metal>
0

> <r_i_glide_rewards>
-0.744210312124046

> <r_i_glide_evdw>
-43.5127716064453

> <r_i_glide_ecoul>
-2.17416954040527

> <r_i_glide_erotb>
0.361752902367206

> <r_i_glide_esite>
-0.0431222946071899

> <r_i_glide_emodel>
-62.2193695401938

> <r_i_glide_energy>
-45.6869411468506

> <r_i_glide_einternal>
4.13134479522705

> <i_i_glide_confnum>
35

> <i_i_glide_posenum>
289

> <r_i_glide_eff_state_penalty>
0

> <s_user_duplicate_titles>
CHEMBL4581_lig295,591143

> <s_m_subgroup_title>
dock_pv

> <s_m_subgroupid>
dock_pv

> <b_m_subgroup_collapsed>
1

$$$$
CHEMBL4581_lig429
                    3D
 Schrodinger Suite 2021-1.
 33 35  0  0  1  0            999 V2000
   16.7187   11.9485  113.4493 O   0  0  0  0  0  0
   17.5199   12.7732  112.7138 C   0  0  0  0  0  0
   17.4115   12.8014  111.3268 C   0  0  0  0  0  0
   18.4229   13.6122  113.3581 C   0  0  0  0  0  0
   19.1847   14.5137  112.6194 C   0  0  0  0  0  0
   19.0339   14.5834  111.2335 C   0  0  0  0  0  0
   18.1262   13.7429  110.5735 C   0  0  0  0  0  0
   17.9570   13.7853  109.0465 C   0  0  1  0  0  0
   16.8006   14.7212  108.5458 C   0  0  0  0  0  0
   15.4050   14.4449  108.9574 C   0  0  0  0  0  0
   15.1161   13.5623  109.7555 O   0  0  0  0  0  0
   14.3085   15.4167  108.4953 C   0  0  0  0  0  0
   14.6826   16.1600  107.2061 C   0  0  0  0  0  0
   16.0554   16.8390  107.3401 C   0  0  0  0  0  0
   17.1037   15.8447  107.8359 C   0  0  0  0  0  0
   18.3919   16.1575  107.5425 N   0  0  0  0  0  0
   19.4164   15.2661  107.5587 C   0  0  0  0  0  0
   20.7175   15.4291  106.5588 S   0  0  0  0  0  0
   19.2066   14.1525  108.3201 N   0  0  0  0  0  0
   16.0586   11.4808  112.9256 H   0  0  0  0  0  0
   16.7396   12.1096  110.8389 H   0  0  0  0  0  0
   18.5240   13.5628  114.4319 H   0  0  0  0  0  0
   19.8898   15.1597  113.1188 H   0  0  0  0  0  0
   19.6169   15.3041  110.6786 H   0  0  0  0  0  0
   17.7234   12.7583  108.7588 H   0  0  0  0  0  0
   14.2063   16.1521  109.2943 H   0  0  0  0  0  0
   13.3580   14.8882  108.4174 H   0  0  0  0  0  0
   13.9175   16.8985  106.9623 H   0  0  0  0  0  0
   14.6978   15.4538  106.3738 H   0  0  0  0  0  0
   16.0475   17.7504  107.9410 H   0  0  0  0  0  0
   16.3206   17.1633  106.3342 H   0  0  0  0  0  0
   18.6231   16.9969  107.0318 H   0  0  0  0  0  0
   19.9740   13.4967  108.3086 H   0  0  0  0  0  0
  1  2  1  0  0  0
  1 20  1  0  0  0
  2  3  1  0  0  0
  2  4  2  0  0  0
  3  7  2  0  0  0
  3 21  1  0  0  0
  4  5  1  0  0  0
  4 22  1  0  0  0
  5  6  2  0  0  0
  5 23  1  0  0  0
  6  7  1  0  0  0
  6 24  1  0  0  0
  7  8  1  0  0  0
  8  9  1  0  0  0
  8 19  1  0  0  0
  8 25  1  0  0  0
  9 10  1  0  0  0
  9 15  2  0  0  0
 10 11  2  0  0  0
 10 12  1  0  0  0
 12 13  1  0  0  0
 12 26  1  0  0  0
 12 27  1  0  0  0
 13 14  1  0  0  0
 13 28  1  0  0  0
 13 29  1  0  0  0
 14 15  1  0  0  0
 14 30  1  0  0  0
 14 31  1  0  0  0
 15 16  1  0  0  0
 16 17  1  0  0  0
 16 32  1  0  0  0
 17 18  2  0  0  0
 17 19  1  0  0  0
 19 33  1  0  0  0
M  END
> <s_m_entry_id>
543

> <s_m_entry_name>
dock_pv.542

> <s_m_Source_Path>
/home/csk/Desktop/cluster/DUD-E-result/kif11

> <s_m_Source_File>
dock_pv.maegz

> <i_m_Source_File_Index>
542

> <chembl_id>
CHEMBL1213954

> <chembl_pref_name>
(S)-ENASTRON

> <i_lp_mmshare_version>
53161

> <i_f3d_flags>
0

> <r_lp_tautomer_probability>
0.999999999996208

> <s_lp_Force_Field>
OPLS_2005

> <r_lp_Energy>
30.786016

> <b_lp_Chiralities_Consistent>
1

> <s_lp_Variant>
CHEMBL4581_lig429-1

> <s_i_glide_gridfile>
glide-grid_3cjo

> <i_i_glide_lignum>
634

> <i_i_glide_rotatable_bonds>
2

> <r_i_docking_score>
-6.87457171696393

> <r_i_glide_ligand_efficiency>
-0.361819564050733

> <r_i_glide_ligand_efficiency_sa>
-0.965479920305233

> <r_i_glide_ligand_efficiency_ln>
-1.74285158251243

> <r_i_glide_gscore>
-6.87457171696393

> <r_i_glide_lipo>
-2.18800703114336

> <r_i_glide_hbond>
-0.300615142501652

> <r_i_glide_metal>
0

> <r_i_glide_rewards>
-2.53711142282011

> <r_i_glide_evdw>
-34.9159049987793

> <r_i_glide_ecoul>
-2.27740883827209

> <r_i_glide_erotb>
0.238568455180965

> <r_i_glide_esite>
0

> <r_i_glide_emodel>
-51.8728044114866

> <r_i_glide_energy>
-37.1933138370514

> <r_i_glide_einternal>
1.28826677799225

> <i_i_glide_confnum>
2

> <i_i_glide_posenum>
385

> <r_i_glide_eff_state_penalty>
0

> <s_user_duplicate_titles>
CHEMBL4581_lig429,CHEMBL4581_lig198

> <s_m_subgroup_title>
dock_pv

> <s_m_subgroupid>
dock_pv

> <b_m_subgroup_collapsed>
1

$$$$
CHEMBL4581_lig599
                    3D
 Schrodinger Suite 2021-1.
 50 52  0  0  1  0            999 V2000
   18.8581   15.0711  107.3375 C   0  0  0  0  0  0
   17.5206   14.5987  107.9917 C   0  0  1  0  0  0
   16.7306   15.7294  108.7204 C   0  0  0  0  0  0
   17.3757   16.8880  109.1903 C   0  0  0  0  0  0
   16.6694   17.8803  109.8629 C   0  0  0  0  0  0
   15.3036   17.7288  110.0742 C   0  0  0  0  0  0
   14.6428   16.5905  109.6234 C   0  0  0  0  0  0
   15.3539   15.5934  108.9610 C   0  0  0  0  0  0
   16.5287   13.8787  106.5967 S   0  0  0  0  0  0
   15.9352   15.2548  105.5454 C   0  0  0  0  0  0
   16.7343   15.3673  104.2153 C   0  0  2  0  0  0
   17.6637   13.3806  108.9792 C   0  0  0  0  0  0
   18.1184   13.6120  110.4273 C   0  0  0  0  0  0
   19.0747   14.5749  110.7691 C   0  0  0  0  0  0
   19.4369   14.7606  112.1016 C   0  0  0  0  0  0
   18.8659   13.9631  113.0906 C   0  0  0  0  0  0
   17.9265   12.9897  112.7626 C   0  0  0  0  0  0
   17.5542   12.8159  111.4328 C   0  0  0  0  0  0
   16.6804   16.7355  103.6582 N   0  0  0  0  0  0
   16.3165   14.3620  103.1066 C   0  0  0  0  0  0
   15.9180   13.1646  103.6230 O   0  0  0  0  0  0
   16.3948   14.6161  101.9022 O   0  0  0  0  0  0
   20.0636   14.3621  107.4226 C   0  0  0  0  0  0
   19.9833   16.6439  105.8377 C   0  0  0  0  0  0
   18.8608   16.2179  106.5397 C   0  0  0  0  0  0
   21.1679   14.7110  106.6397 C   0  0  0  0  0  0
   21.1421   15.8805  105.8753 C   0  0  0  0  0  0
   22.5102   16.3976  104.9592 Cl  0  0  0  0  0  0
   22.5360   13.6560  106.6028 Cl  0  0  0  0  0  0
   18.4370   17.0320  109.0553 H   0  0  0  0  0  0
   17.1806   18.7617  110.2225 H   0  0  0  0  0  0
   14.7542   18.4997  110.5954 H   0  0  0  0  0  0
   13.5821   16.4778  109.7920 H   0  0  0  0  0  0
   14.8247   14.7098  108.6362 H   0  0  0  0  0  0
   14.8761   15.0896  105.3409 H   0  0  0  0  0  0
   15.9572   16.1839  106.1118 H   0  0  0  0  0  0
   17.7767   15.1230  104.4189 H   0  0  0  0  0  0
   16.6731   12.9276  109.0671 H   0  0  0  0  0  0
   18.2673   12.5845  108.5464 H   0  0  0  0  0  0
   19.5360   15.1910  110.0141 H   0  0  0  0  0  0
   20.1676   15.5110  112.3647 H   0  0  0  0  0  0
   19.1629   14.0901  114.1210 H   0  0  0  0  0  0
   17.4914   12.3704  113.5338 H   0  0  0  0  0  0
   16.8253   12.0562  111.1871 H   0  0  0  0  0  0
   16.7187   16.6908  102.6471 H   0  0  0  0  0  0
   15.8097   17.1936  103.8912 H   0  0  0  0  0  0
   16.0627   13.1228  104.5737 H   0  0  0  0  0  0
   20.1461   13.4878  108.0454 H   0  0  0  0  0  0
   19.9374   17.5422  105.2391 H   0  0  0  0  0  0
   17.9463   16.7620  106.4386 H   0  0  0  0  0  0
  1 23  2  0  0  0
  1  2  1  0  0  0
  1 25  1  0  0  0
  2  9  1  0  0  0
  2  3  1  0  0  0
  2 12  1  0  0  0
  3  4  2  0  0  0
  3  8  1  0  0  0
  4  5  1  0  0  0
  4 30  1  0  0  0
  5  6  2  0  0  0
  5 31  1  0  0  0
  6  7  1  0  0  0
  6 32  1  0  0  0
  7  8  2  0  0  0
  7 33  1  0  0  0
  8 34  1  0  0  0
  9 10  1  0  0  0
 10 11  1  0  0  0
 10 35  1  0  0  0
 10 36  1  0  0  0
 11 19  1  0  0  0
 11 20  1  0  0  0
 11 37  1  0  0  0
 12 13  1  0  0  0
 12 38  1  0  0  0
 12 39  1  0  0  0
 13 14  2  0  0  0
 13 18  1  0  0  0
 14 15  1  0  0  0
 14 40  1  0  0  0
 15 16  2  0  0  0
 15 41  1  0  0  0
 16 17  1  0  0  0
 16 42  1  0  0  0
 17 18  2  0  0  0
 17 43  1  0  0  0
 18 44  1  0  0  0
 19 45  1  0  0  0
 19 46  1  0  0  0
 20 21  1  0  0  0
 20 22  2  0  0  0
 21 47  1  0  0  0
 23 26  1  0  0  0
 23 48  1  0  0  0
 24 27  1  0  0  0
 24 25  2  0  0  0
 24 49  1  0  0  0
 25 50  1  0  0  0
 26 27  2  0  0  0
 26 29  1  0  0  0
 27 28  1  0  0  0
M  END
> <s_m_entry_id>
544

> <s_m_entry_name>
dock_pv.543

> <s_m_Source_Path>
/home/csk/Desktop/cluster/DUD-E-result/kif11

> <s_m_Source_File>
dock_pv.maegz

> <i_m_Source_File_Index>
543

> <chembl_id>
CHEMBL2043403

> <chembl_pref_name>
None

> <i_lp_mmshare_version>
53161

> <i_f3d_flags>
0

> <r_lp_tautomer_probability>
1

> <s_lp_Force_Field>
OPLS_2005

> <r_lp_Energy>
19.307895

> <b_lp_Chiralities_Consistent>
1

> <s_lp_Variant>
CHEMBL4581_lig599-1

> <s_i_glide_gridfile>
glide-grid_3cjo

> <i_i_glide_lignum>
922

> <i_i_glide_rotatable_bonds>
9

> <r_i_docking_score>
-6.86995713053055

> <r_i_glide_ligand_efficiency>
-0.236895073466571

> <r_i_glide_ligand_efficiency_sa>
-0.727816719316506

> <r_i_glide_ligand_efficiency_ln>
-1.57304597580966

> <r_i_glide_gscore>
-6.86995713053055

> <r_i_glide_lipo>
-4.29845104497437

> <r_i_glide_hbond>
-0.209130195171519

> <r_i_glide_metal>
0

> <r_i_glide_rewards>
-0.450030671426451

> <r_i_glide_evdw>
-44.3424453735352

> <r_i_glide_ecoul>
-3.0744526386261

> <r_i_glide_erotb>
0.803598896412173

> <r_i_glide_esite>
-0.0376539508997141

> <r_i_glide_emodel>
-60.0961914470667

> <r_i_glide_energy>
-47.4168980121613

> <r_i_glide_einternal>
12.4102478027344

> <i_i_glide_confnum>
27

> <i_i_glide_posenum>
111

> <r_i_glide_eff_state_penalty>
0

> <s_user_duplicate_titles>
CHEMBL4581_lig599

> <s_m_subgroup_title>
dock_pv

> <s_m_subgroupid>
dock_pv

> <b_m_subgroup_collapsed>
1

$$$$
CHEMBL4581_lig406
                    3D
 Schrodinger Suite 2021-1.
 47 50  0  0  1  0            999 V2000
   17.9094   12.7176  112.7538 C   0  0  0  0  0  0
   18.7401   13.7549  113.1647 C   0  0  0  0  0  0
   19.1554   14.7626  112.2947 C   0  0  0  0  0  0
   17.4650   12.6335  111.4359 C   0  0  0  0  0  0
   17.8675   13.6204  110.5229 C   0  0  0  0  0  0
   18.7060   14.6817  110.9746 C   0  0  0  0  0  0
   18.9343   15.4976  109.8858 N   0  0  0  0  0  0
   17.6325   13.8503  109.1306 C   0  0  0  0  0  0
   18.3146   14.9892  108.7707 C   0  0  0  0  0  0
   18.4040   15.5690  107.3531 C   0  0  2  0  0  0
   17.3595   14.9240  106.4653 N   0  0  0  0  0  0
   16.2668   14.0666  107.0616 C   0  0  1  0  0  0
   16.8548   13.0747  108.1035 C   0  0  0  0  0  0
   19.8604   15.4827  106.8458 C   0  0  0  0  0  0
   20.6549   14.3617  107.1267 C   0  0  0  0  0  0
   21.9181   14.2105  106.5589 C   0  0  0  0  0  0
   22.4188   15.1958  105.7108 C   0  0  0  0  0  0
   21.6508   16.3272  105.4409 C   0  0  0  0  0  0
   20.3933   16.4795  106.0212 C   0  0  0  0  0  0
   22.1070   17.2698  104.5662 O   0  0  0  0  0  0
   15.0770   14.8679  107.6786 C   0  0  0  0  0  0
   15.2004   16.2161  107.5078 O   0  0  0  0  0  0
   14.1514   14.3305  108.2487 O   0  0  0  0  0  0
   17.1811   15.3864  105.1852 C   0  0  0  0  0  0
   16.3075   14.5750  104.1999 C   0  0  0  0  0  0
   17.7826   16.3620  104.7344 O   0  0  0  0  0  0
   16.4943   14.9432  102.7110 C   0  0  0  0  0  0
   17.6134   11.9614  113.4664 H   0  0  0  0  0  0
   19.0870   13.7684  114.1825 H   0  0  0  0  0  0
   19.8039   15.5591  112.6256 H   0  0  0  0  0  0
   16.8321   11.8175  111.1205 H   0  0  0  0  0  0
   19.4982   16.3340  109.8555 H   0  0  0  0  0  0
   18.1451   16.6247  107.4376 H   0  0  0  0  0  0
   15.7386   13.4799  106.3124 H   0  0  0  0  0  0
   17.5082   12.3590  107.6035 H   0  0  0  0  0  0
   16.0678   12.4836  108.5740 H   0  0  0  0  0  0
   20.2815   13.5643  107.7551 H   0  0  0  0  0  0
   22.5017   13.3244  106.7641 H   0  0  0  0  0  0
   23.3898   15.0665  105.2549 H   0  0  0  0  0  0
   19.8179   17.3620  105.7873 H   0  0  0  0  0  0
   22.9283   17.0160  104.1405 H   0  0  0  0  0  0
   16.0127   16.4278  107.0425 H   0  0  0  0  0  0
   15.2601   14.7196  104.4678 H   0  0  0  0  0  0
   16.5384   13.5153  104.3146 H   0  0  0  0  0  0
   15.8404   14.3299  102.0891 H   0  0  0  0  0  0
   16.2360   15.9853  102.5080 H   0  0  0  0  0  0
   17.5172   14.7557  102.3807 H   0  0  0  0  0  0
  1  2  2  0  0  0
  1  4  1  0  0  0
  1 28  1  0  0  0
  2  3  1  0  0  0
  2 29  1  0  0  0
  3  6  2  0  0  0
  3 30  1  0  0  0
  4  5  2  0  0  0
  4 31  1  0  0  0
  5  8  1  0  0  0
  5  6  1  0  0  0
  6  7  1  0  0  0
  7  9  1  0  0  0
  7 32  1  0  0  0
  8  9  2  0  0  0
  8 13  1  0  0  0
  9 10  1  0  0  0
 10 14  1  0  0  0
 10 11  1  0  0  0
 10 33  1  0  0  0
 11 12  1  0  0  0
 11 24  1  0  0  0
 12 13  1  0  0  0
 12 21  1  0  0  0
 12 34  1  0  0  0
 13 35  1  0  0  0
 13 36  1  0  0  0
 14 15  2  0  0  0
 14 19  1  0  0  0
 15 16  1  0  0  0
 15 37  1  0  0  0
 16 17  2  0  0  0
 16 38  1  0  0  0
 17 18  1  0  0  0
 17 39  1  0  0  0
 18 19  2  0  0  0
 18 20  1  0  0  0
 19 40  1  0  0  0
 20 41  1  0  0  0
 21 22  1  0  0  0
 21 23  2  0  0  0
 22 42  1  0  0  0
 24 25  1  0  0  0
 24 26  2  0  0  0
 25 27  1  0  0  0
 25 43  1  0  0  0
 25 44  1  0  0  0
 27 45  1  0  0  0
 27 46  1  0  0  0
 27 47  1  0  0  0
M  END
> <s_m_entry_id>
545

> <s_m_entry_name>
dock_pv.544

> <s_m_Source_Path>
/home/csk/Desktop/cluster/DUD-E-result/kif11

> <s_m_Source_File>
dock_pv.maegz

> <i_m_Source_File_Index>
544

> <chembl_id>
CHEMBL1164860

> <chembl_pref_name>
None

> <i_lp_mmshare_version>
53161

> <i_f3d_flags>
0

> <r_lp_tautomer_probability>
0.999999999997365

> <s_lp_Force_Field>
OPLS_2005

> <r_lp_Energy>
22.50655

> <b_lp_Chiralities_Consistent>
1

> <s_lp_Variant>
CHEMBL4581_lig406-3

> <s_i_glide_gridfile>
glide-grid_3cjo

> <i_i_glide_lignum>
598

> <i_i_glide_rotatable_bonds>
6

> <r_i_docking_score>
-6.86910784154149

> <r_i_glide_ligand_efficiency>
-0.254411401538574

> <r_i_glide_ligand_efficiency_sa>
-0.763234203777222

> <r_i_glide_ligand_efficiency_ln>
-1.59901505941743

> <r_i_glide_gscore>
-6.86910784154149

> <r_i_glide_lipo>
-3.92645372055767

> <r_i_glide_hbond>
0

> <r_i_glide_metal>
0

> <r_i_glide_rewards>
-0.959844639301284

> <r_i_glide_evdw>
-43.3819236755371

> <r_i_glide_ecoul>
-1.47127020359039

> <r_i_glide_erotb>
0.434338631035058

> <r_i_glide_esite>
-0.0273613984021719

> <r_i_glide_emodel>
-63.3726404882777

> <r_i_glide_energy>
-44.8531938791275

> <r_i_glide_einternal>
1.06345367431641

> <i_i_glide_confnum>
10

> <i_i_glide_posenum>
71

> <r_i_glide_eff_state_penalty>
0

> <s_user_duplicate_titles>
CHEMBL4581_lig406

> <s_m_subgroup_title>
dock_pv

> <s_m_subgroupid>
dock_pv

> <b_m_subgroup_collapsed>
1

$$$$
CHEMBL4581_lig786
                    3D
 Schrodinger Suite 2021-1.
 51 55  0  0  1  0            999 V2000
   17.5179   13.0279  112.1096 C   0  0  0  0  0  0
   18.6582   13.8260  112.1647 C   0  0  0  0  0  0
   19.0394   14.5630  111.0449 C   0  0  0  0  0  0
   16.7291   13.0132  110.9563 C   0  0  0  0  0  0
   17.1103   13.7652  109.8428 C   0  0  0  0  0  0
   18.2937   14.4953  109.8604 C   0  0  0  0  0  0
   18.5597   15.1615  108.5081 C   0  0  0  0  0  0
   16.4913   13.9394  108.5217 C   0  0  0  0  0  0
   17.3811   14.6230  107.6941 C   0  0  0  0  0  0
   17.0889   14.7251  106.3256 C   0  0  0  0  0  0
   15.8690   14.2674  105.8280 C   0  0  0  0  0  0
   14.9275   13.7168  106.6948 C   0  0  0  0  0  0
   15.2393   13.5620  108.0438 C   0  0  0  0  0  0
   19.9279   14.7444  107.8618 C   0  0  0  0  0  0
   18.3580   16.9531  108.9214 S   0  0  0  0  0  0
   16.7621   17.5519  108.2587 C   0  0  0  0  0  0
   15.5266   17.2489  109.1355 C   0  0  1  0  0  0
   15.5751   17.8392  110.5588 C   0  0  0  0  0  0
   15.9031   19.1618  110.5822 O   0  0  0  0  0  0
   15.3240   17.1620  111.5501 O   0  0  0  0  0  0
   14.2660   17.6866  108.5070 N   0  0  0  0  0  0
   20.6470   13.6587  108.3889 C   0  0  0  0  0  0
   21.7963   13.1785  107.7834 C   0  0  0  0  0  0
   22.3180   13.7695  106.6519 C   0  0  0  0  0  0
   20.5051   15.4194  106.7167 C   0  0  0  0  0  0
   21.7391   14.9412  106.1590 C   0  0  0  0  0  0
   22.3883   15.6420  105.1179 C   0  0  0  0  0  0
   21.8038   16.7699  104.5710 C   0  0  0  0  0  0
   20.5481   17.1620  105.0022 C   0  0  0  0  0  0
   19.9180   16.5289  106.0645 C   0  0  0  0  0  0
   17.2256   12.4413  112.9686 H   0  0  0  0  0  0
   19.2498   13.8656  113.0676 H   0  0  0  0  0  0
   19.9180   15.1836  111.0950 H   0  0  0  0  0  0
   15.8404   12.4034  110.9329 H   0  0  0  0  0  0
   17.7765   15.1710  105.6276 H   0  0  0  0  0  0
   15.6459   14.3628  104.7758 H   0  0  0  0  0  0
   13.9662   13.3958  106.3213 H   0  0  0  0  0  0
   14.5048   13.1620  108.7165 H   0  0  0  0  0  0
   16.8647   18.6329  108.1590 H   0  0  0  0  0  0
   16.6171   17.1727  107.2494 H   0  0  0  0  0  0
   15.4727   16.1727  109.2809 H   0  0  0  0  0  0
   15.9184   19.4721  111.4908 H   0  0  0  0  0  0
   14.3847   18.5884  108.0669 H   0  0  0  0  0  0
   14.0022   17.0530  107.7654 H   0  0  0  0  0  0
   20.2921   13.1084  109.2462 H   0  0  0  0  0  0
   22.3180   12.3620  108.2165 H   0  0  0  0  0  0
   23.2123   13.3858  106.1873 H   0  0  0  0  0  0
   23.3316   15.2804  104.7351 H   0  0  0  0  0  0
   22.2834   17.2952  103.7590 H   0  0  0  0  0  0
   20.0448   17.9620  104.4958 H   0  0  0  0  0  0
   18.9563   16.8839  106.3747 H   0  0  0  0  0  0
  1  2  2  0  0  0
  1  4  1  0  0  0
  1 31  1  0  0  0
  2  3  1  0  0  0
  2 32  1  0  0  0
  3  6  2  0  0  0
  3 33  1  0  0  0
  4  5  2  0  0  0
  4 34  1  0  0  0
  5  8  1  0  0  0
  5  6  1  0  0  0
  6  7  1  0  0  0
  7 14  1  0  0  0
  7 15  1  0  0  0
  7  9  1  0  0  0
  8  9  2  0  0  0
  8 13  1  0  0  0
  9 10  1  0  0  0
 10 11  2  0  0  0
 10 35  1  0  0  0
 11 12  1  0  0  0
 11 36  1  0  0  0
 12 13  2  0  0  0
 12 37  1  0  0  0
 13 38  1  0  0  0
 14 22  2  0  0  0
 14 25  1  0  0  0
 15 16  1  0  0  0
 16 17  1  0  0  0
 16 39  1  0  0  0
 16 40  1  0  0  0
 17 18  1  0  0  0
 17 21  1  0  0  0
 17 41  1  0  0  0
 18 19  1  0  0  0
 18 20  2  0  0  0
 19 42  1  0  0  0
 21 43  1  0  0  0
 21 44  1  0  0  0
 22 23  1  0  0  0
 22 45  1  0  0  0
 23 24  2  0  0  0
 23 46  1  0  0  0
 24 26  1  0  0  0
 24 47  1  0  0  0
 25 26  1  0  0  0
 25 30  2  0  0  0
 26 27  2  0  0  0
 27 28  1  0  0  0
 27 48  1  0  0  0
 28 29  2  0  0  0
 28 49  1  0  0  0
 29 30  1  0  0  0
 29 50  1  0  0  0
 30 51  1  0  0  0
M  END
> <s_m_entry_id>
546

> <s_m_entry_name>
dock_pv.545

> <s_m_Source_Path>
/home/csk/Desktop/cluster/DUD-E-result/kif11

> <s_m_Source_File>
dock_pv.maegz

> <i_m_Source_File_Index>
545

> <chembl_id>
CHEMBL412312

> <chembl_pref_name>
None

> <i_lp_mmshare_version>
53161

> <i_f3d_flags>
0

> <r_lp_tautomer_probability>
1

> <s_lp_Force_Field>
OPLS_2005

> <r_lp_Energy>
42.884333

> <b_lp_Chiralities_Consistent>
1

> <s_lp_Variant>
CHEMBL4581_lig786-1

> <s_i_glide_gridfile>
glide-grid_3cjo

> <i_i_glide_lignum>
1169

> <i_i_glide_rotatable_bonds>
6

> <r_i_docking_score>
-6.86676790450491

> <r_i_glide_ligand_efficiency>
-0.228892263483497

> <r_i_glide_ligand_efficiency_sa>
-0.711221480650942

> <r_i_glide_ligand_efficiency_ln>
-1.5602044873324

> <r_i_glide_gscore>
-6.86676790450491

> <r_i_glide_lipo>
-4.81827530360139

> <r_i_glide_hbond>
0

> <r_i_glide_metal>
0

> <r_i_glide_rewards>
-0.740482778648285

> <r_i_glide_evdw>
-38.9556350708008

> <r_i_glide_ecoul>
0.385447114706039

> <r_i_glide_erotb>
0.581954864078899

> <r_i_glide_esite>
0

> <r_i_glide_emodel>
-51.0447474375132

> <r_i_glide_energy>
-38.5701879560947

> <r_i_glide_einternal>
8.12125873565674

> <i_i_glide_confnum>
102

> <i_i_glide_posenum>
323

> <r_i_glide_eff_state_penalty>
0

> <s_user_duplicate_titles>
CHEMBL4581_lig786

> <s_m_subgroup_title>
dock_pv

> <s_m_subgroupid>
dock_pv

> <b_m_subgroup_collapsed>
1

$$$$
CHEMBL4581_lig118
                    3D
 Schrodinger Suite 2021-1.
 65 68  0  0  1  0            999 V2000
   18.8198   16.4705  107.3583 N   0  0  0  0  0  0
   18.0943   15.8531  108.2288 C   0  0  0  0  0  0
   18.4988   14.6374  108.7866 N   0  0  0  0  0  0
   19.7468   14.0619  108.5958 C   0  0  0  0  0  0
   19.9596   15.8279  106.9394 N   0  0  0  0  0  0
   20.4343   14.6478  107.4621 C   0  0  0  0  0  0
   21.5026   14.2269  106.6956 C   0  0  0  0  0  0
   21.7610   15.2189  105.7584 C   0  0  0  0  0  0
   20.7813   16.1825  105.8908 C   0  0  0  0  0  0
   16.7506   16.5040  108.6900 C   0  0  2  0  0  0
   15.5666   15.9116  107.9751 N   0  0  0  0  0  0
   16.7557   18.0670  108.6586 C   0  0  0  0  0  0
   16.1057   18.7155  109.8916 C   0  0  0  0  0  0
   15.5301   15.7309  106.6104 C   0  0  0  0  0  0
   14.7859   14.5792  105.9351 C   0  0  0  0  0  0
   16.2204   16.4450  105.8790 O   0  0  0  0  0  0
   14.3985   15.7745  108.8640 C   0  0  0  0  0  0
   13.1874   16.6641  108.4874 C   0  0  0  0  0  0
   12.0014   16.5297  109.4555 C   0  0  0  0  0  0
   11.4026   15.2120  109.3587 N   0  0  0  0  0  0
   13.6405   13.9429  106.4469 C   0  0  0  0  0  0
   13.0357   12.8930  105.7596 C   0  0  0  0  0  0
   13.5607   12.4487  104.5507 C   0  0  0  0  0  0
   14.6788   13.0783  104.0130 C   0  0  0  0  0  0
   15.2817   14.1251  104.6994 C   0  0  0  0  0  0
   12.9010   11.2900  103.8259 C   0  0  0  0  0  0
   17.5634   13.8022  109.5861 C   0  0  0  0  0  0
   17.8475   13.6431  111.0785 C   0  0  0  0  0  0
   17.2544   12.5701  111.7461 C   0  0  0  0  0  0
   17.5174   12.3634  113.0946 C   0  0  0  0  0  0
   18.3975   13.2056  113.7625 C   0  0  0  0  0  0
   18.9919   14.2805  113.1082 C   0  0  0  0  0  0
   18.7053   14.5100  111.7674 C   0  0  0  0  0  0
   20.2071   13.1601  109.2939 O   0  0  0  0  0  0
   22.3187   12.7505  106.8687 Cl  0  0  0  0  0  0
   20.5016   17.5617  104.9224 Cl  0  0  0  0  0  0
   22.5395   15.1980  105.0096 H   0  0  0  0  0  0
   16.6785   16.2540  109.7492 H   0  0  0  0  0  0
   17.7712   18.4640  108.6025 H   0  0  0  0  0  0
   16.2597   18.4295  107.7588 H   0  0  0  0  0  0
   16.1074   19.8023  109.8002 H   0  0  0  0  0  0
   15.0714   18.4033  110.0239 H   0  0  0  0  0  0
   16.6480   18.4633  110.8044 H   0  0  0  0  0  0
   14.1350   14.7246  108.9704 H   0  0  0  0  0  0
   14.6700   16.0367  109.8867 H   0  0  0  0  0  0
   13.5040   17.7072  108.4831 H   0  0  0  0  0  0
   12.8463   16.4667  107.4705 H   0  0  0  0  0  0
   12.3189   16.7176  110.4824 H   0  0  0  0  0  0
   11.2391   17.2741  109.2209 H   0  0  0  0  0  0
   11.0334   15.0667  108.4289 H   0  0  0  0  0  0
   12.0951   14.4966  109.5128 H   0  0  0  0  0  0
   13.1507   14.2368  107.3517 H   0  0  0  0  0  0
   12.1494   12.4256  106.1616 H   0  0  0  0  0  0
   15.0915   12.7619  103.0682 H   0  0  0  0  0  0
   16.1608   14.5739  104.2568 H   0  0  0  0  0  0
   11.8316   11.4769  103.7141 H   0  0  0  0  0  0
   13.3187   11.1344  102.8289 H   0  0  0  0  0  0
   13.0106   10.3719  104.4056 H   0  0  0  0  0  0
   16.5294   14.1165  109.4753 H   0  0  0  0  0  0
   17.5757   12.7982  109.1534 H   0  0  0  0  0  0
   16.5866   11.8978  111.2250 H   0  0  0  0  0  0
   17.0316   11.5615  113.6242 H   0  0  0  0  0  0
   18.6112   13.0293  114.8072 H   0  0  0  0  0  0
   19.6728   14.9285  113.6387 H   0  0  0  0  0  0
   19.1748   15.3427  111.2650 H   0  0  0  0  0  0
  1  5  1  0  0  0
  1  2  2  0  0  0
  2 10  1  0  0  0
  2  3  1  0  0  0
  3  4  1  0  0  0
  3 27  1  0  0  0
  4  6  1  0  0  0
  4 34  2  0  0  0
  5  9  1  0  0  0
  5  6  1  0  0  0
  6  7  2  0  0  0
  7  8  1  0  0  0
  7 35  1  0  0  0
  8  9  2  0  0  0
  8 37  1  0  0  0
  9 36  1  0  0  0
 10 11  1  0  0  0
 10 12  1  0  0  0
 10 38  1  0  0  0
 11 14  1  0  0  0
 11 17  1  0  0  0
 12 13  1  0  0  0
 12 39  1  0  0  0
 12 40  1  0  0  0
 13 41  1  0  0  0
 13 42  1  0  0  0
 13 43  1  0  0  0
 14 15  1  0  0  0
 14 16  2  0  0  0
 15 21  2  0  0  0
 15 25  1  0  0  0
 17 18  1  0  0  0
 17 44  1  0  0  0
 17 45  1  0  0  0
 18 19  1  0  0  0
 18 46  1  0  0  0
 18 47  1  0  0  0
 19 20  1  0  0  0
 19 48  1  0  0  0
 19 49  1  0  0  0
 20 50  1  0  0  0
 20 51  1  0  0  0
 21 22  1  0  0  0
 21 52  1  0  0  0
 22 23  2  0  0  0
 22 53  1  0  0  0
 23 24  1  0  0  0
 23 26  1  0  0  0
 24 25  2  0  0  0
 24 54  1  0  0  0
 25 55  1  0  0  0
 26 56  1  0  0  0
 26 57  1  0  0  0
 26 58  1  0  0  0
 27 28  1  0  0  0
 27 59  1  0  0  0
 27 60  1  0  0  0
 28 29  2  0  0  0
 28 33  1  0  0  0
 29 30  1  0  0  0
 29 61  1  0  0  0
 30 31  2  0  0  0
 30 62  1  0  0  0
 31 32  1  0  0  0
 31 63  1  0  0  0
 32 33  2  0  0  0
 32 64  1  0  0  0
 33 65  1  0  0  0
M  END
> <s_m_entry_id>
548

> <s_m_entry_name>
dock_pv.547

> <s_m_Source_Path>
/home/csk/Desktop/cluster/DUD-E-result/kif11

> <s_m_Source_File>
dock_pv.maegz

> <i_m_Source_File_Index>
547

> <chembl_id>
CHEMBL213736

> <chembl_pref_name>
None

> <i_lp_mmshare_version>
53161

> <i_f3d_flags>
0

> <r_lp_tautomer_probability>
1

> <s_lp_Force_Field>
OPLS_2005

> <r_lp_Energy>
51.553178

> <b_lp_Chiralities_Consistent>
1

> <s_lp_Variant>
CHEMBL4581_lig118-1

> <s_i_glide_gridfile>
glide-grid_3cjo

> <i_i_glide_lignum>
203

> <i_i_glide_rotatable_bonds>
10

> <r_i_docking_score>
-6.86369226097991

> <r_i_glide_ligand_efficiency>
-0.190658118360553

> <r_i_glide_ligand_efficiency_sa>
-0.629539235485699

> <r_i_glide_ligand_efficiency_ln>
-1.49747221581064

> <r_i_glide_gscore>
-6.86369226097991

> <r_i_glide_lipo>
-4.33274357136218

> <r_i_glide_hbond>
0

> <r_i_glide_metal>
0

> <r_i_glide_rewards>
-0.483087652673804

> <r_i_glide_evdw>
-51.6762924194336

> <r_i_glide_ecoul>
-0.38894310593605

> <r_i_glide_erotb>
0.594295049918163

> <r_i_glide_esite>
0

> <r_i_glide_emodel>
-56.2703161740061

> <r_i_glide_energy>
-52.0652355253696

> <r_i_glide_einternal>
20.5043277740479

> <i_i_glide_confnum>
22

> <i_i_glide_posenum>
153

> <r_i_glide_eff_state_penalty>
0

> <s_user_duplicate_titles>
CHEMBL4581_lig118,355081

> <s_m_subgroup_title>
dock_pv

> <s_m_subgroupid>
dock_pv

> <b_m_subgroup_collapsed>
1

$$$$
CHEMBL4581_lig402
                    3D
 Schrodinger Suite 2021-1.
 46 49  0  0  1  0            999 V2000
   17.7186   13.3601  112.5388 C   0  0  0  0  0  0
   18.6901   14.3131  112.8288 C   0  0  0  0  0  0
   19.1734   15.1893  111.8598 C   0  0  0  0  0  0
   17.1994   13.2237  111.2513 C   0  0  0  0  0  0
   17.6642   14.0792  110.2402 C   0  0  0  0  0  0
   18.6492   15.0575  110.5721 C   0  0  0  0  0  0
   18.9126   15.7574  109.4185 N   0  0  0  0  0  0
   17.3753   14.2423  108.8424 C   0  0  0  0  0  0
   18.2094   15.2301  108.3680 C   0  0  0  0  0  0
   18.2905   15.7267  106.9245 C   0  0  2  0  0  0
   17.3447   14.9384  106.0718 N   0  0  0  0  0  0
   17.0074   13.5498  106.4868 C   0  0  0  0  0  0
   16.4035   13.5598  107.9130 C   0  0  0  0  0  0
   19.7428   15.7207  106.4161 C   0  0  0  0  0  0
   20.1964   16.7619  105.6009 C   0  0  0  0  0  0
   21.4988   16.7629  105.0988 C   0  0  0  0  0  0
   22.3492   15.6949  105.3739 C   0  0  0  0  0  0
   21.8998   14.6367  106.1578 C   0  0  0  0  0  0
   20.6136   14.6605  106.6951 C   0  0  0  0  0  0
   22.7158   13.5637  106.3764 O   0  0  0  0  0  0
   17.1230   12.3620  113.8083 Cl  0  0  0  0  0  0
   16.9569   15.4578  104.8659 C   0  0  0  0  0  0
   17.1954   16.6284  104.5405 O   0  0  0  0  0  0
   16.1980   14.5653  103.8281 C   0  0  1  0  0  0
   14.6891   14.5310  104.1323 C   0  0  0  0  0  0
   16.4523   15.0782  102.4637 N   0  0  0  0  0  0
   19.0738   14.3822  113.8350 H   0  0  0  0  0  0
   19.9179   15.9343  112.1004 H   0  0  0  0  0  0
   16.4497   12.4751  111.0390 H   0  0  0  0  0  0
   19.5532   16.5278  109.2983 H   0  0  0  0  0  0
   17.9604   16.7621  106.9179 H   0  0  0  0  0  0
   17.9180   12.9542  106.4799 H   0  0  0  0  0  0
   16.2881   13.0500  105.8423 H   0  0  0  0  0  0
   16.2384   12.5334  108.2381 H   0  0  0  0  0  0
   15.4272   14.0457  107.9196 H   0  0  0  0  0  0
   19.5260   17.5684  105.3472 H   0  0  0  0  0  0
   21.8360   17.5698  104.4658 H   0  0  0  0  0  0
   23.3453   15.6698  104.9593 H   0  0  0  0  0  0
   20.2781   13.8427  107.3109 H   0  0  0  0  0  0
   22.2610   12.8240  106.7825 H   0  0  0  0  0  0
   16.5997   13.5525  103.8589 H   0  0  0  0  0  0
   14.4789   14.1434  105.1297 H   0  0  0  0  0  0
   14.2414   15.5246  104.0712 H   0  0  0  0  0  0
   14.1633   13.8895  103.4247 H   0  0  0  0  0  0
   15.5853   15.1062  101.9470 H   0  0  0  0  0  0
   16.7184   16.0499  102.5744 H   0  0  0  0  0  0
  1  2  2  0  0  0
  1  4  1  0  0  0
  1 21  1  0  0  0
  2  3  1  0  0  0
  2 27  1  0  0  0
  3  6  2  0  0  0
  3 28  1  0  0  0
  4  5  2  0  0  0
  4 29  1  0  0  0
  5  8  1  0  0  0
  5  6  1  0  0  0
  6  7  1  0  0  0
  7  9  1  0  0  0
  7 30  1  0  0  0
  8  9  2  0  0  0
  8 13  1  0  0  0
  9 10  1  0  0  0
 10 11  1  0  0  0
 10 14  1  0  0  0
 10 31  1  0  0  0
 11 12  1  0  0  0
 11 22  1  0  0  0
 12 13  1  0  0  0
 12 32  1  0  0  0
 12 33  1  0  0  0
 13 34  1  0  0  0
 13 35  1  0  0  0
 14 15  2  0  0  0
 14 19  1  0  0  0
 15 16  1  0  0  0
 15 36  1  0  0  0
 16 17  2  0  0  0
 16 37  1  0  0  0
 17 18  1  0  0  0
 17 38  1  0  0  0
 18 19  2  0  0  0
 18 20  1  0  0  0
 19 39  1  0  0  0
 20 40  1  0  0  0
 22 23  2  0  0  0
 22 24  1  0  0  0
 24 25  1  0  0  0
 24 26  1  0  0  0
 24 41  1  0  0  0
 25 42  1  0  0  0
 25 43  1  0  0  0
 25 44  1  0  0  0
 26 45  1  0  0  0
 26 46  1  0  0  0
M  END
> <s_m_entry_id>
549

> <s_m_entry_name>
dock_pv.548

> <s_m_Source_Path>
/home/csk/Desktop/cluster/DUD-E-result/kif11

> <s_m_Source_File>
dock_pv.maegz

> <i_m_Source_File_Index>
548

> <chembl_id>
CHEMBL1163525

> <chembl_pref_name>
None

> <i_lp_mmshare_version>
53161

> <i_f3d_flags>
0

> <r_lp_tautomer_probability>
0.999999999997365

> <s_lp_Force_Field>
OPLS_2005

> <r_lp_Energy>
25.465533

> <b_lp_Chiralities_Consistent>
1

> <s_lp_Variant>
CHEMBL4581_lig402-3

> <s_i_glide_gridfile>
glide-grid_3cjo

> <i_i_glide_lignum>
582

> <i_i_glide_rotatable_bonds>
4

> <r_i_docking_score>
-6.86268594462053

> <r_i_glide_ligand_efficiency>
-0.263949459408482

> <r_i_glide_ligand_efficiency_sa>
-0.781949234906657

> <r_i_glide_ligand_efficiency_ln>
-1.61167927578487

> <r_i_glide_gscore>
-6.86268594462053

> <r_i_glide_lipo>
-3.90396190217688

> <r_i_glide_hbond>
0

> <r_i_glide_metal>
0

> <r_i_glide_rewards>
-0.966676187193531

> <r_i_glide_evdw>
-42.4631614685059

> <r_i_glide_ecoul>
-0.764327883720398

> <r_i_glide_erotb>
0.281983033255813

> <r_i_glide_esite>
-0.0362236325225809

> <r_i_glide_emodel>
-59.3115307004051

> <r_i_glide_energy>
-43.2274893522263

> <r_i_glide_einternal>
3.30403423309326

> <i_i_glide_confnum>
2

> <i_i_glide_posenum>
12

> <r_i_glide_eff_state_penalty>
0

> <s_user_duplicate_titles>
CHEMBL4581_lig402

> <s_m_subgroup_title>
dock_pv

> <s_m_subgroupid>
dock_pv

> <b_m_subgroup_collapsed>
1

$$$$
CHEMBL4581_lig96
                    3D
 Schrodinger Suite 2021-1.
 67 71  0  0  1  0            999 V2000
   22.2775   16.2986  105.1119 C   0  0  0  0  0  0
   22.8940   15.1164  105.5121 C   0  0  0  0  0  0
   22.1683   14.1676  106.2243 C   0  0  0  0  0  0
   20.8501   14.4150  106.5785 C   0  0  0  0  0  0
   20.1955   15.5507  106.0991 C   0  0  0  0  0  0
   20.9218   16.4906  105.3590 C   0  0  0  0  0  0
   20.3162   17.5619  104.8206 F   0  0  0  0  0  0
   22.7179   12.9888  106.5611 F   0  0  0  0  0  0
   18.7636   15.6897  106.3435 C   0  0  0  0  0  0
   17.8802   15.9618  105.4793 N   0  0  0  0  0  0
   16.6369   15.8262  106.0214 N   0  0  0  0  0  0
   16.6815   15.7012  107.5143 C   0  0  1  0  0  0
   18.1977   15.4729  107.7008 C   0  0  0  0  0  0
   16.1540   16.9729  108.2548 C   0  0  0  0  0  0
   15.1596   17.7901  107.6922 C   0  0  0  0  0  0
   14.7138   18.9359  108.3457 C   0  0  0  0  0  0
   15.2551   19.2852  109.5781 C   0  0  0  0  0  0
   16.2328   18.4904  110.1651 C   0  0  0  0  0  0
   16.6772   17.3474  109.5075 C   0  0  0  0  0  0
   15.6477   15.3407  105.2232 C   0  0  0  0  0  0
   15.8580   14.0738  104.8026 N   0  0  0  0  0  0
   14.6244   15.9718  104.9582 O   0  0  0  0  0  0
   14.8306   13.1865  104.2614 C   0  0  0  0  0  0
   15.9036   14.4322  108.0264 C   0  0  0  0  0  0
   13.8975   12.6164  105.3422 C   0  0  0  0  0  0
   16.1617   14.0652  109.5011 C   0  0  0  0  0  0
   16.5750   12.6041  109.7417 C   0  0  0  0  0  0
   16.8076   12.1815  111.2050 C   0  0  0  0  0  0
   17.9397   12.8509  111.8371 N   0  0  2  0  0  0
   18.4072   12.2064  113.0783 C   0  0  0  0  0  0
   18.7679   13.3929  114.0047 C   0  0  2  0  0  0
   17.7553   14.2454  112.2662 C   0  0  1  0  0  0
   17.5180   14.1800  113.7609 C   0  0  0  0  0  0
   19.7594   14.3621  113.3592 C   0  0  0  0  0  0
   19.1225   14.9049  112.3026 C   0  0  0  0  0  0
   22.8202   17.0462  104.5581 H   0  0  0  0  0  0
   23.9181   14.9194  105.2511 H   0  0  0  0  0  0
   20.3315   13.6667  107.1550 H   0  0  0  0  0  0
   18.6794   16.1662  108.3870 H   0  0  0  0  0  0
   18.4238   14.4589  108.0292 H   0  0  0  0  0  0
   14.7164   17.5616  106.7399 H   0  0  0  0  0  0
   13.9524   19.5561  107.8958 H   0  0  0  0  0  0
   14.9143   20.1760  110.0858 H   0  0  0  0  0  0
   16.6485   18.7635  111.1250 H   0  0  0  0  0  0
   17.4376   16.7647  110.0022 H   0  0  0  0  0  0
   16.7707   13.6650  104.9584 H   0  0  0  0  0  0
   14.2518   13.6997  103.4901 H   0  0  0  0  0  0
   15.3402   12.3623  103.7624 H   0  0  0  0  0  0
   16.1757   13.5724  107.4123 H   0  0  0  0  0  0
   14.8305   14.5598  107.8739 H   0  0  0  0  0  0
   13.1498   11.9556  104.9028 H   0  0  0  0  0  0
   14.4513   12.0297  106.0768 H   0  0  0  0  0  0
   13.3632   13.4062  105.8709 H   0  0  0  0  0  0
   15.3043   14.3384  110.1183 H   0  0  0  0  0  0
   16.9958   14.6662  109.8310 H   0  0  0  0  0  0
   17.4585   12.3617  109.1497 H   0  0  0  0  0  0
   15.7887   11.9662  109.3582 H   0  0  0  0  0  0
   16.9736   11.1067  111.2179 H   0  0  0  0  0  0
   15.9177   12.3619  111.7904 H   0  0  0  0  0  0
   19.2627   11.5620  112.9590 H   0  0  0  0  0  0
   17.6099   11.6169  113.5375 H   0  0  0  0  0  0
   18.9517   13.1383  115.0437 H   0  0  0  0  0  0
   16.9731   14.8352  111.8006 H   0  0  0  0  0  0
   16.6494   13.6162  114.0836 H   0  0  0  0  0  0
   17.4613   15.1620  114.2192 H   0  0  0  0  0  0
   20.7634   14.5436  113.7147 H   0  0  0  0  0  0
   19.4820   15.6260  111.5836 H   0  0  0  0  0  0
  1  6  1  0  0  0
  1  2  2  0  0  0
  1 36  1  0  0  0
  2  3  1  0  0  0
  2 37  1  0  0  0
  3  4  2  0  0  0
  3  8  1  0  0  0
  4  5  1  0  0  0
  4 38  1  0  0  0
  5  9  1  0  0  0
  5  6  2  0  0  0
  6  7  1  0  0  0
  9 10  2  0  0  0
  9 13  1  0  0  0
 10 11  1  0  0  0
 11 20  1  0  0  0
 11 12  1  0  0  0
 12 24  1  0  0  0
 12 13  1  0  0  0
 12 14  1  0  0  0
 13 39  1  0  0  0
 13 40  1  0  0  0
 14 19  1  0  0  0
 14 15  2  0  0  0
 15 16  1  0  0  0
 15 41  1  0  0  0
 16 17  2  0  0  0
 16 42  1  0  0  0
 17 18  1  0  0  0
 17 43  1  0  0  0
 18 19  2  0  0  0
 18 44  1  0  0  0
 19 45  1  0  0  0
 20 21  1  0  0  0
 20 22  2  0  0  0
 21 23  1  0  0  0
 21 46  1  0  0  0
 23 25  1  0  0  0
 23 47  1  0  0  0
 23 48  1  0  0  0
 24 26  1  0  0  0
 24 49  1  0  0  0
 24 50  1  0  0  0
 25 51  1  0  0  0
 25 52  1  0  0  0
 25 53  1  0  0  0
 26 27  1  0  0  0
 26 54  1  0  0  0
 26 55  1  0  0  0
 27 28  1  0  0  0
 27 56  1  0  0  0
 27 57  1  0  0  0
 28 29  1  0  0  0
 28 58  1  0  0  0
 28 59  1  0  0  0
 29 30  1  0  0  0
 29 32  1  0  0  0
 30 31  1  0  0  0
 30 60  1  0  0  0
 30 61  1  0  0  0
 31 33  1  0  0  0
 31 34  1  0  0  0
 31 62  1  0  0  0
 32 33  1  0  0  0
 32 35  1  0  0  0
 32 63  1  0  0  0
 33 64  1  0  0  0
 33 65  1  0  0  0
 34 35  2  0  0  0
 34 66  1  0  0  0
 35 67  1  0  0  0
M  END
> <s_m_entry_id>
550

> <s_m_entry_name>
dock_pv.549

> <s_m_Source_Path>
/home/csk/Desktop/cluster/DUD-E-result/kif11

> <s_m_Source_File>
dock_pv.maegz

> <i_m_Source_File_Index>
549

> <chembl_id>
CHEMBL378497

> <chembl_pref_name>
None

> <i_lp_mmshare_version>
53161

> <i_f3d_flags>
0

> <r_lp_tautomer_probability>
1

> <s_lp_Force_Field>
OPLS_2005

> <r_lp_Energy>
96.234564

> <b_lp_Chiralities_Consistent>
1

> <s_lp_Variant>
CHEMBL4581_lig96-4

> <s_i_glide_gridfile>
glide-grid_3cjo

> <i_i_glide_lignum>
161

> <i_i_glide_rotatable_bonds>
10

> <r_i_docking_score>
-6.86127670846626

> <r_i_glide_ligand_efficiency>
-0.19603647738475

> <r_i_glide_ligand_efficiency_sa>
-0.641248315981351

> <r_i_glide_ligand_efficiency_ln>
-1.50620251534038

> <r_i_glide_gscore>
-6.86127670846626

> <r_i_glide_lipo>
-4.564774765259

> <r_i_glide_hbond>
0

> <r_i_glide_metal>
0

> <r_i_glide_rewards>
-0.794119689553176

> <r_i_glide_evdw>
-38.7847442626953

> <r_i_glide_ecoul>
-1.67012214660645

> <r_i_glide_erotb>
0.707853858544484

> <r_i_glide_esite>
-0.0204805770728436

> <r_i_glide_emodel>
-51.6209434370899

> <r_i_glide_energy>
-40.4548664093018

> <r_i_glide_einternal>
12.0711631774902

> <i_i_glide_confnum>
7

> <i_i_glide_posenum>
114

> <r_i_glide_eff_state_penalty>
0

> <s_user_duplicate_titles>
CHEMBL4581_lig96

> <s_m_subgroup_title>
dock_pv

> <s_m_subgroupid>
dock_pv

> <b_m_subgroup_collapsed>
1

$$$$
CHEMBL4581_lig588
                    3D
 Schrodinger Suite 2021-1.
 50 52  0  0  1  0            999 V2000
   16.2603   14.3486  103.1659 C   0  0  0  0  0  0
   16.5298   15.4810  104.1963 C   0  0  2  0  0  0
   15.8106   15.3705  105.5699 C   0  0  0  0  0  0
   16.7174   14.3886  102.0214 O   0  0  0  0  0  0
   15.5149   13.3200  103.6675 O   0  0  0  0  0  0
   16.4127   13.9836  106.5993 S   0  0  0  0  0  0
   17.3849   14.6860  108.0152 C   0  0  0  0  0  0
   17.4373   13.4681  109.0164 C   0  0  0  0  0  0
   17.9478   13.6429  110.4563 C   0  0  0  0  0  0
   18.8297   14.6607  110.8389 C   0  0  0  0  0  0
   19.2367   14.7739  112.1669 C   0  0  0  0  0  0
   18.7745   13.8657  113.1171 C   0  0  0  0  0  0
   17.9163   12.8355  112.7451 C   0  0  0  0  0  0
   17.5086   12.7251  111.4184 C   0  0  0  0  0  0
   18.7680   15.0877  107.4126 C   0  0  0  0  0  0
   18.8638   16.1749  106.5354 C   0  0  0  0  0  0
   20.0582   16.5127  105.9072 C   0  0  0  0  0  0
   21.1176   14.6390  106.9803 C   0  0  0  0  0  0
   19.9374   14.3615  107.6612 C   0  0  0  0  0  0
   16.6165   15.8561  108.6991 C   0  0  0  0  0  0
   17.2703   17.0366  109.0982 C   0  0  0  0  0  0
   16.5738   18.0626  109.7302 C   0  0  0  0  0  0
   14.5425   16.7654  109.5856 C   0  0  0  0  0  0
   15.2425   15.7360  108.9632 C   0  0  0  0  0  0
   16.1952   16.7618  103.5429 N   0  0  0  0  0  0
   15.2109   17.9240  109.9700 C   0  0  0  0  0  0
   14.3441   19.1934  110.7526 Cl  0  0  0  0  0  0
   21.1847   15.7322  106.1291 C   0  0  0  0  0  0
   22.6742   16.1227  105.3589 Cl  0  0  0  0  0  0
   17.6039   15.4391  104.3690 H   0  0  0  0  0  0
   14.7374   15.2424  105.4208 H   0  0  0  0  0  0
   15.8963   16.3016  106.1263 H   0  0  0  0  0  0
   15.3653   13.4144  104.6120 H   0  0  0  0  0  0
   16.4143   13.1013  109.1292 H   0  0  0  0  0  0
   17.9628   12.6228  108.5696 H   0  0  0  0  0  0
   19.2075   15.3714  110.1216 H   0  0  0  0  0  0
   19.9125   15.5648  112.4583 H   0  0  0  0  0  0
   19.0917   13.9501  114.1485 H   0  0  0  0  0  0
   17.5650   12.1270  113.4811 H   0  0  0  0  0  0
   16.8397   11.9218  111.1417 H   0  0  0  0  0  0
   17.9901   16.7617  106.3308 H   0  0  0  0  0  0
   20.1048   17.3654  105.2454 H   0  0  0  0  0  0
   21.9881   14.0204  107.1439 H   0  0  0  0  0  0
   19.9413   13.5198  108.3345 H   0  0  0  0  0  0
   18.3294   17.1741  108.9403 H   0  0  0  0  0  0
   17.0909   18.9607  110.0368 H   0  0  0  0  0  0
   13.4838   16.6637  109.7737 H   0  0  0  0  0  0
   14.7070   14.8394  108.6849 H   0  0  0  0  0  0
   16.5021   17.5593  104.0815 H   0  0  0  0  0  0
   16.6255   16.8322  102.6310 H   0  0  0  0  0  0
  1  2  1  0  0  0
  1  4  2  0  0  0
  1  5  1  0  0  0
  2  3  1  0  0  0
  2 25  1  0  0  0
  2 30  1  0  0  0
  3  6  1  0  0  0
  3 31  1  0  0  0
  3 32  1  0  0  0
  5 33  1  0  0  0
  6  7  1  0  0  0
  7  8  1  0  0  0
  7 15  1  0  0  0
  7 20  1  0  0  0
  8  9  1  0  0  0
  8 34  1  0  0  0
  8 35  1  0  0  0
  9 10  1  0  0  0
  9 14  2  0  0  0
 10 11  2  0  0  0
 10 36  1  0  0  0
 11 12  1  0  0  0
 11 37  1  0  0  0
 12 13  2  0  0  0
 12 38  1  0  0  0
 13 14  1  0  0  0
 13 39  1  0  0  0
 14 40  1  0  0  0
 15 16  1  0  0  0
 15 19  2  0  0  0
 16 17  2  0  0  0
 16 41  1  0  0  0
 17 28  1  0  0  0
 17 42  1  0  0  0
 18 28  2  0  0  0
 18 19  1  0  0  0
 18 43  1  0  0  0
 19 44  1  0  0  0
 20 21  1  0  0  0
 20 24  2  0  0  0
 21 22  2  0  0  0
 21 45  1  0  0  0
 22 26  1  0  0  0
 22 46  1  0  0  0
 23 26  2  0  0  0
 23 24  1  0  0  0
 23 47  1  0  0  0
 24 48  1  0  0  0
 25 49  1  0  0  0
 25 50  1  0  0  0
 26 27  1  0  0  0
 28 29  1  0  0  0
M  END
> <s_m_entry_id>
551

> <s_m_entry_name>
dock_pv.550

> <s_m_Source_Path>
/home/csk/Desktop/cluster/DUD-E-result/kif11

> <s_m_Source_File>
dock_pv.maegz

> <i_m_Source_File_Index>
550

> <chembl_id>
CHEMBL2043414

> <chembl_pref_name>
None

> <i_lp_mmshare_version>
53161

> <i_f3d_flags>
0

> <r_lp_tautomer_probability>
1

> <s_lp_Force_Field>
OPLS_2005

> <r_lp_Energy>
23.872265

> <b_lp_Chiralities_Consistent>
1

> <s_lp_Variant>
CHEMBL4581_lig588-1

> <s_i_glide_gridfile>
glide-grid_3cjo

> <i_i_glide_lignum>
902

> <i_i_glide_rotatable_bonds>
9

> <r_i_docking_score>
-6.86069373651813

> <r_i_glide_ligand_efficiency>
-0.236575646086832

> <r_i_glide_ligand_efficiency_sa>
-0.726835337204252

> <r_i_glide_ligand_efficiency_ln>
-1.57092489348023

> <r_i_glide_gscore>
-6.86069373651813

> <r_i_glide_lipo>
-4.30253235477872

> <r_i_glide_hbond>
-0.32

> <r_i_glide_metal>
0

> <r_i_glide_rewards>
-0.434821927508857

> <r_i_glide_evdw>
-45.436595916748

> <r_i_glide_ecoul>
-2.01091432571411

> <r_i_glide_erotb>
0.803598896412173

> <r_i_glide_esite>
-0.0334714059482157

> <r_i_glide_emodel>
-60.7704770318978

> <r_i_glide_energy>
-47.4475102424622

> <r_i_glide_einternal>
9.9184684753418

> <i_i_glide_confnum>
110

> <i_i_glide_posenum>
174

> <r_i_glide_eff_state_penalty>
0

> <s_user_duplicate_titles>
CHEMBL4581_lig588

> <s_m_subgroup_title>
dock_pv

> <s_m_subgroupid>
dock_pv

> <b_m_subgroup_collapsed>
1

$$$$
CHEMBL4581_lig517
                    3D
 Schrodinger Suite 2021-1.
 66 69  0  0  1  0            999 V2000
   19.2458   16.4394  107.3585 N   0  0  0  0  0  0
   18.4152   15.8425  108.1548 C   0  0  0  0  0  0
   18.7459   14.5916  108.7013 N   0  0  0  0  0  0
   19.9642   13.9399  108.5265 C   0  0  0  0  0  0
   20.3361   15.7632  106.9156 C   0  0  0  0  0  0
   20.6930   14.5363  107.4260 C   0  0  0  0  0  0
   22.0421   13.8963  106.5595 S   0  0  0  0  0  0
   22.1789   15.2925  105.5774 N   0  0  0  0  0  0
   21.2145   16.1382  105.8872 C   0  0  0  0  0  0
   20.3194   12.9426  109.1533 O   0  0  0  0  0  0
   17.1056   16.5980  108.5717 C   0  0  2  0  0  0
   15.9568   16.4583  107.5930 N   0  0  0  0  0  0
   17.4602   18.0672  108.9856 C   0  0  0  0  0  0
   16.0453   16.4410  106.2133 C   0  0  0  0  0  0
   14.8112   16.5450  105.3530 C   0  0  0  0  0  0
   17.0992   16.3527  105.5855 O   0  0  0  0  0  0
   14.6353   16.5179  108.2759 C   0  0  0  0  0  0
   14.0953   15.1882  108.8464 C   0  0  0  0  0  0
   17.7431   13.7813  109.4329 C   0  0  0  0  0  0
   17.9281   13.6308  110.9418 C   0  0  0  0  0  0
   18.6728   14.5490  111.6931 C   0  0  0  0  0  0
   18.8053   14.3716  113.0668 C   0  0  0  0  0  0
   18.1927   13.2876  113.6890 C   0  0  0  0  0  0
   17.4712   12.3660  112.9453 C   0  0  0  0  0  0
   17.3405   12.5313  111.5694 C   0  0  0  0  0  0
   16.3232   18.9736  109.4761 C   0  0  0  0  0  0
   13.6813   14.1482  107.7963 C   0  0  0  0  0  0
   14.8393   13.5559  107.1652 N   0  0  0  0  0  0
   14.4958   15.4935  104.4859 C   0  0  0  0  0  0
   13.0000   17.8542  104.4162 C   0  0  0  0  0  0
   14.0609   17.7292  105.3103 C   0  0  0  0  0  0
   12.6887   16.7968  103.5594 C   0  0  0  0  0  0
   13.4344   15.6191  103.5974 C   0  0  0  0  0  0
   11.5381   16.9135  102.5779 C   0  0  0  0  0  0
   21.1892   17.4226  105.0897 C   0  0  0  0  0  0
   16.7656   16.1356  109.4975 H   0  0  0  0  0  0
   18.2194   18.0388  109.7700 H   0  0  0  0  0  0
   17.9402   18.5904  108.1627 H   0  0  0  0  0  0
   14.6429   17.2477  109.0844 H   0  0  0  0  0  0
   13.8660   16.8928  107.6048 H   0  0  0  0  0  0
   14.7521   14.7750  109.6113 H   0  0  0  0  0  0
   13.1786   15.4437  109.3763 H   0  0  0  0  0  0
   16.7320   14.1174  109.2323 H   0  0  0  0  0  0
   17.7611   12.7740  109.0113 H   0  0  0  0  0  0
   19.1429   15.4030  111.2249 H   0  0  0  0  0  0
   19.3608   15.0903  113.6503 H   0  0  0  0  0  0
   18.2336   13.1652  114.7602 H   0  0  0  0  0  0
   16.9589   11.5662  113.4481 H   0  0  0  0  0  0
   16.7595   11.8178  110.9981 H   0  0  0  0  0  0
   16.7163   19.9443  109.7640 H   0  0  0  0  0  0
   15.5875   19.1558  108.6904 H   0  0  0  0  0  0
   15.8180   18.5569  110.3495 H   0  0  0  0  0  0
   13.0818   13.3598  108.2528 H   0  0  0  0  0  0
   13.0519   14.6127  107.0346 H   0  0  0  0  0  0
   15.5203   14.2586  106.9046 H   0  0  0  0  0  0
   15.2999   12.8791  107.7549 H   0  0  0  0  0  0
   15.0799   14.5817  104.4859 H   0  0  0  0  0  0
   12.4216   18.7709  104.3781 H   0  0  0  0  0  0
   14.3113   18.5723  105.9433 H   0  0  0  0  0  0
   13.1952   14.8028  102.9301 H   0  0  0  0  0  0
   11.9057   16.8282  101.5540 H   0  0  0  0  0  0
   10.8333   16.0981  102.7452 H   0  0  0  0  0  0
   11.0002   17.8599  102.6766 H   0  0  0  0  0  0
   20.3248   17.4798  104.4277 H   0  0  0  0  0  0
   21.1164   18.2760  105.7619 H   0  0  0  0  0  0
   22.0783   17.5663  104.4747 H   0  0  0  0  0  0
  1  5  1  0  0  0
  1  2  2  0  0  0
  2 11  1  0  0  0
  2  3  1  0  0  0
  3 19  1  0  0  0
  3  4  1  0  0  0
  4 10  2  0  0  0
  4  6  1  0  0  0
  5  9  1  0  0  0
  5  6  2  0  0  0
  6  7  1  0  0  0
  7  8  1  0  0  0
  8  9  2  0  0  0
  9 35  1  0  0  0
 11 12  1  0  0  0
 11 13  1  0  0  0
 11 36  1  0  0  0
 12 17  1  0  0  0
 12 14  1  0  0  0
 13 26  1  0  0  0
 13 37  1  0  0  0
 13 38  1  0  0  0
 14 15  1  0  0  0
 14 16  2  0  0  0
 15 29  2  0  0  0
 15 31  1  0  0  0
 17 18  1  0  0  0
 17 39  1  0  0  0
 17 40  1  0  0  0
 18 27  1  0  0  0
 18 41  1  0  0  0
 18 42  1  0  0  0
 19 20  1  0  0  0
 19 43  1  0  0  0
 19 44  1  0  0  0
 20 21  2  0  0  0
 20 25  1  0  0  0
 21 22  1  0  0  0
 21 45  1  0  0  0
 22 23  2  0  0  0
 22 46  1  0  0  0
 23 24  1  0  0  0
 23 47  1  0  0  0
 24 25  2  0  0  0
 24 48  1  0  0  0
 25 49  1  0  0  0
 26 50  1  0  0  0
 26 51  1  0  0  0
 26 52  1  0  0  0
 27 28  1  0  0  0
 27 53  1  0  0  0
 27 54  1  0  0  0
 28 55  1  0  0  0
 28 56  1  0  0  0
 29 33  1  0  0  0
 29 57  1  0  0  0
 30 32  1  0  0  0
 30 31  2  0  0  0
 30 58  1  0  0  0
 31 59  1  0  0  0
 32 33  2  0  0  0
 32 34  1  0  0  0
 33 60  1  0  0  0
 34 61  1  0  0  0
 34 62  1  0  0  0
 34 63  1  0  0  0
 35 64  1  0  0  0
 35 65  1  0  0  0
 35 66  1  0  0  0
M  END
> <s_m_entry_id>
552

> <s_m_entry_name>
dock_pv.551

> <s_m_Source_Path>
/home/csk/Desktop/cluster/DUD-E-result/kif11

> <s_m_Source_File>
dock_pv.maegz

> <i_m_Source_File_Index>
551

> <chembl_id>
CHEMBL1829432

> <chembl_pref_name>
None

> <i_lp_mmshare_version>
53161

> <i_f3d_flags>
0

> <r_lp_tautomer_probability>
1

> <s_lp_Force_Field>
OPLS_2005

> <r_lp_Energy>
55.69783

> <b_lp_Chiralities_Consistent>
1

> <s_lp_Variant>
CHEMBL4581_lig517-1

> <s_i_glide_gridfile>
glide-grid_3cjo

> <i_i_glide_lignum>
758

> <i_i_glide_rotatable_bonds>
10

> <r_i_docking_score>
-6.85475643620211

> <r_i_glide_ligand_efficiency>
-0.195850183891489

> <r_i_glide_ligand_efficiency_sa>
-0.640638937612458

> <r_i_glide_ligand_efficiency_ln>
-1.50477117086875

> <r_i_glide_gscore>
-6.85475643620211

> <r_i_glide_lipo>
-4.35135323358202

> <r_i_glide_hbond>
0

> <r_i_glide_metal>
0

> <r_i_glide_rewards>
-0.730605804715663

> <r_i_glide_evdw>
-46.9294509887695

> <r_i_glide_ecoul>
-0.70147031545639

> <r_i_glide_erotb>
0.678895698852509

> <r_i_glide_esite>
0

> <r_i_glide_emodel>
-56.0654388512002

> <r_i_glide_energy>
-47.6309213042259

> <r_i_glide_einternal>
13.6629943847656

> <i_i_glide_confnum>
10

> <i_i_glide_posenum>
239

> <r_i_glide_eff_state_penalty>
0

> <s_user_duplicate_titles>
CHEMBL4581_lig517

> <s_m_subgroup_title>
dock_pv

> <s_m_subgroupid>
dock_pv

> <b_m_subgroup_collapsed>
1

$$$$
CHEMBL4581_lig569
                    3D
 Schrodinger Suite 2021-1.
 63 65  0  0  1  0            999 V2000
   19.0337   16.3623  107.3391 N   0  0  0  0  0  0
   18.5654   15.9846  108.4827 C   0  0  0  0  0  0
   19.2379   15.0172  109.2420 N   0  0  0  0  0  0
   20.2007   14.1389  108.7439 C   0  0  0  0  0  0
   20.1316   15.7323  106.8492 C   0  0  0  0  0  0
   20.6920   14.6162  107.4601 C   0  0  0  0  0  0
   22.0199   13.9621  106.5590 S   0  0  0  0  0  0
   21.9300   15.2949  105.4512 C   0  0  0  0  0  0
   20.8684   16.1468  105.7380 C   0  0  0  0  0  0
   20.6336   13.1639  109.3591 O   0  0  0  0  0  0
   17.2710   16.6464  109.0407 C   0  0  2  0  0  0
   16.0342   16.3321  108.2548 N   0  0  0  0  0  0
   17.4532   18.1706  109.2425 C   0  0  0  0  0  0
   14.8626   16.1530  108.9356 C   0  0  0  0  0  0
   13.5774   15.6762  108.2210 C   0  0  0  0  0  0
   14.7778   16.3550  110.1502 O   0  0  0  0  0  0
   16.0542   16.4314  106.7801 C   0  0  0  0  0  0
   16.2613   15.0939  106.0279 C   0  0  0  0  0  0
   19.1558   15.0508  110.7257 C   0  0  0  0  0  0
   18.3715   13.9567  111.4242 C   0  0  0  0  0  0
   17.4378   13.1799  110.7366 C   0  0  0  0  0  0
   16.7534   12.1813  111.4103 C   0  0  0  0  0  0
   17.0042   11.9621  112.7656 C   0  0  0  0  0  0
   17.9235   12.7415  113.4599 C   0  0  0  0  0  0
   18.6123   13.7406  112.7834 C   0  0  0  0  0  0
   18.3161   18.4935  110.4673 C   0  0  0  0  0  0
   16.0707   15.2083  104.5041 C   0  0  0  0  0  0
   17.0074   16.1427  103.9012 N   0  0  0  0  0  0
   12.3569   16.6016  108.4425 C   0  0  0  0  0  0
   12.4452   17.9819  107.7552 C   0  0  0  0  0  0
   12.2976   17.9280  106.2253 C   0  0  0  0  0  0
   22.6336   15.3674  104.6342 H   0  0  0  0  0  0
   20.6210   17.0211  105.1542 H   0  0  0  0  0  0
   17.0971   16.2419  110.0361 H   0  0  0  0  0  0
   17.8692   18.6447  108.3529 H   0  0  0  0  0  0
   16.4805   18.6407  109.3962 H   0  0  0  0  0  0
   13.3507   14.7010  108.6522 H   0  0  0  0  0  0
   13.7065   15.4770  107.1602 H   0  0  0  0  0  0
   15.1292   16.8909  106.4352 H   0  0  0  0  0  0
   16.8055   17.1511  106.4677 H   0  0  0  0  0  0
   17.2546   14.6911  106.2253 H   0  0  0  0  0  0
   15.5646   14.3445  106.4030 H   0  0  0  0  0  0
   20.1621   15.0055  111.1374 H   0  0  0  0  0  0
   18.7856   16.0048  111.0913 H   0  0  0  0  0  0
   17.2421   13.3369  109.6858 H   0  0  0  0  0  0
   16.0402   11.5785  110.8736 H   0  0  0  0  0  0
   16.4555   11.1896  113.2870 H   0  0  0  0  0  0
   18.1039   12.5667  114.5112 H   0  0  0  0  0  0
   19.3342   14.3423  113.3161 H   0  0  0  0  0  0
   18.4555   19.5608  110.5589 H   0  0  0  0  0  0
   17.8464   18.1441  111.3861 H   0  0  0  0  0  0
   19.3086   18.0521  110.3987 H   0  0  0  0  0  0
   16.2030   14.2307  104.0371 H   0  0  0  0  0  0
   15.0522   15.5291  104.2801 H   0  0  0  0  0  0
   16.7173   16.3170  102.9498 H   0  0  0  0  0  0
   16.9384   17.0284  104.3805 H   0  0  0  0  0  0
   12.2010   16.7480  109.5137 H   0  0  0  0  0  0
   11.4567   16.0906  108.0969 H   0  0  0  0  0  0
   13.3817   18.4749  108.0194 H   0  0  0  0  0  0
   11.6556   18.6213  108.1522 H   0  0  0  0  0  0
   12.3800   18.9273  105.7941 H   0  0  0  0  0  0
   11.3253   17.5256  105.9372 H   0  0  0  0  0  0
   13.0625   17.3082  105.7604 H   0  0  0  0  0  0
  1  5  1  0  0  0
  1  2  2  0  0  0
  2  3  1  0  0  0
  2 11  1  0  0  0
  3 19  1  0  0  0
  3  4  1  0  0  0
  4 10  2  0  0  0
  4  6  1  0  0  0
  5  9  1  0  0  0
  5  6  2  0  0  0
  6  7  1  0  0  0
  7  8  1  0  0  0
  8  9  2  0  0  0
  8 32  1  0  0  0
  9 33  1  0  0  0
 11 12  1  0  0  0
 11 13  1  0  0  0
 11 34  1  0  0  0
 12 17  1  0  0  0
 12 14  1  0  0  0
 13 26  1  0  0  0
 13 35  1  0  0  0
 13 36  1  0  0  0
 14 15  1  0  0  0
 14 16  2  0  0  0
 15 29  1  0  0  0
 15 37  1  0  0  0
 15 38  1  0  0  0
 17 18  1  0  0  0
 17 39  1  0  0  0
 17 40  1  0  0  0
 18 27  1  0  0  0
 18 41  1  0  0  0
 18 42  1  0  0  0
 19 20  1  0  0  0
 19 43  1  0  0  0
 19 44  1  0  0  0
 20 21  2  0  0  0
 20 25  1  0  0  0
 21 22  1  0  0  0
 21 45  1  0  0  0
 22 23  2  0  0  0
 22 46  1  0  0  0
 23 24  1  0  0  0
 23 47  1  0  0  0
 24 25  2  0  0  0
 24 48  1  0  0  0
 25 49  1  0  0  0
 26 50  1  0  0  0
 26 51  1  0  0  0
 26 52  1  0  0  0
 27 28  1  0  0  0
 27 53  1  0  0  0
 27 54  1  0  0  0
 28 55  1  0  0  0
 28 56  1  0  0  0
 29 30  1  0  0  0
 29 57  1  0  0  0
 29 58  1  0  0  0
 30 31  1  0  0  0
 30 59  1  0  0  0
 30 60  1  0  0  0
 31 61  1  0  0  0
 31 62  1  0  0  0
 31 63  1  0  0  0
M  END
> <s_m_entry_id>
553

> <s_m_entry_name>
dock_pv.552

> <s_m_Source_Path>
/home/csk/Desktop/cluster/DUD-E-result/kif11

> <s_m_Source_File>
dock_pv.maegz

> <i_m_Source_File_Index>
552

> <chembl_id>
CHEMBL1829265

> <chembl_pref_name>
None

> <i_lp_mmshare_version>
53161

> <i_f3d_flags>
0

> <r_lp_tautomer_probability>
1

> <s_lp_Force_Field>
OPLS_2005

> <r_lp_Energy>
44.957746

> <b_lp_Chiralities_Consistent>
1

> <s_lp_Variant>
CHEMBL4581_lig569-1

> <s_i_glide_gridfile>
glide-grid_3cjo

> <i_i_glide_lignum>
866

> <i_i_glide_rotatable_bonds>
12

> <r_i_docking_score>
-6.85234780706455

> <r_i_glide_ligand_efficiency>
-0.221043477647244

> <r_i_glide_ligand_efficiency_sa>
-0.694381703223528

> <r_i_glide_ligand_efficiency_ln>
-1.54541442973339

> <r_i_glide_gscore>
-6.85234780706455

> <r_i_glide_lipo>
-4.46712618458977

> <r_i_glide_hbond>
0

> <r_i_glide_metal>
0

> <r_i_glide_rewards>
-1.00002861955302

> <r_i_glide_evdw>
-39.7724075317383

> <r_i_glide_ecoul>
-2.14867401123047

> <r_i_glide_erotb>
0.925728475349726

> <r_i_glide_esite>
0

> <r_i_glide_emodel>
-39.2766695227464

> <r_i_glide_energy>
-41.9210815429688

> <r_i_glide_einternal>
10.8718862533569

> <i_i_glide_confnum>
168

> <i_i_glide_posenum>
161

> <r_i_glide_eff_state_penalty>
0

> <s_user_duplicate_titles>
CHEMBL4581_lig569

> <s_m_subgroup_title>
dock_pv

> <s_m_subgroupid>
dock_pv

> <b_m_subgroup_collapsed>
1

$$$$
CHEMBL4581_lig295
                    3D
 Schrodinger Suite 2021-1.
 59 63  0  0  1  0            999 V2000
   19.0735   15.4738  109.8069 N   0  0  0  0  0  0
   17.4085   14.1028  109.2116 C   0  0  0  0  0  0
   18.3031   15.0484  108.7542 C   0  0  0  0  0  0
   18.4060   15.5748  107.3181 C   0  0  2  0  0  0
   17.3601   14.8908  106.4845 N   0  0  0  0  0  0
   16.9614   13.5049  106.8521 C   0  0  0  0  0  0
   16.3843   13.4981  108.2839 C   0  0  0  0  0  0
   18.7673   14.7584  110.9415 C   0  0  0  0  0  0
   17.6978   13.8795  110.5966 C   0  0  0  0  0  0
   17.1717   13.0334  111.5837 C   0  0  0  0  0  0
   17.6969   13.0933  112.8750 C   0  0  0  0  0  0
   18.7657   13.9382  113.1688 C   0  0  0  0  0  0
   19.3218   14.7934  112.2212 C   0  0  0  0  0  0
   19.8476   15.4586  106.7928 C   0  0  0  0  0  0
   20.6485   14.3568  107.1080 C   0  0  0  0  0  0
   21.9185   14.2065  106.5563 C   0  0  0  0  0  0
   22.4249   15.1887  105.7087 C   0  0  0  0  0  0
   21.6474   16.3052  105.4067 C   0  0  0  0  0  0
   20.3684   16.4380  105.9429 C   0  0  0  0  0  0
   16.9894   15.4292  105.2839 C   0  0  0  0  0  0
   17.5473   16.4288  104.8320 O   0  0  0  0  0  0
   15.7276   14.9061  104.5287 C   0  0  2  0  0  0
   22.1238   17.2617  104.5593 O   0  0  0  0  0  0
   17.1054   12.2330  113.9703 C   0  0  0  0  0  0
   15.9981   13.6490  103.6749 C   0  0  0  0  0  0
   16.6521   13.9994  102.3391 C   0  0  0  0  0  0
   15.6652   16.2810  102.3903 N   0  0  1  0  0  0
   15.0362   16.0368  103.7027 C   0  0  0  0  0  0
   15.8493   15.0721  101.5770 C   0  0  0  0  0  0
   14.9494   17.3142  101.6452 C   0  0  0  0  0  0
   19.7858   16.1792  109.6976 H   0  0  0  0  0  0
   18.1726   16.6412  107.3300 H   0  0  0  0  0  0
   16.1965   13.0689  106.2167 H   0  0  0  0  0  0
   17.8401   12.8599  106.8026 H   0  0  0  0  0  0
   15.4372   14.0353  108.3267 H   0  0  0  0  0  0
   16.1677   12.4698  108.5742 H   0  0  0  0  0  0
   16.3597   12.3592  111.3492 H   0  0  0  0  0  0
   19.1832   13.9383  114.1601 H   0  0  0  0  0  0
   20.1400   15.4526  112.4742 H   0  0  0  0  0  0
   20.2761   13.5813  107.7617 H   0  0  0  0  0  0
   22.5106   13.3336  106.7878 H   0  0  0  0  0  0
   23.4118   15.0737  105.2854 H   0  0  0  0  0  0
   19.7799   17.3042  105.6830 H   0  0  0  0  0  0
   15.0572   14.6691  105.3552 H   0  0  0  0  0  0
   22.9637   17.0196  104.1656 H   0  0  0  0  0  0
   16.6857   11.3118  113.5652 H   0  0  0  0  0  0
   17.8714   11.9621  114.6965 H   0  0  0  0  0  0
   16.3181   12.7621  114.5031 H   0  0  0  0  0  0
   15.0531   13.1207  103.5366 H   0  0  0  0  0  0
   16.5606   12.8877  104.2111 H   0  0  0  0  0  0
   16.7160   13.0879  101.7561 H   0  0  0  0  0  0
   17.6777   14.3349  102.4846 H   0  0  0  0  0  0
   15.0269   16.9758  104.2582 H   0  0  0  0  0  0
   13.9967   15.7581  103.5118 H   0  0  0  0  0  0
   14.8770   14.6850  101.2645 H   0  0  0  0  0  0
   16.3838   15.3399  100.6657 H   0  0  0  0  0  0
   15.4682   17.5520  100.7163 H   0  0  0  0  0  0
   14.8873   18.2355  102.2256 H   0  0  0  0  0  0
   13.9319   17.0016  101.3965 H   0  0  0  0  0  0
  1  8  1  0  0  0
  1  3  1  0  0  0
  1 31  1  0  0  0
  2  9  1  0  0  0
  2  3  2  0  0  0
  2  7  1  0  0  0
  3  4  1  0  0  0
  4  5  1  0  0  0
  4 14  1  0  0  0
  4 32  1  0  0  0
  5  6  1  0  0  0
  5 20  1  0  0  0
  6  7  1  0  0  0
  6 33  1  0  0  0
  6 34  1  0  0  0
  7 35  1  0  0  0
  7 36  1  0  0  0
  8  9  2  0  0  0
  8 13  1  0  0  0
  9 10  1  0  0  0
 10 11  2  0  0  0
 10 37  1  0  0  0
 11 24  1  0  0  0
 11 12  1  0  0  0
 12 13  2  0  0  0
 12 38  1  0  0  0
 13 39  1  0  0  0
 14 15  2  0  0  0
 14 19  1  0  0  0
 15 16  1  0  0  0
 15 40  1  0  0  0
 16 17  2  0  0  0
 16 41  1  0  0  0
 17 18  1  0  0  0
 17 42  1  0  0  0
 18 19  2  0  0  0
 18 23  1  0  0  0
 19 43  1  0  0  0
 20 21  2  0  0  0
 20 22  1  0  0  0
 22 25  1  0  0  0
 22 28  1  0  0  0
 22 44  1  0  0  0
 23 45  1  0  0  0
 24 46  1  0  0  0
 24 47  1  0  0  0
 24 48  1  0  0  0
 25 26  1  0  0  0
 25 49  1  0  0  0
 25 50  1  0  0  0
 26 29  1  0  0  0
 26 51  1  0  0  0
 26 52  1  0  0  0
 27 29  1  0  0  0
 27 28  1  0  0  0
 27 30  1  0  0  0
 28 53  1  0  0  0
 28 54  1  0  0  0
 29 55  1  0  0  0
 29 56  1  0  0  0
 30 57  1  0  0  0
 30 58  1  0  0  0
 30 59  1  0  0  0
M  END
> <s_m_entry_id>
554

> <s_m_entry_name>
dock_pv.553

> <s_m_Source_Path>
/home/csk/Desktop/cluster/DUD-E-result/kif11

> <s_m_Source_File>
dock_pv.maegz

> <i_m_Source_File_Index>
553

> <chembl_id>
CHEMBL594459

> <chembl_pref_name>
None

> <i_lp_mmshare_version>
53161

> <i_f3d_flags>
0

> <r_lp_tautomer_probability>
0.999999999997365

> <s_lp_Force_Field>
OPLS_2005

> <r_lp_Energy>
34.973904

> <b_lp_Chiralities_Consistent>
1

> <s_lp_Variant>
CHEMBL4581_lig295-1

> <s_i_glide_gridfile>
glide-grid_3cjo

> <i_i_glide_lignum>
426

> <i_i_glide_rotatable_bonds>
4

> <r_i_docking_score>
-6.85229865971541

> <r_i_glide_ligand_efficiency>
-0.228409955323847

> <r_i_glide_ligand_efficiency_sa>
-0.70972283706109

> <r_i_glide_ligand_efficiency_ln>
-1.55691691726118

> <r_i_glide_gscore>
-6.85229865971541

> <r_i_glide_lipo>
-4.17054371784569

> <r_i_glide_hbond>
0

> <r_i_glide_metal>
0

> <r_i_glide_rewards>
-0.694906790527601

> <r_i_glide_evdw>
-43.8844833374023

> <r_i_glide_ecoul>
-0.903081595897675

> <r_i_glide_erotb>
0.361752902367206

> <r_i_glide_esite>
-0.0189146474545582

> <r_i_glide_emodel>
-61.6366653715267

> <r_i_glide_energy>
-44.7875649333

> <r_i_glide_einternal>
3.48072481155396

> <i_i_glide_confnum>
10

> <i_i_glide_posenum>
392

> <r_i_glide_eff_state_penalty>
0

> <s_user_duplicate_titles>
CHEMBL4581_lig295

> <s_m_subgroup_title>
dock_pv

> <s_m_subgroupid>
dock_pv

> <b_m_subgroup_collapsed>
1

$$$$
CHEMBL4581_lig414
                    3D
 Schrodinger Suite 2021-1.
 25 27  0  0  1  0            999 V2000
   18.7182   15.6400  106.8948 C   0  0  0  0  0  0
   17.8625   14.7620  106.2369 C   0  0  0  0  0  0
   17.1702   13.7546  106.9170 C   0  0  0  0  0  0
   18.8773   15.5775  108.2766 C   0  0  0  0  0  0
   18.2115   14.5732  108.9937 C   0  0  0  0  0  0
   17.3705   13.6639  108.2992 C   0  0  0  0  0  0
   16.8728   12.7728  109.2309 N   0  0  0  0  0  0
   18.1855   14.2260  110.3543 C   0  0  0  0  0  0
   17.3464   13.0874  110.4909 C   0  0  0  0  0  0
   17.1261   12.4805  111.7297 C   0  0  0  0  0  0
   17.7376   13.0612  112.8454 C   0  0  0  0  0  0
   18.5651   14.1785  112.7240 C   0  0  0  0  0  0
   18.8062   14.7696  111.4878 C   0  0  0  0  0  0
   19.4126   16.5535  106.1779 F   0  0  0  0  0  0
   17.4753   12.4862  114.2244 C   0  0  0  0  0  0
   17.7652   14.8233  105.1620 H   0  0  0  0  0  0
   16.5371   13.0542  106.3913 H   0  0  0  0  0  0
   19.5143   16.2855  108.7735 H   0  0  0  0  0  0
   16.2652   11.9970  109.0113 H   0  0  0  0  0  0
   16.4860   11.6142  111.8250 H   0  0  0  0  0  0
   19.0238   14.6020  113.6068 H   0  0  0  0  0  0
   19.4435   15.6376  111.4092 H   0  0  0  0  0  0
   16.7107   11.7060  114.2012 H   0  0  0  0  0  0
   18.3962   12.0813  114.6489 H   0  0  0  0  0  0
   17.1239   13.2743  114.8927 H   0  0  0  0  0  0
  1  2  1  0  0  0
  1  4  2  0  0  0
  1 14  1  0  0  0
  2  3  2  0  0  0
  2 16  1  0  0  0
  3  6  1  0  0  0
  3 17  1  0  0  0
  4  5  1  0  0  0
  4 18  1  0  0  0
  5  8  1  0  0  0
  5  6  2  0  0  0
  6  7  1  0  0  0
  7  9  1  0  0  0
  7 19  1  0  0  0
  8  9  2  0  0  0
  8 13  1  0  0  0
  9 10  1  0  0  0
 10 11  2  0  0  0
 10 20  1  0  0  0
 11 12  1  0  0  0
 11 15  1  0  0  0
 12 13  2  0  0  0
 12 21  1  0  0  0
 13 22  1  0  0  0
 15 23  1  0  0  0
 15 24  1  0  0  0
 15 25  1  0  0  0
M  END
> <s_m_entry_id>
555

> <s_m_entry_name>
dock_pv.554

> <s_m_Source_Path>
/home/csk/Desktop/cluster/DUD-E-result/kif11

> <s_m_Source_File>
dock_pv.maegz

> <i_m_Source_File_Index>
554

> <chembl_id>
CHEMBL1172721

> <chembl_pref_name>
None

> <i_lp_mmshare_version>
53161

> <i_f3d_flags>
0

> <r_lp_tautomer_probability>
1

> <s_lp_Force_Field>
OPLS_2005

> <r_lp_Energy>
11.787077

> <b_lp_Chiralities_Consistent>
1

> <s_lp_Variant>
CHEMBL4581_lig414-1

> <s_i_glide_gridfile>
glide-grid_3cjo

> <i_i_glide_lignum>
619

> <i_i_glide_rotatable_bonds>
0

> <r_i_docking_score>
-6.8483591230409

> <r_i_glide_ligand_efficiency>
-0.456557274869394

> <r_i_glide_ligand_efficiency_sa>
-1.12596706288992

> <r_i_glide_ligand_efficiency_ln>
-1.84688953806646

> <r_i_glide_gscore>
-6.8483591230409

> <r_i_glide_lipo>
-2.71372363276372

> <r_i_glide_hbond>
-0.212986974140945

> <r_i_glide_metal>
0

> <r_i_glide_rewards>
-2.35523437448127

> <r_i_glide_evdw>
-25.8062381744385

> <r_i_glide_ecoul>
-1.84068155288696

> <r_i_glide_erotb>
0

> <r_i_glide_esite>
0

> <r_i_glide_emodel>
-39.1872342998834

> <r_i_glide_energy>
-27.6469197273254

> <r_i_glide_einternal>
0

> <i_i_glide_confnum>
1

> <i_i_glide_posenum>
225

> <r_i_glide_eff_state_penalty>
0

> <s_user_duplicate_titles>
CHEMBL4581_lig414

> <s_m_subgroup_title>
dock_pv

> <s_m_subgroupid>
dock_pv

> <b_m_subgroup_collapsed>
1

$$$$
CHEMBL4581_lig462
                    3D
 Schrodinger Suite 2021-1.
 52 53  0  0  1  0            999 V2000
   18.0612   14.6128  109.0551 C   0  0  0  0  0  0
   17.1179   13.2041  108.2802 S   0  0  0  0  0  0
   17.2203   15.9603  108.9315 C   0  0  0  0  0  0
   18.2680   14.2974  110.5744 C   0  0  0  0  0  0
   19.4105   14.6450  108.2584 C   0  0  0  0  0  0
   17.4581   13.3842  111.2810 C   0  0  0  0  0  0
   17.6899   13.1014  112.6239 C   0  0  0  0  0  0
   18.7206   13.7474  113.2945 C   0  0  0  0  0  0
   19.5179   14.6730  112.6291 C   0  0  0  0  0  0
   19.2923   14.9385  111.2816 C   0  0  0  0  0  0
   20.4152   13.7005  108.5357 C   0  0  0  0  0  0
   21.5183   13.5619  107.6900 C   0  0  0  0  0  0
   21.6387   14.3703  106.5611 C   0  0  0  0  0  0
   20.7124   15.3788  106.3279 C   0  0  0  0  0  0
   19.6146   15.5196  107.1714 C   0  0  0  0  0  0
   17.1147   13.4159  106.4716 C   0  0  0  0  0  0
   15.8877   14.2070  105.9577 C   0  0  1  0  0  0
   16.1891   15.2077  104.8162 C   0  0  0  0  0  0
   17.1179   14.7620  103.9145 O   0  0  0  0  0  0
   15.6035   16.2872  104.7386 O   0  0  0  0  0  0
   14.7589   13.3495  105.5461 N   0  0  0  0  0  0
   17.9759   17.2949  109.2793 C   0  0  0  0  0  0
   15.8004   15.8980  109.5776 C   0  0  0  0  0  0
   14.8159   16.9548  109.0462 C   0  0  0  0  0  0
   17.7849   17.9049  110.6816 C   0  0  0  0  0  0
   17.0049   16.0482  107.8687 H   0  0  0  0  0  0
   16.6355   12.8681  110.8124 H   0  0  0  0  0  0
   17.0698   12.3840  113.1414 H   0  0  0  0  0  0
   18.9050   13.5257  114.3357 H   0  0  0  0  0  0
   20.3223   15.1649  113.1523 H   0  0  0  0  0  0
   19.9178   15.6594  110.7807 H   0  0  0  0  0  0
   20.3019   13.0107  109.3592 H   0  0  0  0  0  0
   22.2548   12.7980  107.8853 H   0  0  0  0  0  0
   22.4769   14.2390  105.8912 H   0  0  0  0  0  0
   20.8235   16.0284  105.4726 H   0  0  0  0  0  0
   18.8926   16.2742  106.9063 H   0  0  0  0  0  0
   18.0575   13.8474  106.1589 H   0  0  0  0  0  0
   17.1166   12.4155  106.0357 H   0  0  0  0  0  0
   15.5320   14.8375  106.7729 H   0  0  0  0  0  0
   17.5859   13.9457  104.1588 H   0  0  0  0  0  0
   14.1120   13.8141  104.9254 H   0  0  0  0  0  0
   15.0477   12.4751  105.1296 H   0  0  0  0  0  0
   19.0468   17.1808  109.1255 H   0  0  0  0  0  0
   17.6860   18.0582  108.5560 H   0  0  0  0  0  0
   15.3424   14.9245  109.4072 H   0  0  0  0  0  0
   15.8777   15.9781  110.6625 H   0  0  0  0  0  0
   13.8482   16.8632  109.5397 H   0  0  0  0  0  0
   15.1732   17.9704  109.2110 H   0  0  0  0  0  0
   14.6506   16.8347  107.9748 H   0  0  0  0  0  0
   18.4476   18.7592  110.8229 H   0  0  0  0  0  0
   16.7703   18.2650  110.8420 H   0  0  0  0  0  0
   18.0034   17.1943  111.4709 H   0  0  0  0  0  0
  1  2  1  0  0  0
  1  4  1  0  0  0
  1  5  1  0  0  0
  1  3  1  0  0  0
  2 16  1  0  0  0
  3 22  1  0  0  0
  3 23  1  0  0  0
  3 26  1  0  0  0
  4 10  1  0  0  0
  4  6  2  0  0  0
  5 15  1  0  0  0
  5 11  2  0  0  0
  6  7  1  0  0  0
  6 27  1  0  0  0
  7  8  2  0  0  0
  7 28  1  0  0  0
  8  9  1  0  0  0
  8 29  1  0  0  0
  9 10  2  0  0  0
  9 30  1  0  0  0
 10 31  1  0  0  0
 11 12  1  0  0  0
 11 32  1  0  0  0
 12 13  2  0  0  0
 12 33  1  0  0  0
 13 14  1  0  0  0
 13 34  1  0  0  0
 14 15  2  0  0  0
 14 35  1  0  0  0
 15 36  1  0  0  0
 16 17  1  0  0  0
 16 37  1  0  0  0
 16 38  1  0  0  0
 17 18  1  0  0  0
 17 21  1  0  0  0
 17 39  1  0  0  0
 18 19  1  0  0  0
 18 20  2  0  0  0
 19 40  1  0  0  0
 21 41  1  0  0  0
 21 42  1  0  0  0
 22 25  1  0  0  0
 22 43  1  0  0  0
 22 44  1  0  0  0
 23 24  1  0  0  0
 23 45  1  0  0  0
 23 46  1  0  0  0
 24 47  1  0  0  0
 24 48  1  0  0  0
 24 49  1  0  0  0
 25 50  1  0  0  0
 25 51  1  0  0  0
 25 52  1  0  0  0
M  END
> <s_m_entry_id>
556

> <s_m_entry_name>
dock_pv.555

> <s_m_Source_Path>
/home/csk/Desktop/cluster/DUD-E-result/kif11

> <s_m_Source_File>
dock_pv.maegz

> <i_m_Source_File_Index>
555

> <chembl_id>
CHEMBL1688931

> <chembl_pref_name>
None

> <i_lp_mmshare_version>
53161

> <i_f3d_flags>
0

> <r_lp_tautomer_probability>
1

> <s_lp_Force_Field>
OPLS_2005

> <r_lp_Energy>
26.663531

> <b_lp_Chiralities_Consistent>
1

> <s_lp_Variant>
CHEMBL4581_lig462-1

> <s_i_glide_gridfile>
glide-grid_3cjo

> <i_i_glide_lignum>
685

> <i_i_glide_rotatable_bonds>
10

> <r_i_docking_score>
-6.84208808145255

> <r_i_glide_ligand_efficiency>
-0.273683523258102

> <r_i_glide_ligand_efficiency_sa>
-0.800255475804643

> <r_i_glide_ligand_efficiency_ln>
-1.62177991613828

> <r_i_glide_gscore>
-6.84208808145255

> <r_i_glide_lipo>
-4.26246201267825

> <r_i_glide_hbond>
0

> <r_i_glide_metal>
0

> <r_i_glide_rewards>
-1.0298521060606

> <r_i_glide_evdw>
-38.296703338623

> <r_i_glide_ecoul>
-4.52754211425781

> <r_i_glide_erotb>
1.04851363897178

> <r_i_glide_esite>
-0.00432111761565411

> <r_i_glide_emodel>
-58.5868931421

> <r_i_glide_energy>
-42.8242454528809

> <r_i_glide_einternal>
5.74412822723389

> <i_i_glide_confnum>
150

> <i_i_glide_posenum>
98

> <r_i_glide_eff_state_penalty>
0

> <s_user_duplicate_titles>
CHEMBL4581_lig462

> <s_m_subgroup_title>
dock_pv

> <s_m_subgroupid>
dock_pv

> <b_m_subgroup_collapsed>
1

$$$$
CHEMBL4581_lig679
                    3D
 Schrodinger Suite 2021-1.
 35 37  0  0  1  0            999 V2000
   20.0592   16.7639  105.3559 N   0  0  0  0  0  0
   21.3582   16.4438  105.5095 C   0  0  0  0  0  0
   21.5440   15.0699  106.1925 C   0  0  0  0  0  0
   20.4964   14.8527  107.3273 C   0  0  0  0  0  0
   19.0758   15.0899  106.8022 C   0  0  0  0  0  0
   17.9166   14.4335  107.2635 C   0  0  0  0  0  0
   16.7074   14.5943  106.5839 C   0  0  0  0  0  0
   16.6110   15.4728  105.5071 C   0  0  0  0  0  0
   17.7248   16.2056  105.1094 C   0  0  0  0  0  0
   18.9460   16.0198  105.7588 C   0  0  0  0  0  0
   22.2769   17.1503  105.1062 O   0  0  0  0  0  0
   17.8876   13.6529  108.4294 N   0  0  0  0  0  0
   18.1887   14.0503  109.7440 C   0  0  0  0  0  0
   17.8817   13.1809  110.7956 C   0  0  0  0  0  0
   18.1111   13.5572  112.1278 C   0  0  0  0  0  0
   18.7127   14.7894  112.3949 C   0  0  0  0  0  0
   19.0064   15.6698  111.3589 C   0  0  0  0  0  0
   18.7183   15.3124  110.0448 C   0  0  0  0  0  0
   17.6836   12.6672  113.2882 C   0  0  0  0  0  0
   16.7181   11.8266  112.9328 F   0  0  0  0  0  0
   17.2414   13.3900  114.3152 F   0  0  0  0  0  0
   18.7250   11.9633  113.6997 F   0  0  0  0  0  0
   19.9185   17.6162  104.8363 H   0  0  0  0  0  0
   21.4259   14.3194  105.4110 H   0  0  0  0  0  0
   22.5681   14.9897  106.5526 H   0  0  0  0  0  0
   20.7173   15.5454  108.1381 H   0  0  0  0  0  0
   20.5937   13.8497  107.7440 H   0  0  0  0  0  0
   15.8226   14.0706  106.9169 H   0  0  0  0  0  0
   15.6659   15.6068  105.0025 H   0  0  0  0  0  0
   17.6334   16.9106  104.2966 H   0  0  0  0  0  0
   17.3391   12.8074  108.3611 H   0  0  0  0  0  0
   17.4394   12.2190  110.5767 H   0  0  0  0  0  0
   18.9159   15.0884  113.4134 H   0  0  0  0  0  0
   19.4325   16.6388  111.5759 H   0  0  0  0  0  0
   18.9017   16.0372  109.2687 H   0  0  0  0  0  0
  1  2  1  0  0  0
  1 10  1  0  0  0
  1 23  1  0  0  0
  2  3  1  0  0  0
  2 11  2  0  0  0
  3  4  1  0  0  0
  3 24  1  0  0  0
  3 25  1  0  0  0
  4  5  1  0  0  0
  4 26  1  0  0  0
  4 27  1  0  0  0
  5  6  1  0  0  0
  5 10  2  0  0  0
  6  7  2  0  0  0
  6 12  1  0  0  0
  7  8  1  0  0  0
  7 28  1  0  0  0
  8  9  2  0  0  0
  8 29  1  0  0  0
  9 10  1  0  0  0
  9 30  1  0  0  0
 12 13  1  0  0  0
 12 31  1  0  0  0
 13 14  1  0  0  0
 13 18  2  0  0  0
 14 15  2  0  0  0
 14 32  1  0  0  0
 15 16  1  0  0  0
 15 19  1  0  0  0
 16 17  2  0  0  0
 16 33  1  0  0  0
 17 18  1  0  0  0
 17 34  1  0  0  0
 18 35  1  0  0  0
 19 20  1  0  0  0
 19 21  1  0  0  0
 19 22  1  0  0  0
M  END
> <s_m_entry_id>
557

> <s_m_entry_name>
dock_pv.556

> <s_m_Source_Path>
/home/csk/Desktop/cluster/DUD-E-result/kif11

> <s_m_Source_File>
dock_pv.maegz

> <i_m_Source_File_Index>
556

> <chembl_id>
CHEMBL3288998

> <chembl_pref_name>
None

> <i_lp_mmshare_version>
53161

> <i_f3d_flags>
0

> <r_lp_tautomer_probability>
1

> <s_lp_Force_Field>
OPLS_2005

> <r_lp_Energy>
25.155996

> <b_lp_Chiralities_Consistent>
1

> <s_lp_Variant>
CHEMBL4581_lig679-1

> <s_i_glide_gridfile>
glide-grid_3cjo

> <i_i_glide_lignum>
1017

> <i_i_glide_rotatable_bonds>
3

> <r_i_docking_score>
-6.83685554862082

> <r_i_glide_ligand_efficiency>
-0.310766161300946

> <r_i_glide_ligand_efficiency_sa>
-0.870779005704842

> <r_i_glide_ligand_efficiency_ln>
-1.67117687644832

> <r_i_glide_gscore>
-6.83685554862082

> <r_i_glide_lipo>
-2.81034020073319

> <r_i_glide_hbond>
0

> <r_i_glide_metal>
0

> <r_i_glide_rewards>
-2.67142338400451

> <r_i_glide_evdw>
-35.6979026794434

> <r_i_glide_ecoul>
0.240200996398926

> <r_i_glide_erotb>
0.393773020629209

> <r_i_glide_esite>
0

> <r_i_glide_emodel>
-44.4813018488537

> <r_i_glide_energy>
-35.4577016830444

> <r_i_glide_einternal>
10.6012315750122

> <i_i_glide_confnum>
19

> <i_i_glide_posenum>
356

> <r_i_glide_eff_state_penalty>
0

> <s_user_duplicate_titles>
CHEMBL4581_lig679

> <s_m_subgroup_title>
dock_pv

> <s_m_subgroupid>
dock_pv

> <b_m_subgroup_collapsed>
1

$$$$
CHEMBL4581_lig386
                    3D
 Schrodinger Suite 2021-1.
 53 57  0  0  1  0            999 V2000
   18.1888   13.3160  112.6223 C   0  0  0  0  0  0
   18.9475   14.4706  112.8072 C   0  0  0  0  0  0
   19.1172   15.4201  111.8020 C   0  0  0  0  0  0
   17.6185   13.0297  111.3803 C   0  0  0  0  0  0
   17.7815   13.9470  110.3315 C   0  0  0  0  0  0
   18.5055   15.1539  110.5791 C   0  0  0  0  0  0
   18.4526   15.8986  109.4246 N   0  0  0  0  0  0
   17.3980   13.9713  108.9510 C   0  0  0  0  0  0
   17.7894   15.1966  108.4537 C   0  0  0  0  0  0
   17.5955   15.6666  107.0239 C   0  0  2  0  0  0
   16.7038   14.7017  106.3226 N   0  0  0  0  0  0
   17.0280   13.2781  106.5678 C   0  0  0  0  0  0
   16.7205   12.9510  108.0572 C   0  0  0  0  0  0
   18.9146   15.8955  106.2944 C   0  0  0  0  0  0
   17.9816   12.3723  113.7878 C   0  0  0  0  0  0
   20.4463   16.8796  104.9590 N   0  0  0  0  0  0
   19.1175   16.6950  105.1954 C   0  0  0  0  0  0
   21.1297   15.9092  105.6311 C   0  0  0  0  0  0
   20.2035   15.2793  106.5135 C   0  0  0  0  0  0
   20.6785   14.2321  107.3193 C   0  0  0  0  0  0
   21.9352   13.6964  107.0463 C   0  0  0  0  0  0
   22.8015   14.3341  106.1589 C   0  0  0  0  0  0
   22.4445   15.4906  105.4863 C   0  0  0  0  0  0
   15.9307   15.0352  105.2487 C   0  0  0  0  0  0
   15.4474   14.1842  104.4958 O   0  0  0  0  0  0
   15.4788   16.5088  105.0555 C   0  0  0  0  0  0
   14.3398   16.8696  106.0320 C   0  0  0  0  0  0
   15.0826   16.8334  103.5959 C   0  0  0  0  0  0
   19.4173   14.6477  113.7594 H   0  0  0  0  0  0
   19.6897   16.3205  111.9675 H   0  0  0  0  0  0
   17.0608   12.1176  111.2221 H   0  0  0  0  0  0
   18.8562   16.8080  109.2522 H   0  0  0  0  0  0
   17.0807   16.6225  107.1051 H   0  0  0  0  0  0
   16.5104   12.5833  105.9044 H   0  0  0  0  0  0
   18.0901   13.1617  106.3620 H   0  0  0  0  0  0
   17.1181   11.9624  108.2811 H   0  0  0  0  0  0
   15.6455   12.9022  108.2324 H   0  0  0  0  0  0
   17.2982   11.5622  113.5327 H   0  0  0  0  0  0
   18.9365   11.9616  114.1131 H   0  0  0  0  0  0
   17.5572   12.9113  114.6360 H   0  0  0  0  0  0
   20.7970   17.4698  104.2186 H   0  0  0  0  0  0
   18.3903   17.1621  104.5603 H   0  0  0  0  0  0
   20.0370   13.7501  108.0407 H   0  0  0  0  0  0
   22.2664   12.8138  107.5722 H   0  0  0  0  0  0
   23.7922   13.9620  105.9759 H   0  0  0  0  0  0
   23.1177   15.9625  104.7980 H   0  0  0  0  0  0
   16.3181   17.1618  105.2675 H   0  0  0  0  0  0
   14.6406   16.7295  107.0715 H   0  0  0  0  0  0
   14.0386   17.9120  105.9222 H   0  0  0  0  0  0
   13.4566   16.2521  105.8632 H   0  0  0  0  0  0
   15.8961   16.6081  102.9041 H   0  0  0  0  0  0
   14.2122   16.2583  103.2743 H   0  0  0  0  0  0
   14.8408   17.8907  103.4775 H   0  0  0  0  0  0
  1 15  1  0  0  0
  1  2  2  0  0  0
  1  4  1  0  0  0
  2  3  1  0  0  0
  2 29  1  0  0  0
  3  6  2  0  0  0
  3 30  1  0  0  0
  4  5  2  0  0  0
  4 31  1  0  0  0
  5  8  1  0  0  0
  5  6  1  0  0  0
  6  7  1  0  0  0
  7  9  1  0  0  0
  7 32  1  0  0  0
  8  9  2  0  0  0
  8 13  1  0  0  0
  9 10  1  0  0  0
 10 14  1  0  0  0
 10 11  1  0  0  0
 10 33  1  0  0  0
 11 24  1  0  0  0
 11 12  1  0  0  0
 12 13  1  0  0  0
 12 34  1  0  0  0
 12 35  1  0  0  0
 13 36  1  0  0  0
 13 37  1  0  0  0
 14 19  1  0  0  0
 14 17  2  0  0  0
 15 38  1  0  0  0
 15 39  1  0  0  0
 15 40  1  0  0  0
 16 18  1  0  0  0
 16 17  1  0  0  0
 16 41  1  0  0  0
 17 42  1  0  0  0
 18 19  2  0  0  0
 18 23  1  0  0  0
 19 20  1  0  0  0
 20 21  2  0  0  0
 20 43  1  0  0  0
 21 22  1  0  0  0
 21 44  1  0  0  0
 22 23  2  0  0  0
 22 45  1  0  0  0
 23 46  1  0  0  0
 24 25  2  0  0  0
 24 26  1  0  0  0
 26 27  1  0  0  0
 26 28  1  0  0  0
 26 47  1  0  0  0
 27 48  1  0  0  0
 27 49  1  0  0  0
 27 50  1  0  0  0
 28 51  1  0  0  0
 28 52  1  0  0  0
 28 53  1  0  0  0
M  END
> <s_m_entry_id>
558

> <s_m_entry_name>
dock_pv.557

> <s_m_Source_Path>
/home/csk/Desktop/cluster/DUD-E-result/kif11

> <s_m_Source_File>
dock_pv.maegz

> <i_m_Source_File_Index>
557

> <chembl_id>
CHEMBL1164553

> <chembl_pref_name>
None

> <i_lp_mmshare_version>
53161

> <i_f3d_flags>
0

> <r_lp_tautomer_probability>
1

> <s_lp_Force_Field>
OPLS_2005

> <r_lp_Energy>
27.041743

> <b_lp_Chiralities_Consistent>
1

> <s_lp_Variant>
CHEMBL4581_lig386-1

> <s_i_glide_gridfile>
glide-grid_3cjo

> <i_i_glide_lignum>
548

> <i_i_glide_rotatable_bonds>
3

> <r_i_docking_score>
-6.83670975259913

> <r_i_glide_ligand_efficiency>
-0.244168205449969

> <r_i_glide_ligand_efficiency_sa>
-0.741438479128505

> <r_i_glide_ligand_efficiency_ln>
-1.57811334542068

> <r_i_glide_gscore>
-6.83670975259913

> <r_i_glide_lipo>
-4.32741907836233

> <r_i_glide_hbond>
0

> <r_i_glide_metal>
0

> <r_i_glide_rewards>
-0.915212409918913

> <r_i_glide_evdw>
-36.6273574829102

> <r_i_glide_ecoul>
-0.205925449728966

> <r_i_glide_erotb>
0.279774570384859

> <r_i_glide_esite>
-0.0115961430978969

> <r_i_glide_emodel>
-47.9072667495408

> <r_i_glide_energy>
-36.8332829326391

> <r_i_glide_einternal>
1.97665309906006

> <i_i_glide_confnum>
1

> <i_i_glide_posenum>
350

> <r_i_glide_eff_state_penalty>
0

> <s_user_duplicate_titles>
CHEMBL4581_lig386,644922

> <s_m_subgroup_title>
dock_pv

> <s_m_subgroupid>
dock_pv

> <b_m_subgroup_collapsed>
1

$$$$
CHEMBL4581_lig643
                    3D
 Schrodinger Suite 2021-1.
 26 27  0  0  1  0            999 V2000
   22.0484   16.3862  105.3587 C   0  0  0  0  0  0
   20.9112   16.6123  106.1344 C   0  0  0  0  0  0
   20.4403   15.5875  106.9558 C   0  0  0  0  0  0
   21.1173   14.3627  106.9602 C   0  0  0  0  0  0
   22.2512   14.2140  106.1591 C   0  0  0  0  0  0
   22.7201   15.2065  105.3602 N   0  0  0  0  0  0
   19.3175   15.8256  107.7590 N   0  0  0  0  0  0
   18.6673   14.9318  108.6173 C   0  0  0  0  0  0
   18.9209   14.9602  109.9923 C   0  0  0  0  0  0
   18.2689   14.0661  110.8554 C   0  0  0  0  0  0
   17.3428   13.1611  110.3224 C   0  0  0  0  0  0
   17.0814   13.1402  108.9517 C   0  0  0  0  0  0
   17.7466   14.0181  108.0985 C   0  0  0  0  0  0
   18.5554   14.0584  112.3595 C   0  0  0  0  0  0
   19.6479   14.7612  112.6690 F   0  0  0  0  0  0
   18.7174   12.8099  112.8042 F   0  0  0  0  0  0
   17.5219   14.5913  113.0051 F   0  0  0  0  0  0
   22.4381   17.1579  104.7110 H   0  0  0  0  0  0
   20.4057   17.5641  106.0999 H   0  0  0  0  0  0
   20.7852   13.5527  107.5885 H   0  0  0  0  0  0
   22.7913   13.2792  106.1393 H   0  0  0  0  0  0
   18.9003   16.7400  107.6732 H   0  0  0  0  0  0
   19.6281   15.6768  110.3849 H   0  0  0  0  0  0
   16.8289   12.4603  110.9660 H   0  0  0  0  0  0
   16.3761   12.4266  108.5521 H   0  0  0  0  0  0
   17.5483   13.9890  107.0369 H   0  0  0  0  0  0
  1  2  1  0  0  0
  1  6  2  0  0  0
  1 18  1  0  0  0
  2  3  2  0  0  0
  2 19  1  0  0  0
  3  4  1  0  0  0
  3  7  1  0  0  0
  4  5  2  0  0  0
  4 20  1  0  0  0
  5  6  1  0  0  0
  5 21  1  0  0  0
  7  8  1  0  0  0
  7 22  1  0  0  0
  8  9  1  0  0  0
  8 13  2  0  0  0
  9 10  2  0  0  0
  9 23  1  0  0  0
 10 11  1  0  0  0
 10 14  1  0  0  0
 11 12  2  0  0  0
 11 24  1  0  0  0
 12 13  1  0  0  0
 12 25  1  0  0  0
 13 26  1  0  0  0
 14 15  1  0  0  0
 14 16  1  0  0  0
 14 17  1  0  0  0
M  END
> <s_m_entry_id>
559

> <s_m_entry_name>
dock_pv.558

> <s_m_Source_Path>
/home/csk/Desktop/cluster/DUD-E-result/kif11

> <s_m_Source_File>
dock_pv.maegz

> <i_m_Source_File_Index>
558

> <chembl_id>
CHEMBL3288962

> <chembl_pref_name>
None

> <i_lp_mmshare_version>
53161

> <i_f3d_flags>
0

> <r_lp_tautomer_probability>
0.999999106000799

> <s_lp_Force_Field>
OPLS_2005

> <r_lp_Energy>
12.164909

> <b_lp_Chiralities_Consistent>
1

> <s_lp_Variant>
CHEMBL4581_lig643-1

> <s_i_glide_gridfile>
glide-grid_3cjo

> <i_i_glide_lignum>
981

> <i_i_glide_rotatable_bonds>
3

> <r_i_docking_score>
-6.8227702263679

> <r_i_glide_ligand_efficiency>
-0.401339425080464

> <r_i_glide_ligand_efficiency_sa>
-1.03195667434017

> <r_i_glide_ligand_efficiency_ln>
-1.77990881643655

> <r_i_glide_gscore>
-6.8227702263679

> <r_i_glide_lipo>
-3.09962763399954

> <r_i_glide_hbond>
0

> <r_i_glide_metal>
0

> <r_i_glide_rewards>
-2.65757003561486

> <r_i_glide_evdw>
-30.1615810394287

> <r_i_glide_ecoul>
-1.10469794273376

> <r_i_glide_erotb>
0.608211186627998

> <r_i_glide_esite>
0

> <r_i_glide_emodel>
-40.6491071250958

> <r_i_glide_energy>
-31.2662789821625

> <r_i_glide_einternal>
7.87690019607544

> <i_i_glide_confnum>
5

> <i_i_glide_posenum>
345

> <r_i_glide_eff_state_penalty>
0

> <s_user_duplicate_titles>
CHEMBL4581_lig643

> <s_m_subgroup_title>
dock_pv

> <s_m_subgroupid>
dock_pv

> <b_m_subgroup_collapsed>
1

$$$$
CHEMBL4581_lig848
                    3D
 Schrodinger Suite 2021-1.
 51 53  0  0  1  0            999 V2000
   16.6067   18.7779  110.2836 C   0  0  0  0  0  0
   15.3670   19.1083  110.9590 N   0  0  0  0  0  0
   16.7088   17.2656  110.0664 C   0  0  0  0  0  0
   18.2108   16.8056  109.1600 S   0  0  0  0  0  0
   18.2287   14.9555  108.9998 C   0  0  0  0  0  0
   16.9149   14.5798  108.2214 C   0  0  0  0  0  0
   19.5304   14.6074  108.1924 C   0  0  0  0  0  0
   18.2884   14.3072  110.4308 C   0  0  0  0  0  0
   15.6906   14.4512  108.9059 C   0  0  0  0  0  0
   14.5107   14.1145  108.2504 C   0  0  0  0  0  0
   14.5133   13.9200  106.8750 C   0  0  0  0  0  0
   15.6966   14.0628  106.1451 C   0  0  0  0  0  0
   16.8892   14.3495  106.8316 C   0  0  0  0  0  0
   18.9837   14.9251  111.4865 C   0  0  0  0  0  0
   19.0020   14.3634  112.7618 C   0  0  0  0  0  0
   18.3246   13.1734  113.0051 C   0  0  0  0  0  0
   17.6552   12.5249  111.9736 C   0  0  0  0  0  0
   17.6566   13.0780  110.6966 C   0  0  0  0  0  0
   20.3857   13.5620  108.5842 C   0  0  0  0  0  0
   21.5180   13.2390  107.8400 C   0  0  0  0  0  0
   21.8290   13.9619  106.6935 C   0  0  0  0  0  0
   21.0366   15.0385  106.3131 C   0  0  0  0  0  0
   19.9076   15.3608  107.0610 C   0  0  0  0  0  0
   15.6646   13.9308  104.6427 C   0  0  0  0  0  0
   14.8881   13.1521  104.0868 O   0  0  0  0  0  0
   16.4817   14.7620  103.9742 N   0  0  0  0  0  0
   16.5745   14.8296  102.5237 C   0  0  0  0  0  0
   17.4505   19.1471  110.8692 H   0  0  0  0  0  0
   16.6331   19.2965  109.3240 H   0  0  0  0  0  0
   14.5741   18.6907  110.4935 H   0  0  0  0  0  0
   15.3819   18.7621  111.9129 H   0  0  0  0  0  0
   15.8442   16.9521  109.4851 H   0  0  0  0  0  0
   16.6841   16.7316  111.0167 H   0  0  0  0  0  0
   15.6413   14.6182  109.9713 H   0  0  0  0  0  0
   13.5902   14.0183  108.8070 H   0  0  0  0  0  0
   13.5842   13.6790  106.3768 H   0  0  0  0  0  0
   17.7946   14.3955  106.2509 H   0  0  0  0  0  0
   19.5226   15.8476  111.3283 H   0  0  0  0  0  0
   19.5397   14.8503  113.5615 H   0  0  0  0  0  0
   18.3340   12.7413  113.9958 H   0  0  0  0  0  0
   17.1440   11.5909  112.1564 H   0  0  0  0  0  0
   17.1599   12.5290  109.9093 H   0  0  0  0  0  0
   20.1693   12.9514  109.4475 H   0  0  0  0  0  0
   22.1414   12.4130  108.1391 H   0  0  0  0  0  0
   22.6961   13.6969  106.1061 H   0  0  0  0  0  0
   21.2882   15.6121  105.4332 H   0  0  0  0  0  0
   19.3024   16.1918  106.7294 H   0  0  0  0  0  0
   17.1135   15.3359  104.5107 H   0  0  0  0  0  0
   16.9826   15.7937  102.2195 H   0  0  0  0  0  0
   15.5976   14.7119  102.0509 H   0  0  0  0  0  0
   17.2339   14.0423  102.1608 H   0  0  0  0  0  0
  1  3  1  0  0  0
  1  2  1  0  0  0
  1 28  1  0  0  0
  1 29  1  0  0  0
  2 30  1  0  0  0
  2 31  1  0  0  0
  3  4  1  0  0  0
  3 32  1  0  0  0
  3 33  1  0  0  0
  4  5  1  0  0  0
  5  7  1  0  0  0
  5  8  1  0  0  0
  5  6  1  0  0  0
  6  9  2  0  0  0
  6 13  1  0  0  0
  7 19  2  0  0  0
  7 23  1  0  0  0
  8 14  2  0  0  0
  8 18  1  0  0  0
  9 10  1  0  0  0
  9 34  1  0  0  0
 10 11  2  0  0  0
 10 35  1  0  0  0
 11 12  1  0  0  0
 11 36  1  0  0  0
 12 24  1  0  0  0
 12 13  2  0  0  0
 13 37  1  0  0  0
 14 15  1  0  0  0
 14 38  1  0  0  0
 15 16  2  0  0  0
 15 39  1  0  0  0
 16 17  1  0  0  0
 16 40  1  0  0  0
 17 18  2  0  0  0
 17 41  1  0  0  0
 18 42  1  0  0  0
 19 20  1  0  0  0
 19 43  1  0  0  0
 20 21  2  0  0  0
 20 44  1  0  0  0
 21 22  1  0  0  0
 21 45  1  0  0  0
 22 23  2  0  0  0
 22 46  1  0  0  0
 23 47  1  0  0  0
 24 25  2  0  0  0
 24 26  1  0  0  0
 26 27  1  0  0  0
 26 48  1  0  0  0
 27 49  1  0  0  0
 27 50  1  0  0  0
 27 51  1  0  0  0
M  END
> <s_m_entry_id>
560

> <s_m_entry_name>
dock_pv.559

> <s_m_Source_Path>
/home/csk/Desktop/cluster/DUD-E-result/kif11

> <s_m_Source_File>
dock_pv.maegz

> <i_m_Source_File_Index>
559

> <chembl_id>
CHEMBL2024126

> <chembl_pref_name>
None

> <i_lp_mmshare_version>
53161

> <i_f3d_flags>
0

> <r_lp_tautomer_probability>
1

> <s_lp_Force_Field>
OPLS_2005

> <r_lp_Energy>
29.306133

> <b_lp_Chiralities_Consistent>
1

> <s_lp_Variant>
CHEMBL4581_lig848-1

> <s_i_glide_gridfile>
glide-grid_3cjo

> <i_i_glide_lignum>
1235

> <i_i_glide_rotatable_bonds>
8

> <r_i_docking_score>
-6.82107979455255

> <r_i_glide_ligand_efficiency>
-0.252632584983428

> <r_i_glide_ligand_efficiency_sa>
-0.757897754117648

> <r_i_glide_ligand_efficiency_ln>
-1.58783492188264

> <r_i_glide_gscore>
-6.82107979455255

> <r_i_glide_lipo>
-4.21280738155634

> <r_i_glide_hbond>
-0.32

> <r_i_glide_metal>
0

> <r_i_glide_rewards>
-0.904458809298565

> <r_i_glide_evdw>
-42.2746620178223

> <r_i_glide_ecoul>
-0.229461207985878

> <r_i_glide_erotb>
0.819327489043358

> <r_i_glide_esite>
-0.0549888106520085

> <r_i_glide_emodel>
-59.5786789201809

> <r_i_glide_energy>
-42.5041232258081

> <r_i_glide_einternal>
7.58537864685059

> <i_i_glide_confnum>
110

> <i_i_glide_posenum>
274

> <r_i_glide_eff_state_penalty>
0

> <s_user_duplicate_titles>
CHEMBL4581_lig848

> <s_m_subgroup_title>
dock_pv

> <s_m_subgroupid>
dock_pv

> <b_m_subgroup_collapsed>
1

$$$$
CHEMBL4581_lig71
                    3D
 Schrodinger Suite 2021-1.
 48 50  0  0  1  0            999 V2000
   19.1487   13.3233  109.0488 C   0  0  0  0  0  0
   17.9994   13.6228  109.9140 N   0  0  1  0  0  0
   16.8296   13.9060  109.0792 C   0  0  0  0  0  0
   17.0426   15.1823  108.2260 C   0  0  2  0  0  0
   19.4536   14.3618  107.9634 C   0  0  0  0  0  0
   18.4111   15.2020  107.5274 C   0  0  0  0  0  0
   18.6418   16.0591  106.4530 C   0  0  0  0  0  0
   19.8786   16.1229  105.8269 C   0  0  0  0  0  0
   20.9191   15.2935  106.2414 C   0  0  0  0  0  0
   20.7054   14.3988  107.3094 C   0  0  0  0  0  0
   21.8078   13.4301  107.7524 C   0  0  0  0  0  0
   22.2420   15.3708  105.4851 C   0  0  0  0  0  0
   16.7520   16.4479  109.0432 C   0  0  0  0  0  0
   17.7547   17.0665  109.7995 C   0  0  0  0  0  0
   17.4617   18.1968  110.5573 C   0  0  0  0  0  0
   16.1631   18.7022  110.5618 C   0  0  0  0  0  0
   15.1617   18.1018  109.8051 C   0  0  0  0  0  0
   15.4571   16.9766  109.0446 C   0  0  0  0  0  0
   17.7287   12.4581  110.7626 C   0  0  0  0  0  0
   17.1288   12.7907  112.1372 C   0  0  0  0  0  0
   18.1752   12.7355  113.2673 C   0  0  0  0  0  0
   17.5173   12.7631  114.5587 N   0  0  0  0  0  0
   19.0015   12.3627  108.5591 H   0  0  0  0  0  0
   20.0125   13.2177  109.7066 H   0  0  0  0  0  0
   15.9497   14.0415  109.7124 H   0  0  0  0  0  0
   16.6044   13.0470  108.4422 H   0  0  0  0  0  0
   16.2958   15.1635  107.4308 H   0  0  0  0  0  0
   17.8423   16.6977  106.1056 H   0  0  0  0  0  0
   20.0190   16.8108  105.0055 H   0  0  0  0  0  0
   22.7260   13.5539  107.1959 H   0  0  0  0  0  0
   22.0382   13.5623  108.8094 H   0  0  0  0  0  0
   21.5180   12.3885  107.6215 H   0  0  0  0  0  0
   22.4794   14.4030  105.0430 H   0  0  0  0  0  0
   22.2177   16.1038  104.6775 H   0  0  0  0  0  0
   23.0537   15.6418  106.1594 H   0  0  0  0  0  0
   18.7562   16.6614  109.8156 H   0  0  0  0  0  0
   18.2317   18.6723  111.1501 H   0  0  0  0  0  0
   15.9249   19.5617  111.1681 H   0  0  0  0  0  0
   14.1592   18.5064  109.8162 H   0  0  0  0  0  0
   14.6728   16.5092  108.4673 H   0  0  0  0  0  0
   17.1125   11.7212  110.2440 H   0  0  0  0  0  0
   18.6696   11.9622  110.9483 H   0  0  0  0  0  0
   16.7181   13.7994  112.1277 H   0  0  0  0  0  0
   16.3183   12.0885  112.3364 H   0  0  0  0  0  0
   18.7514   11.8112  113.2086 H   0  0  0  0  0  0
   18.8794   13.5655  113.1875 H   0  0  0  0  0  0
   16.8689   11.9918  114.6302 H   0  0  0  0  0  0
   18.1969   12.6206  115.2993 H   0  0  0  0  0  0
  1  5  1  0  0  0
  1  2  1  0  0  0
  1 23  1  0  0  0
  1 24  1  0  0  0
  2  3  1  0  0  0
  2 19  1  0  0  0
  3  4  1  0  0  0
  3 25  1  0  0  0
  3 26  1  0  0  0
  4  6  1  0  0  0
  4 13  1  0  0  0
  4 27  1  0  0  0
  5  6  2  0  0  0
  5 10  1  0  0  0
  6  7  1  0  0  0
  7  8  2  0  0  0
  7 28  1  0  0  0
  8  9  1  0  0  0
  8 29  1  0  0  0
  9 12  1  0  0  0
  9 10  2  0  0  0
 10 11  1  0  0  0
 11 30  1  0  0  0
 11 31  1  0  0  0
 11 32  1  0  0  0
 12 33  1  0  0  0
 12 34  1  0  0  0
 12 35  1  0  0  0
 13 14  2  0  0  0
 13 18  1  0  0  0
 14 15  1  0  0  0
 14 36  1  0  0  0
 15 16  2  0  0  0
 15 37  1  0  0  0
 16 17  1  0  0  0
 16 38  1  0  0  0
 17 18  2  0  0  0
 17 39  1  0  0  0
 18 40  1  0  0  0
 19 20  1  0  0  0
 19 41  1  0  0  0
 19 42  1  0  0  0
 20 21  1  0  0  0
 20 43  1  0  0  0
 20 44  1  0  0  0
 21 22  1  0  0  0
 21 45  1  0  0  0
 21 46  1  0  0  0
 22 47  1  0  0  0
 22 48  1  0  0  0
M  END
> <s_m_entry_id>
561

> <s_m_entry_name>
dock_pv.560

> <s_m_Source_Path>
/home/csk/Desktop/cluster/DUD-E-result/kif11

> <s_m_Source_File>
dock_pv.maegz

> <i_m_Source_File_Index>
560

> <chembl_id>
CHEMBL208309

> <chembl_pref_name>
None

> <i_lp_mmshare_version>
53161

> <i_f3d_flags>
0

> <r_lp_tautomer_probability>
1

> <s_lp_Force_Field>
OPLS_2005

> <r_lp_Energy>
28.922423

> <b_lp_Chiralities_Consistent>
1

> <s_lp_Variant>
CHEMBL4581_lig71-1

> <s_i_glide_gridfile>
glide-grid_3cjo

> <i_i_glide_lignum>
108

> <i_i_glide_rotatable_bonds>
4

> <r_i_docking_score>
-6.82087431590772

> <r_i_glide_ligand_efficiency>
-0.310039741632169

> <r_i_glide_ligand_efficiency_sa>
-0.868743549224465

> <r_i_glide_ligand_efficiency_ln>
-1.66727048024361

> <r_i_glide_gscore>
-6.82087431590772

> <r_i_glide_lipo>
-3.91154674623278

> <r_i_glide_hbond>
-0.32

> <r_i_glide_metal>
0

> <r_i_glide_rewards>
-1.40158745454545

> <r_i_glide_evdw>
-31.9938449859619

> <r_i_glide_ecoul>
-1.47289204597473

> <r_i_glide_erotb>
0.632885941064821

> <r_i_glide_esite>
0

> <r_i_glide_emodel>
-44.1483339719115

> <r_i_glide_energy>
-33.4667370319366

> <r_i_glide_einternal>
5.41659259796143

> <i_i_glide_confnum>
23

> <i_i_glide_posenum>
293

> <r_i_glide_eff_state_penalty>
0

> <s_user_duplicate_titles>
CHEMBL4581_lig71

> <s_m_subgroup_title>
dock_pv

> <s_m_subgroupid>
dock_pv

> <b_m_subgroup_collapsed>
1

$$$$
CHEMBL4581_lig413
                    3D
 Schrodinger Suite 2021-1.
 30 32  0  0  1  0            999 V2000
   18.2466   15.2253  106.6574 C   0  0  0  0  0  0
   17.2089   14.3574  106.2929 C   0  0  0  0  0  0
   16.6126   13.4841  107.2004 C   0  0  0  0  0  0
   18.6708   15.2884  107.9925 C   0  0  0  0  0  0
   18.0881   14.4243  108.9336 C   0  0  0  0  0  0
   17.0780   13.5201  108.5159 C   0  0  0  0  0  0
   16.7235   12.7641  109.6143 N   0  0  0  0  0  0
   18.2926   14.2243  110.3119 C   0  0  0  0  0  0
   17.4593   13.1489  110.7158 C   0  0  0  0  0  0
   17.4696   12.6518  112.0200 C   0  0  0  0  0  0
   18.3219   13.2725  112.9358 C   0  0  0  0  0  0
   19.1170   14.3598  112.5689 C   0  0  0  0  0  0
   19.1186   14.8448  111.2623 C   0  0  0  0  0  0
   18.8653   16.0876  105.6102 C   0  0  0  0  0  0
   18.3980   12.7184  114.3412 C   0  0  0  0  0  0
   18.3174   16.3625  104.5418 O   0  0  0  0  0  0
   20.3142   16.5352  105.7994 C   0  0  0  0  0  0
   16.8776   14.3142  105.2642 H   0  0  0  0  0  0
   15.8458   12.7906  106.8845 H   0  0  0  0  0  0
   19.4451   15.9757  108.3025 H   0  0  0  0  0  0
   16.0501   12.0140  109.5996 H   0  0  0  0  0  0
   16.8437   11.8189  112.3106 H   0  0  0  0  0  0
   19.7678   14.8215  113.2978 H   0  0  0  0  0  0
   19.7570   15.6718  110.9876 H   0  0  0  0  0  0
   19.1198   13.2418  114.9570 H   0  0  0  0  0  0
   17.4240   12.7491  114.8309 H   0  0  0  0  0  0
   18.7193   11.6806  114.2993 H   0  0  0  0  0  0
   20.8542   15.8751  106.4764 H   0  0  0  0  0  0
   20.3508   17.5613  106.1576 H   0  0  0  0  0  0
   20.8337   16.4987  104.8436 H   0  0  0  0  0  0
  1  2  1  0  0  0
  1  4  2  0  0  0
  1 14  1  0  0  0
  2  3  2  0  0  0
  2 18  1  0  0  0
  3  6  1  0  0  0
  3 19  1  0  0  0
  4  5  1  0  0  0
  4 20  1  0  0  0
  5  6  2  0  0  0
  5  8  1  0  0  0
  6  7  1  0  0  0
  7  9  1  0  0  0
  7 21  1  0  0  0
  8  9  2  0  0  0
  8 13  1  0  0  0
  9 10  1  0  0  0
 10 11  2  0  0  0
 10 22  1  0  0  0
 11 12  1  0  0  0
 11 15  1  0  0  0
 12 13  2  0  0  0
 12 23  1  0  0  0
 13 24  1  0  0  0
 14 16  2  0  0  0
 14 17  1  0  0  0
 15 25  1  0  0  0
 15 26  1  0  0  0
 15 27  1  0  0  0
 17 28  1  0  0  0
 17 29  1  0  0  0
 17 30  1  0  0  0
M  END
> <s_m_entry_id>
562

> <s_m_entry_name>
dock_pv.561

> <s_m_Source_Path>
/home/csk/Desktop/cluster/DUD-E-result/kif11

> <s_m_Source_File>
dock_pv.maegz

> <i_m_Source_File_Index>
561

> <chembl_id>
CHEMBL1173069

> <chembl_pref_name>
None

> <i_lp_mmshare_version>
53161

> <i_f3d_flags>
0

> <r_lp_tautomer_probability>
0.99995

> <s_lp_Force_Field>
OPLS_2005

> <r_lp_Energy>
20.392171

> <b_lp_Chiralities_Consistent>
1

> <s_lp_Variant>
CHEMBL4581_lig413-1

> <s_i_glide_gridfile>
glide-grid_3cjo

> <i_i_glide_lignum>
618

> <i_i_glide_rotatable_bonds>
1

> <r_i_docking_score>
-6.81894664317836

> <r_i_glide_ligand_efficiency>
-0.401114508422257

> <r_i_glide_ligand_efficiency_sa>
-1.03137835027804

> <r_i_glide_ligand_efficiency_ln>
-1.77891132872941

> <r_i_glide_gscore>
-6.81894664317836

> <r_i_glide_lipo>
-2.72163162265357

> <r_i_glide_hbond>
-0.0563620843985502

> <r_i_glide_metal>
0

> <r_i_glide_rewards>
-2.14801251025345

> <r_i_glide_evdw>
-29.5350742340088

> <r_i_glide_ecoul>
-2.77457809448242

> <r_i_glide_erotb>
0

> <r_i_glide_esite>
0

> <r_i_glide_emodel>
-44.7953408868354

> <r_i_glide_energy>
-32.3096523284912

> <r_i_glide_einternal>
0.618409395217896

> <i_i_glide_confnum>
1

> <i_i_glide_posenum>
293

> <r_i_glide_eff_state_penalty>
0

> <s_user_duplicate_titles>
CHEMBL4581_lig413

> <s_m_subgroup_title>
dock_pv

> <s_m_subgroupid>
dock_pv

> <b_m_subgroup_collapsed>
1

$$$$
CHEMBL4581_lig387
                    3D
 Schrodinger Suite 2021-1.
 47 51  0  0  1  0            999 V2000
   22.2255   15.1724  105.5723 C   0  0  0  0  0  0
   21.6168   16.3607  105.1779 C   0  0  0  0  0  0
   20.4013   16.7630  105.7140 C   0  0  0  0  0  0
   21.6665   14.3621  106.5590 C   0  0  0  0  0  0
   20.4999   14.7962  107.1988 C   0  0  0  0  0  0
   19.8707   15.9921  106.7449 C   0  0  0  0  0  0
   18.7435   16.1724  107.5119 N   0  0  0  0  0  0
   19.7304   14.3141  108.3006 C   0  0  0  0  0  0
   18.6657   15.1816  108.4523 C   0  0  0  0  0  0
   17.5992   15.0799  109.5282 C   0  0  2  0  0  0
   17.9788   13.9738  110.4444 N   0  0  0  0  0  0
   18.5400   12.7641  109.8379 C   0  0  0  0  0  0
   19.9185   13.1339  109.2353 C   0  0  0  0  0  0
   16.1863   14.9309  108.9943 C   0  0  0  0  0  0
   23.5180   14.7709  104.9246 C   0  0  0  0  0  0
   14.3665   14.2071  107.8620 N   0  0  0  0  0  0
   15.6958   13.9831  108.1110 C   0  0  0  0  0  0
   13.9436   15.3157  108.5604 C   0  0  0  0  0  0
   15.0756   15.7948  109.2918 C   0  0  0  0  0  0
   14.9196   16.9334  110.1007 C   0  0  0  0  0  0
   13.6755   17.5593  110.1590 C   0  0  0  0  0  0
   12.5900   17.0700  109.4366 C   0  0  0  0  0  0
   12.6928   15.9395  108.6240 C   0  0  0  0  0  0
   17.8584   14.1047  111.7838 C   0  0  0  0  0  0
   17.5181   15.1620  112.2842 O   0  0  0  0  0  0
   18.0676   12.9156  112.7268 C   0  0  0  0  0  0
   22.0699   16.9626  104.4031 H   0  0  0  0  0  0
   19.9180   17.6509  105.3622 H   0  0  0  0  0  0
   22.1525   13.4486  106.8677 H   0  0  0  0  0  0
   18.0723   16.9242  107.4621 H   0  0  0  0  0  0
   17.6458   16.0232  110.0747 H   0  0  0  0  0  0
   17.8631   12.4088  109.0606 H   0  0  0  0  0  0
   18.5863   11.9620  110.5590 H   0  0  0  0  0  0
   20.3198   12.2784  108.6997 H   0  0  0  0  0  0
   20.6376   13.3587  110.0235 H   0  0  0  0  0  0
   23.7524   13.7206  105.0866 H   0  0  0  0  0  0
   23.4897   14.9353  103.8474 H   0  0  0  0  0  0
   24.2860   15.4088  105.3590 H   0  0  0  0  0  0
   13.8225   13.6255  107.2404 H   0  0  0  0  0  0
   16.1978   13.1556  107.6280 H   0  0  0  0  0  0
   15.7507   17.3215  110.6720 H   0  0  0  0  0  0
   13.5504   18.4373  110.7773 H   0  0  0  0  0  0
   11.6412   17.5824  109.5090 H   0  0  0  0  0  0
   11.8410   15.5726  108.0704 H   0  0  0  0  0  0
   19.1176   12.6304  112.7551 H   0  0  0  0  0  0
   17.7695   13.1808  113.7417 H   0  0  0  0  0  0
   17.4635   12.0604  112.4229 H   0  0  0  0  0  0
  1 15  1  0  0  0
  1  2  2  0  0  0
  1  4  1  0  0  0
  2  3  1  0  0  0
  2 27  1  0  0  0
  3  6  2  0  0  0
  3 28  1  0  0  0
  4  5  2  0  0  0
  4 29  1  0  0  0
  5  8  1  0  0  0
  5  6  1  0  0  0
  6  7  1  0  0  0
  7  9  1  0  0  0
  7 30  1  0  0  0
  8  9  2  0  0  0
  8 13  1  0  0  0
  9 10  1  0  0  0
 10 11  1  0  0  0
 10 14  1  0  0  0
 10 31  1  0  0  0
 11 12  1  0  0  0
 11 24  1  0  0  0
 12 13  1  0  0  0
 12 32  1  0  0  0
 12 33  1  0  0  0
 13 34  1  0  0  0
 13 35  1  0  0  0
 14 19  1  0  0  0
 14 17  2  0  0  0
 15 36  1  0  0  0
 15 37  1  0  0  0
 15 38  1  0  0  0
 16 18  1  0  0  0
 16 17  1  0  0  0
 16 39  1  0  0  0
 17 40  1  0  0  0
 18 19  2  0  0  0
 18 23  1  0  0  0
 19 20  1  0  0  0
 20 21  2  0  0  0
 20 41  1  0  0  0
 21 22  1  0  0  0
 21 42  1  0  0  0
 22 23  2  0  0  0
 22 43  1  0  0  0
 23 44  1  0  0  0
 24 25  2  0  0  0
 24 26  1  0  0  0
 26 45  1  0  0  0
 26 46  1  0  0  0
 26 47  1  0  0  0
M  END
> <s_m_entry_id>
563

> <s_m_entry_name>
dock_pv.562

> <s_m_Source_Path>
/home/csk/Desktop/cluster/DUD-E-result/kif11

> <s_m_Source_File>
dock_pv.maegz

> <i_m_Source_File_Index>
562

> <chembl_id>
CHEMBL1164373

> <chembl_pref_name>
None

> <i_lp_mmshare_version>
53161

> <i_f3d_flags>
0

> <r_lp_tautomer_probability>
1

> <s_lp_Force_Field>
OPLS_2005

> <r_lp_Energy>
23.034064

> <b_lp_Chiralities_Consistent>
1

> <s_lp_Variant>
CHEMBL4581_lig387-1

> <s_i_glide_gridfile>
glide-grid_3cjo

> <i_i_glide_lignum>
550

> <i_i_glide_rotatable_bonds>
2

> <r_i_docking_score>
-6.81867718740429

> <r_i_glide_ligand_efficiency>
-0.262256814900165

> <r_i_glide_ligand_efficiency_sa>
-0.776934782211002

> <r_i_glide_ligand_efficiency_ln>
-1.60134396355715

> <r_i_glide_gscore>
-6.81867718740429

> <r_i_glide_lipo>
-3.48458983588942

> <r_i_glide_hbond>
0

> <r_i_glide_metal>
0

> <r_i_glide_rewards>
-1.58355514232408

> <r_i_glide_evdw>
-30.6656455993652

> <r_i_glide_ecoul>
-2.52091431617737

> <r_i_glide_erotb>
0.160887218204071

> <r_i_glide_esite>
0

> <r_i_glide_emodel>
-45.4598053593172

> <r_i_glide_energy>
-33.1865599155426

> <r_i_glide_einternal>
1.83375477790833

> <i_i_glide_confnum>
3

> <i_i_glide_posenum>
63

> <r_i_glide_eff_state_penalty>
0

> <s_user_duplicate_titles>
CHEMBL4581_lig387,644921

> <s_m_subgroup_title>
dock_pv

> <s_m_subgroupid>
dock_pv

> <b_m_subgroup_collapsed>
1

$$$$
CHEMBL4581_lig78
                    3D
 Schrodinger Suite 2021-1.
 45 47  0  0  1  0            999 V2000
   20.3221   16.1023  105.7589 C   0  0  0  0  0  0
   21.2047   15.2204  106.3610 C   0  0  0  0  0  0
   20.7653   14.3620  107.3711 C   0  0  0  0  0  0
   18.9902   16.1034  106.1457 C   0  0  0  0  0  0
   18.5308   15.2766  107.1737 C   0  0  0  0  0  0
   19.4309   14.3911  107.8083 C   0  0  0  0  0  0
   18.9450   13.4486  108.9213 C   0  0  0  0  0  0
   17.5554   13.7164  109.3411 N   0  0  0  0  0  0
   16.6285   14.0023  108.2313 C   0  0  0  0  0  0
   17.0750   15.3557  107.6358 C   0  0  1  0  0  0
   16.7769   16.5397  108.5727 C   0  0  0  0  0  0
   15.4615   17.0098  108.6821 C   0  0  0  0  0  0
   15.1540   18.0764  109.5265 C   0  0  0  0  0  0
   16.1602   18.6894  110.2708 C   0  0  0  0  0  0
   17.4761   18.2396  110.1662 C   0  0  0  0  0  0
   17.7830   17.1723  109.3221 C   0  0  0  0  0  0
   17.0558   13.2350  110.5110 C   0  0  0  0  0  0
   15.9183   12.7627  110.5588 O   0  0  0  0  0  0
   17.8381   13.2917  111.6239 N   0  0  0  0  0  0
   18.7612   14.3909  111.9283 C   0  0  0  0  0  0
   17.6274   12.3852  112.7533 C   0  0  0  0  0  0
   13.8626   18.5186  109.6241 O   0  0  0  0  0  0
   21.7660   13.3973  107.9849 C   0  0  0  0  0  0
   20.6643   16.7608  104.9742 H   0  0  0  0  0  0
   22.2342   15.2034  106.0327 H   0  0  0  0  0  0
   18.2974   16.7604  105.6456 H   0  0  0  0  0  0
   19.6415   13.4827  109.7572 H   0  0  0  0  0  0
   18.9859   12.4213  108.5587 H   0  0  0  0  0  0
   15.5874   14.0765  108.5521 H   0  0  0  0  0  0
   16.6889   13.2057  107.4872 H   0  0  0  0  0  0
   16.4711   15.5332  106.7444 H   0  0  0  0  0  0
   14.6698   16.5427  108.1134 H   0  0  0  0  0  0
   15.9280   19.5152  110.9294 H   0  0  0  0  0  0
   18.2582   18.7205  110.7377 H   0  0  0  0  0  0
   18.8111   16.8420  109.2613 H   0  0  0  0  0  0
   18.8582   15.1072  111.1116 H   0  0  0  0  0  0
   18.4087   14.9419  112.8005 H   0  0  0  0  0  0
   19.7529   14.0029  112.1561 H   0  0  0  0  0  0
   16.9529   11.5636  112.5091 H   0  0  0  0  0  0
   18.5772   11.9548  113.0704 H   0  0  0  0  0  0
   17.2006   12.9231  113.6002 H   0  0  0  0  0  0
   13.7814   19.2769  110.2056 H   0  0  0  0  0  0
   22.7426   13.5243  107.5318 H   0  0  0  0  0  0
   21.8604   13.5621  109.0582 H   0  0  0  0  0  0
   21.4713   12.3629  107.8281 H   0  0  0  0  0  0
  1  2  2  0  0  0
  1  4  1  0  0  0
  1 24  1  0  0  0
  2  3  1  0  0  0
  2 25  1  0  0  0
  3  6  2  0  0  0
  3 23  1  0  0  0
  4  5  2  0  0  0
  4 26  1  0  0  0
  5 10  1  0  0  0
  5  6  1  0  0  0
  6  7  1  0  0  0
  7  8  1  0  0  0
  7 27  1  0  0  0
  7 28  1  0  0  0
  8 17  1  0  0  0
  8  9  1  0  0  0
  9 10  1  0  0  0
  9 29  1  0  0  0
  9 30  1  0  0  0
 10 11  1  0  0  0
 10 31  1  0  0  0
 11 12  2  0  0  0
 11 16  1  0  0  0
 12 13  1  0  0  0
 12 32  1  0  0  0
 13 14  2  0  0  0
 13 22  1  0  0  0
 14 15  1  0  0  0
 14 33  1  0  0  0
 15 16  2  0  0  0
 15 34  1  0  0  0
 16 35  1  0  0  0
 17 18  2  0  0  0
 17 19  1  0  0  0
 19 20  1  0  0  0
 19 21  1  0  0  0
 20 36  1  0  0  0
 20 37  1  0  0  0
 20 38  1  0  0  0
 21 39  1  0  0  0
 21 40  1  0  0  0
 21 41  1  0  0  0
 22 42  1  0  0  0
 23 43  1  0  0  0
 23 44  1  0  0  0
 23 45  1  0  0  0
M  END
> <s_m_entry_id>
564

> <s_m_entry_name>
dock_pv.563

> <s_m_Source_Path>
/home/csk/Desktop/cluster/DUD-E-result/kif11

> <s_m_Source_File>
dock_pv.maegz

> <i_m_Source_File_Index>
563

> <chembl_id>
CHEMBL381062

> <chembl_pref_name>
None

> <i_lp_mmshare_version>
53161

> <i_f3d_flags>
0

> <r_lp_tautomer_probability>
0.999999999997365

> <s_lp_Force_Field>
OPLS_2005

> <r_lp_Energy>
46.789302

> <b_lp_Chiralities_Consistent>
1

> <s_lp_Variant>
CHEMBL4581_lig78-2

> <s_i_glide_gridfile>
glide-grid_3cjo

> <i_i_glide_lignum>
122

> <i_i_glide_rotatable_bonds>
4

> <r_i_docking_score>
-6.8168976393331

> <r_i_glide_ligand_efficiency>
-0.296386853884048

> <r_i_glide_ligand_efficiency_sa>
-0.842884786141981

> <r_i_glide_ligand_efficiency_ln>
-1.64838766140107

> <r_i_glide_gscore>
-6.8168976393331

> <r_i_glide_lipo>
-3.55081371084551

> <r_i_glide_hbond>
0

> <r_i_glide_metal>
0

> <r_i_glide_rewards>
-1.84270378315034

> <r_i_glide_evdw>
-34.8171997070312

> <r_i_glide_ecoul>
-0.447951108217239

> <r_i_glide_erotb>
0.384672506246895

> <r_i_glide_esite>
0

> <r_i_glide_emodel>
-49.0563256312971

> <r_i_glide_energy>
-35.2651508152485

> <r_i_glide_einternal>
0.797461628913879

> <i_i_glide_confnum>
39

> <i_i_glide_posenum>
223

> <r_i_glide_eff_state_penalty>
0

> <s_user_duplicate_titles>
CHEMBL4581_lig78

> <s_m_subgroup_title>
dock_pv

> <s_m_subgroupid>
dock_pv

> <b_m_subgroup_collapsed>
1

$$$$
CHEMBL4581_lig595
                    3D
 Schrodinger Suite 2021-1.
 47 49  0  0  1  0            999 V2000
   17.1337   14.5171  107.2653 C   0  0  0  0  0  0
   17.8289   14.5725  108.6610 C   0  0  2  0  0  0
   17.4030   15.8701  109.4227 C   0  0  0  0  0  0
   16.0330   16.1153  109.6140 C   0  0  0  0  0  0
   15.5934   17.2674  110.2605 C   0  0  0  0  0  0
   16.5211   18.1911  110.7272 C   0  0  0  0  0  0
   17.8834   17.9634  110.5669 C   0  0  0  0  0  0
   18.3176   16.8046  109.9305 C   0  0  0  0  0  0
   19.6416   14.4010  108.3363 S   0  0  0  0  0  0
   20.1613   15.8334  107.3457 C   0  0  0  0  0  0
   20.3530   15.5971  105.8473 C   0  0  0  0  0  0
   17.4319   13.3335  109.5506 C   0  0  0  0  0  0
   17.8291   13.2795  111.0383 C   0  0  0  0  0  0
   17.1178   12.4046  111.8619 C   0  0  0  0  0  0
   17.3698   12.3564  113.2299 C   0  0  0  0  0  0
   18.3674   13.1539  113.7786 C   0  0  0  0  0  0
   19.1161   13.9985  112.9672 C   0  0  0  0  0  0
   18.8552   14.0519  111.6016 C   0  0  0  0  0  0
   21.0159   16.7628  105.2842 N   0  0  0  0  0  0
   16.7180   13.3019  106.6951 C   0  0  0  0  0  0
   16.0862   13.2694  105.4541 C   0  0  0  0  0  0
   16.2719   15.6688  105.2977 C   0  0  0  0  0  0
   16.8964   15.6993  106.5418 C   0  0  0  0  0  0
   15.8707   14.4525  104.7574 C   0  0  0  0  0  0
   15.2705   14.4217  103.5463 F   0  0  0  0  0  0
   15.2995   15.4132  109.2459 H   0  0  0  0  0  0
   14.5367   17.4447  110.3966 H   0  0  0  0  0  0
   16.1844   19.0846  111.2337 H   0  0  0  0  0  0
   18.5993   18.6789  110.9458 H   0  0  0  0  0  0
   19.3761   16.6419  109.8521 H   0  0  0  0  0  0
   19.4816   16.6694  107.4978 H   0  0  0  0  0  0
   21.1186   16.1352  107.7588 H   0  0  0  0  0  0
   20.9699   14.7134  105.6736 H   0  0  0  0  0  0
   19.3955   15.4215  105.3565 H   0  0  0  0  0  0
   16.3450   13.2298  109.5160 H   0  0  0  0  0  0
   17.8245   12.4156  109.1149 H   0  0  0  0  0  0
   16.3382   11.7811  111.4485 H   0  0  0  0  0  0
   16.7898   11.6966  113.8584 H   0  0  0  0  0  0
   18.5676   13.1080  114.8393 H   0  0  0  0  0  0
   19.9050   14.6031  113.3934 H   0  0  0  0  0  0
   19.4682   14.7042  111.0061 H   0  0  0  0  0  0
   21.1174   16.6591  104.2824 H   0  0  0  0  0  0
   20.4646   17.5972  105.4491 H   0  0  0  0  0  0
   16.8847   12.3616  107.1913 H   0  0  0  0  0  0
   15.7797   12.3268  105.0256 H   0  0  0  0  0  0
   16.0971   16.5834  104.7522 H   0  0  0  0  0  0
   17.1917   16.6582  106.9411 H   0  0  0  0  0  0
  1 20  2  0  0  0
  1  2  1  0  0  0
  1 23  1  0  0  0
  2  9  1  0  0  0
  2  3  1  0  0  0
  2 12  1  0  0  0
  3  4  2  0  0  0
  3  8  1  0  0  0
  4  5  1  0  0  0
  4 26  1  0  0  0
  5  6  2  0  0  0
  5 27  1  0  0  0
  6  7  1  0  0  0
  6 28  1  0  0  0
  7  8  2  0  0  0
  7 29  1  0  0  0
  8 30  1  0  0  0
  9 10  1  0  0  0
 10 11  1  0  0  0
 10 31  1  0  0  0
 10 32  1  0  0  0
 11 19  1  0  0  0
 11 33  1  0  0  0
 11 34  1  0  0  0
 12 13  1  0  0  0
 12 35  1  0  0  0
 12 36  1  0  0  0
 13 14  2  0  0  0
 13 18  1  0  0  0
 14 15  1  0  0  0
 14 37  1  0  0  0
 15 16  2  0  0  0
 15 38  1  0  0  0
 16 17  1  0  0  0
 16 39  1  0  0  0
 17 18  2  0  0  0
 17 40  1  0  0  0
 18 41  1  0  0  0
 19 42  1  0  0  0
 19 43  1  0  0  0
 20 21  1  0  0  0
 20 44  1  0  0  0
 21 24  2  0  0  0
 21 45  1  0  0  0
 22 24  1  0  0  0
 22 23  2  0  0  0
 22 46  1  0  0  0
 23 47  1  0  0  0
 24 25  1  0  0  0
M  END
> <s_m_entry_id>
565

> <s_m_entry_name>
dock_pv.564

> <s_m_Source_Path>
/home/csk/Desktop/cluster/DUD-E-result/kif11

> <s_m_Source_File>
dock_pv.maegz

> <i_m_Source_File_Index>
564

> <chembl_id>
CHEMBL2043407

> <chembl_pref_name>
None

> <i_lp_mmshare_version>
53161

> <i_f3d_flags>
0

> <r_lp_tautomer_probability>
1

> <s_lp_Force_Field>
OPLS_2005

> <r_lp_Energy>
23.978778

> <b_lp_Chiralities_Consistent>
1

> <s_lp_Variant>
CHEMBL4581_lig595-2

> <s_i_glide_gridfile>
glide-grid_3cjo

> <i_i_glide_lignum>
915

> <i_i_glide_rotatable_bonds>
7

> <r_i_docking_score>
-6.81495708304924

> <r_i_glide_ligand_efficiency>
-0.27259828332197

> <r_i_glide_ligand_efficiency_sa>
-0.797082214984579

> <r_i_glide_ligand_efficiency_ln>
-1.61534905646628

> <r_i_glide_gscore>
-6.81495708304924

> <r_i_glide_lipo>
-4.06693912181872

> <r_i_glide_hbond>
0

> <r_i_glide_metal>
0

> <r_i_glide_rewards>
-1.11462761999485

> <r_i_glide_evdw>
-40.4576835632324

> <r_i_glide_ecoul>
-3.55499887466431

> <r_i_glide_erotb>
0.92635105604173

> <r_i_glide_esite>
-0.00360738791613489

> <r_i_glide_emodel>
-59.0230867112291

> <r_i_glide_energy>
-44.0126824378967

> <r_i_glide_einternal>
6.44901895523071

> <i_i_glide_confnum>
91

> <i_i_glide_posenum>
212

> <r_i_glide_eff_state_penalty>
0

> <s_user_duplicate_titles>
CHEMBL4581_lig595

> <s_m_subgroup_title>
dock_pv

> <s_m_subgroupid>
dock_pv

> <b_m_subgroup_collapsed>
1

$$$$
CHEMBL4581_lig307
                    3D
 Schrodinger Suite 2021-1.
 49 52  0  0  1  0            999 V2000
   18.7171   15.9478  109.2918 N   0  0  0  0  0  0
   17.4209   14.2351  108.6486 C   0  0  0  0  0  0
   18.1463   15.3221  108.2143 C   0  0  0  0  0  0
   18.2745   15.7880  106.7685 C   0  0  2  0  0  0
   17.3613   14.9793  105.9167 N   0  0  0  0  0  0
   17.2393   13.5451  106.2614 C   0  0  0  0  0  0
   16.6145   13.4042  107.6732 C   0  0  0  0  0  0
   18.4961   15.2135  110.4341 C   0  0  0  0  0  0
   17.6591   14.1178  110.0585 C   0  0  0  0  0  0
   17.2666   13.2001  111.0425 C   0  0  0  0  0  0
   17.7363   13.3692  112.3459 C   0  0  0  0  0  0
   18.5592   14.4437  112.6816 C   0  0  0  0  0  0
   18.9511   15.3957  111.7424 C   0  0  0  0  0  0
   19.7350   15.7876  106.2939 C   0  0  0  0  0  0
   16.8536   15.5011  104.7656 C   0  0  0  0  0  0
   17.0493   16.6760  104.4375 O   0  0  0  0  0  0
   15.9603   14.6171  103.8633 C   0  0  0  0  0  0
   20.1981   16.7829  105.4291 C   0  0  0  0  0  0
   21.5202   16.7787  104.9786 C   0  0  0  0  0  0
   22.3761   15.7416  105.3451 C   0  0  0  0  0  0
   21.9071   14.7158  106.1591 C   0  0  0  0  0  0
   20.6076   14.7556  106.6536 C   0  0  0  0  0  0
   22.7176   13.6636  106.4743 O   0  0  0  0  0  0
   17.3551   12.3639  113.4069 C   0  0  0  0  0  0
   15.3241   15.3078  102.6356 C   0  0  0  0  0  0
   16.3325   15.7742  101.6980 N   0  0  0  0  0  0
   19.2680   16.7879  109.1951 H   0  0  0  0  0  0
   17.9299   16.8058  106.7267 H   0  0  0  0  0  0
   18.2551   13.1615  106.2770 H   0  0  0  0  0  0
   16.7149   12.9345  105.5283 H   0  0  0  0  0  0
   15.5612   13.6840  107.6675 H   0  0  0  0  0  0
   16.6556   12.3614  107.9712 H   0  0  0  0  0  0
   16.6386   12.3592  110.7867 H   0  0  0  0  0  0
   18.9102   14.5454  113.6981 H   0  0  0  0  0  0
   19.5902   16.2234  112.0152 H   0  0  0  0  0  0
   15.1564   14.2118  104.4792 H   0  0  0  0  0  0
   16.5590   13.7769  103.5112 H   0  0  0  0  0  0
   19.5276   17.5640  105.1053 H   0  0  0  0  0  0
   21.8705   17.5584  104.3180 H   0  0  0  0  0  0
   23.3876   15.7179  104.9716 H   0  0  0  0  0  0
   20.2672   13.9607  107.2965 H   0  0  0  0  0  0
   23.5496   13.6913  105.9990 H   0  0  0  0  0  0
   17.3565   12.8044  114.4051 H   0  0  0  0  0  0
   16.3568   11.9608  113.2346 H   0  0  0  0  0  0
   18.0849   11.5619  113.3612 H   0  0  0  0  0  0
   14.7096   16.1522  102.9539 H   0  0  0  0  0  0
   14.6605   14.6118  102.1213 H   0  0  0  0  0  0
   15.8823   16.2685  100.9405 H   0  0  0  0  0  0
   16.8789   16.4680  102.1955 H   0  0  0  0  0  0
  1  8  1  0  0  0
  1  3  1  0  0  0
  1 27  1  0  0  0
  2  7  1  0  0  0
  2  9  1  0  0  0
  2  3  2  0  0  0
  3  4  1  0  0  0
  4 14  1  0  0  0
  4  5  1  0  0  0
  4 28  1  0  0  0
  5 15  1  0  0  0
  5  6  1  0  0  0
  6  7  1  0  0  0
  6 29  1  0  0  0
  6 30  1  0  0  0
  7 31  1  0  0  0
  7 32  1  0  0  0
  8 13  1  0  0  0
  8  9  2  0  0  0
  9 10  1  0  0  0
 10 11  2  0  0  0
 10 33  1  0  0  0
 11 24  1  0  0  0
 11 12  1  0  0  0
 12 13  2  0  0  0
 12 34  1  0  0  0
 13 35  1  0  0  0
 14 18  2  0  0  0
 14 22  1  0  0  0
 15 16  2  0  0  0
 15 17  1  0  0  0
 17 25  1  0  0  0
 17 36  1  0  0  0
 17 37  1  0  0  0
 18 19  1  0  0  0
 18 38  1  0  0  0
 19 20  2  0  0  0
 19 39  1  0  0  0
 20 21  1  0  0  0
 20 40  1  0  0  0
 21 22  2  0  0  0
 21 23  1  0  0  0
 22 41  1  0  0  0
 23 42  1  0  0  0
 24 43  1  0  0  0
 24 44  1  0  0  0
 24 45  1  0  0  0
 25 26  1  0  0  0
 25 46  1  0  0  0
 25 47  1  0  0  0
 26 48  1  0  0  0
 26 49  1  0  0  0
M  END
> <s_m_entry_id>
566

> <s_m_entry_name>
dock_pv.565

> <s_m_Source_Path>
/home/csk/Desktop/cluster/DUD-E-result/kif11

> <s_m_Source_File>
dock_pv.maegz

> <i_m_Source_File_Index>
565

> <chembl_id>
CHEMBL590123

> <chembl_pref_name>
None

> <i_lp_mmshare_version>
53161

> <i_f3d_flags>
0

> <r_lp_tautomer_probability>
0.999999999997365

> <s_lp_Force_Field>
OPLS_2005

> <r_lp_Energy>
21.205807

> <b_lp_Chiralities_Consistent>
1

> <s_lp_Variant>
CHEMBL4581_lig307-2

> <s_i_glide_gridfile>
glide-grid_3cjo

> <i_i_glide_lignum>
453

> <i_i_glide_rotatable_bonds>
5

> <r_i_docking_score>
-6.80814818519924

> <r_i_glide_ligand_efficiency>
-0.261851853276894

> <r_i_glide_ligand_efficiency_sa>
-0.775735084995509

> <r_i_glide_ligand_efficiency_ln>
-1.59887126193777

> <r_i_glide_gscore>
-6.80814818519924

> <r_i_glide_lipo>
-3.9033969299993

> <r_i_glide_hbond>
0

> <r_i_glide_metal>
0

> <r_i_glide_rewards>
-1.09241697153707

> <r_i_glide_evdw>
-40.1496086120605

> <r_i_glide_ecoul>
-1.5786874294281

> <r_i_glide_erotb>
0.468029732021144

> <r_i_glide_esite>
-0.0360804706667771

> <r_i_glide_emodel>
-55.8550774569387

> <r_i_glide_energy>
-41.7282960414886

> <r_i_glide_einternal>
2.95089197158813

> <i_i_glide_confnum>
6

> <i_i_glide_posenum>
118

> <r_i_glide_eff_state_penalty>
0

> <s_user_duplicate_titles>
CHEMBL4581_lig307,590441

> <s_m_subgroup_title>
dock_pv

> <s_m_subgroupid>
dock_pv

> <b_m_subgroup_collapsed>
1

$$$$
CHEMBL4581_lig110
                    3D
 Schrodinger Suite 2021-1.
 66 70  0  0  1  0            999 V2000
   20.9981   16.1862  105.6338 C   0  0  0  0  0  0
   21.9517   14.3690  106.5397 C   0  0  0  0  0  0
   22.1284   15.3798  105.5978 C   0  0  0  0  0  0
   20.7206   14.5838  107.1450 C   0  0  0  0  0  0
   20.1257   15.6902  106.5818 N   0  0  0  0  0  0
   18.8759   16.1798  106.9155 N   0  0  0  0  0  0
   18.2084   15.4948  107.7883 C   0  0  0  0  0  0
   18.7719   14.3860  108.4288 N   0  0  0  0  0  0
   20.0876   13.9651  108.2778 C   0  0  0  0  0  0
   20.6559   13.1625  109.0133 O   0  0  0  0  0  0
   16.7513   15.9319  108.1337 C   0  0  2  0  0  0
   15.8183   15.5625  107.0235 N   0  0  0  0  0  0
   14.8971   14.5614  107.2249 C   0  0  0  0  0  0
   16.0362   16.2310  105.7159 C   0  0  0  0  0  0
   14.0152   14.1108  106.0849 C   0  0  0  0  0  0
   14.7801   13.9605  108.2988 O   0  0  0  0  0  0
   16.6703   17.4232  108.5464 C   0  0  0  0  0  0
   15.5973   17.8812  109.5049 C   0  0  0  0  0  0
   17.0440   17.8375  109.9473 C   0  0  0  0  0  0
   20.6259   17.5615  104.6815 Cl  0  0  0  0  0  0
   16.6190   15.3244  104.6047 C   0  0  0  0  0  0
   17.1619   16.0806  103.3828 C   0  0  0  0  0  0
   16.1439   16.8793  102.7300 N   0  0  0  0  0  0
   14.0177   12.7608  105.7068 C   0  0  0  0  0  0
   13.2312   12.3306  104.6441 C   0  0  0  0  0  0
   12.4446   13.2437  103.9437 C   0  0  0  0  0  0
   12.4079   14.5807  104.3366 C   0  0  0  0  0  0
   13.1793   15.0099  105.4131 C   0  0  0  0  0  0
   11.6218   12.7689  102.7631 C   0  0  0  0  0  0
   18.0001   13.5679  109.4011 C   0  0  0  0  0  0
   18.3199   13.8246  110.8710 C   0  0  0  0  0  0
   19.1057   14.9174  111.2573 C   0  0  0  0  0  0
   19.5595   15.0152  112.5580 C   0  0  0  0  0  0
   19.1901   14.0424  113.4828 C   0  0  0  0  0  0
   18.3351   13.0009  113.1351 C   0  0  0  0  0  0
   17.9106   12.8835  111.8171 C   0  0  0  0  0  0
   22.6535   13.5807  106.7766 H   0  0  0  0  0  0
   22.9832   15.5109  104.9480 H   0  0  0  0  0  0
   16.4443   15.4437  109.0560 H   0  0  0  0  0  0
   15.1258   16.7139  105.3648 H   0  0  0  0  0  0
   16.7215   17.0640  105.8562 H   0  0  0  0  0  0
   16.9542   18.1123  107.7595 H   0  0  0  0  0  0
   15.1246   18.8469  109.3285 H   0  0  0  0  0  0
   14.8999   17.1408  109.8990 H   0  0  0  0  0  0
   17.3584   17.0749  110.6595 H   0  0  0  0  0  0
   17.5885   18.7715  110.0799 H   0  0  0  0  0  0
   17.4361   14.7247  105.0131 H   0  0  0  0  0  0
   15.8692   14.6118  104.2635 H   0  0  0  0  0  0
   17.9817   16.7416  103.6681 H   0  0  0  0  0  0
   17.5520   15.3593  102.6688 H   0  0  0  0  0  0
   15.2930   16.3410  102.6120 H   0  0  0  0  0  0
   15.9030   17.6893  103.2896 H   0  0  0  0  0  0
   14.6484   12.0333  106.2041 H   0  0  0  0  0  0
   13.2411   11.2895  104.3668 H   0  0  0  0  0  0
   11.7866   15.2924  103.8147 H   0  0  0  0  0  0
   13.1288   16.0452  105.7068 H   0  0  0  0  0  0
   12.2729   12.4085  101.9698 H   0  0  0  0  0  0
   10.9868   11.9399  103.0630 H   0  0  0  0  0  0
   10.9861   13.5562  102.3610 H   0  0  0  0  0  0
   16.9274   13.6013  109.2468 H   0  0  0  0  0  0
   18.2273   12.5174  109.2096 H   0  0  0  0  0  0
   19.4471   15.6520  110.5432 H   0  0  0  0  0  0
   20.2719   15.7811  112.8122 H   0  0  0  0  0  0
   19.6087   14.0783  114.4772 H   0  0  0  0  0  0
   18.0587   12.2569  113.8686 H   0  0  0  0  0  0
   17.3057   12.0379  111.5206 H   0  0  0  0  0  0
  1 20  1  0  0  0
  1  5  1  0  0  0
  1  3  2  0  0  0
  2  4  2  0  0  0
  2  3  1  0  0  0
  2 37  1  0  0  0
  3 38  1  0  0  0
  4  5  1  0  0  0
  4  9  1  0  0  0
  5  6  1  0  0  0
  6  7  2  0  0  0
  7  8  1  0  0  0
  7 11  1  0  0  0
  8  9  1  0  0  0
  8 30  1  0  0  0
  9 10  2  0  0  0
 11 17  1  0  0  0
 11 12  1  0  0  0
 11 39  1  0  0  0
 12 13  1  0  0  0
 12 14  1  0  0  0
 13 15  1  0  0  0
 13 16  2  0  0  0
 14 21  1  0  0  0
 14 40  1  0  0  0
 14 41  1  0  0  0
 15 24  2  0  0  0
 15 28  1  0  0  0
 17 18  1  0  0  0
 17 19  1  0  0  0
 17 42  1  0  0  0
 18 19  1  0  0  0
 18 43  1  0  0  0
 18 44  1  0  0  0
 19 45  1  0  0  0
 19 46  1  0  0  0
 21 22  1  0  0  0
 21 47  1  0  0  0
 21 48  1  0  0  0
 22 23  1  0  0  0
 22 49  1  0  0  0
 22 50  1  0  0  0
 23 51  1  0  0  0
 23 52  1  0  0  0
 24 25  1  0  0  0
 24 53  1  0  0  0
 25 26  2  0  0  0
 25 54  1  0  0  0
 26 27  1  0  0  0
 26 29  1  0  0  0
 27 28  2  0  0  0
 27 55  1  0  0  0
 28 56  1  0  0  0
 29 57  1  0  0  0
 29 58  1  0  0  0
 29 59  1  0  0  0
 30 31  1  0  0  0
 30 60  1  0  0  0
 30 61  1  0  0  0
 31 32  2  0  0  0
 31 36  1  0  0  0
 32 33  1  0  0  0
 32 62  1  0  0  0
 33 34  2  0  0  0
 33 63  1  0  0  0
 34 35  1  0  0  0
 34 64  1  0  0  0
 35 36  2  0  0  0
 35 65  1  0  0  0
 36 66  1  0  0  0
M  END
> <s_m_entry_id>
567

> <s_m_entry_name>
dock_pv.566

> <s_m_Source_Path>
/home/csk/Desktop/cluster/DUD-E-result/kif11

> <s_m_Source_File>
dock_pv.maegz

> <i_m_Source_File_Index>
566

> <chembl_id>
CHEMBL213184

> <chembl_pref_name>
None

> <i_lp_mmshare_version>
53161

> <i_f3d_flags>
0

> <r_lp_tautomer_probability>
1

> <s_lp_Force_Field>
OPLS_2005

> <r_lp_Energy>
67.354792

> <b_lp_Chiralities_Consistent>
1

> <s_lp_Variant>
CHEMBL4581_lig110-1

> <s_i_glide_gridfile>
glide-grid_3cjo

> <i_i_glide_lignum>
187

> <i_i_glide_rotatable_bonds>
10

> <r_i_docking_score>
-6.80808209372489

> <r_i_glide_ligand_efficiency>
-0.189113391492358

> <r_i_glide_ligand_efficiency_sa>
-0.624438659753598

> <r_i_glide_ligand_efficiency_ln>
-1.48533957972869

> <r_i_glide_gscore>
-6.80808209372489

> <r_i_glide_lipo>
-3.99986203193158

> <r_i_glide_hbond>
0

> <r_i_glide_metal>
0

> <r_i_glide_rewards>
-0.972429751998838

> <r_i_glide_evdw>
-45.0989151000977

> <r_i_glide_ecoul>
-2.03414797782898

> <r_i_glide_erotb>
0.72427764188476

> <r_i_glide_esite>
0

> <r_i_glide_emodel>
-56.6217218842972

> <r_i_glide_energy>
-47.1330630779266

> <r_i_glide_einternal>
12.1261434555054

> <i_i_glide_confnum>
96

> <i_i_glide_posenum>
262

> <r_i_glide_eff_state_penalty>
0

> <s_user_duplicate_titles>
CHEMBL4581_lig110,355022

> <s_m_subgroup_title>
dock_pv

> <s_m_subgroupid>
dock_pv

> <b_m_subgroup_collapsed>
1

$$$$
CHEMBL4581_lig746
                    3D
 Schrodinger Suite 2021-1.
 31 32  0  0  1  0            999 V2000
   19.3262   13.5618  108.9593 S   0  0  0  0  0  0
   19.1153   14.6971  111.9842 O   0  0  0  0  0  0
   16.2397   16.2551  110.9584 O   0  0  0  0  0  0
   19.7915   16.7619  105.7492 O   0  0  0  0  0  0
   17.9234   15.6700  109.5200 N   0  0  0  0  0  0
   18.7745   16.0781  108.5383 N   0  0  0  0  0  0
   20.5202   15.1665  107.2351 N   0  0  0  0  0  0
   17.9316   14.2276  109.8744 C   0  0  2  0  0  0
   18.1640   13.9508  111.3600 C   0  0  0  0  0  0
   19.5179   15.1236  108.1492 C   0  0  0  0  0  0
   17.0805   16.5700  110.1131 C   0  0  0  0  0  0
   16.6583   13.5113  109.3521 C   0  0  0  0  0  0
   17.6603   13.0163  112.2603 C   0  0  0  0  0  0
   19.1931   14.2638  113.2666 C   0  0  0  0  0  0
   18.3058   13.2242  113.4787 C   0  0  0  0  0  0
   20.6421   15.9718  106.1592 C   0  0  0  0  0  0
   17.1792   18.0566  109.7410 C   0  0  0  0  0  0
   21.9614   15.8470  105.4042 C   0  0  0  0  0  0
   21.2325   14.4611  107.3301 H   0  0  0  0  0  0
   15.7637   13.8407  109.8814 H   0  0  0  0  0  0
   16.4959   13.7027  108.2900 H   0  0  0  0  0  0
   16.7251   12.4287  109.4754 H   0  0  0  0  0  0
   16.9124   12.2653  112.0499 H   0  0  0  0  0  0
   19.9203   14.7618  113.8889 H   0  0  0  0  0  0
   18.1563   12.6768  114.3984 H   0  0  0  0  0  0
   18.1969   18.4204  109.8874 H   0  0  0  0  0  0
   16.9046   18.2071  108.6969 H   0  0  0  0  0  0
   16.5141   18.6572  110.3622 H   0  0  0  0  0  0
   22.0556   14.8537  104.9643 H   0  0  0  0  0  0
   22.8057   16.0164  106.0729 H   0  0  0  0  0  0
   22.0132   16.5807  104.5990 H   0  0  0  0  0  0
  1  8  1  0  0  0
  1 10  1  0  0  0
  2  9  1  0  0  0
  2 14  1  0  0  0
  3 11  2  0  0  0
  4 16  2  0  0  0
  5  6  1  0  0  0
  5  8  1  0  0  0
  5 11  1  0  0  0
  6 10  2  0  0  0
  7 10  1  0  0  0
  7 16  1  0  0  0
  7 19  1  0  0  0
  8  9  1  0  0  0
  8 12  1  0  0  0
  9 13  2  0  0  0
 11 17  1  0  0  0
 12 20  1  0  0  0
 12 21  1  0  0  0
 12 22  1  0  0  0
 13 15  1  0  0  0
 13 23  1  0  0  0
 14 15  2  0  0  0
 14 24  1  0  0  0
 15 25  1  0  0  0
 16 18  1  0  0  0
 17 26  1  0  0  0
 17 27  1  0  0  0
 17 28  1  0  0  0
 18 29  1  0  0  0
 18 30  1  0  0  0
 18 31  1  0  0  0
M  END
> <s_m_entry_id>
568

> <s_m_entry_name>
dock_pv.567

> <s_m_Source_Path>
/home/csk/Desktop/cluster/DUD-E-result/kif11

> <s_m_Source_File>
dock_pv.maegz

> <i_m_Source_File_Index>
567

> <chembl_id>
CHEMBL1565660

> <chembl_pref_name>
None

> <i_lp_mmshare_version>
53161

> <i_f3d_flags>
0

> <r_lp_tautomer_probability>
1

> <s_lp_Force_Field>
OPLS_2005

> <r_lp_Energy>
10.473923

> <b_lp_Chiralities_Consistent>
1

> <s_lp_Variant>
CHEMBL4581_lig746-2

> <s_i_glide_gridfile>
glide-grid_3cjo

> <i_i_glide_lignum>
1099

> <i_i_glide_rotatable_bonds>
4

> <r_i_docking_score>
-6.80737076936963

> <r_i_glide_ligand_efficiency>
-0.37818726496498

> <r_i_glide_ligand_efficiency_sa>
-0.991131019101457

> <r_i_glide_ligand_efficiency_ln>
-1.74979955464486

> <r_i_glide_gscore>
-6.80737076936963

> <r_i_glide_lipo>
-2.3435393469043

> <r_i_glide_hbond>
0

> <r_i_glide_metal>
0

> <r_i_glide_rewards>
-2.83816188895763

> <r_i_glide_evdw>
-39.7026062011719

> <r_i_glide_ecoul>
-0.930728733539581

> <r_i_glide_erotb>
0.499070086581839

> <r_i_glide_esite>
0

> <r_i_glide_emodel>
-56.5198378883921

> <r_i_glide_energy>
-40.6333349347115

> <r_i_glide_einternal>
1.63850677013397

> <i_i_glide_confnum>
2

> <i_i_glide_posenum>
366

> <r_i_glide_eff_state_penalty>
0

> <s_user_duplicate_titles>
CHEMBL4581_lig746

> <s_m_subgroup_title>
dock_pv

> <s_m_subgroupid>
dock_pv

> <b_m_subgroup_collapsed>
1

$$$$
CHEMBL4581_lig775
                    3D
 Schrodinger Suite 2021-1.
 47 50  0  0  1  0            999 V2000
   16.5392   15.2818  108.1693 C   0  0  1  0  0  0
   16.0663   16.6090  108.8708 C   0  0  1  0  0  0
   14.7227   16.4199  109.6093 C   0  0  0  0  0  0
   13.6934   15.9358  108.7512 O   0  0  0  0  0  0
   17.5702   15.8192  106.7858 S   0  0  0  0  0  0
   19.0139   15.1186  107.5715 C   0  0  0  0  0  0
   18.8003   14.4961  108.6559 N   0  0  0  0  0  0
   17.4831   14.4836  108.9980 N   0  0  0  0  0  0
   20.3166   15.2602  106.9009 C   0  0  0  0  0  0
   20.5658   16.3920  106.1092 C   0  0  0  0  0  0
   21.7260   16.4887  105.3498 C   0  0  0  0  0  0
   22.6500   15.4524  105.3582 C   0  0  0  0  0  0
   22.4377   14.3365  106.1589 C   0  0  0  0  0  0
   21.2977   14.2520  106.9588 C   0  0  0  0  0  0
   17.0826   13.7337  110.0683 C   0  0  0  0  0  0
   18.1287   13.0270  110.9351 C   0  0  0  0  0  0
   15.9088   13.5882  110.4015 O   0  0  0  0  0  0
   21.1920   13.1980  107.8020 F   0  0  0  0  0  0
   21.9275   17.5619  104.5583 F   0  0  0  0  0  0
   15.3328   14.5049  107.5992 C   0  0  0  0  0  0
   14.0154   14.8712  107.9396 C   0  0  0  0  0  0
   12.9156   14.2096  107.3938 C   0  0  0  0  0  0
   13.1041   13.1614  106.4988 C   0  0  0  0  0  0
   14.3943   12.7648  106.1609 C   0  0  0  0  0  0
   15.4929   13.4254  106.7136 C   0  0  0  0  0  0
   17.1133   17.3497  109.7592 C   0  0  0  0  0  0
   16.6740   18.6912  110.3723 C   0  0  0  0  0  0
   16.1253   19.5746  109.3589 N   0  0  0  0  0  0
   15.8020   17.3079  108.0730 H   0  0  0  0  0  0
   14.3608   17.3753  109.9890 H   0  0  0  0  0  0
   14.8494   15.7915  110.4851 H   0  0  0  0  0  0
   19.8563   17.2046  106.0497 H   0  0  0  0  0  0
   23.5183   15.5047  104.7281 H   0  0  0  0  0  0
   23.1611   13.5372  106.1697 H   0  0  0  0  0  0
   18.7954   13.7538  111.4029 H   0  0  0  0  0  0
   17.6530   12.4334  111.7189 H   0  0  0  0  0  0
   18.7189   12.3620  110.3112 H   0  0  0  0  0  0
   11.9157   14.5242  107.6518 H   0  0  0  0  0  0
   12.2503   12.6547  106.0699 H   0  0  0  0  0  0
   14.5488   11.9393  105.4815 H   0  0  0  0  0  0
   16.4862   13.0939  106.4410 H   0  0  0  0  0  0
   17.4270   16.7016  110.5789 H   0  0  0  0  0  0
   18.0154   17.5280  109.1700 H   0  0  0  0  0  0
   15.9296   18.5373  111.1545 H   0  0  0  0  0  0
   17.5331   19.1620  110.8498 H   0  0  0  0  0  0
   15.8769   20.4636  109.7734 H   0  0  0  0  0  0
   16.8223   19.7719  108.6559 H   0  0  0  0  0  0
  1  2  1  0  0  0
  1 20  1  0  0  0
  1  8  1  0  0  0
  1  5  1  0  0  0
  2  3  1  0  0  0
  2 26  1  0  0  0
  2 29  1  0  0  0
  3  4  1  0  0  0
  3 30  1  0  0  0
  3 31  1  0  0  0
  4 21  1  0  0  0
  5  6  1  0  0  0
  6  7  2  0  0  0
  6  9  1  0  0  0
  7  8  1  0  0  0
  8 15  1  0  0  0
  9 10  2  0  0  0
  9 14  1  0  0  0
 10 11  1  0  0  0
 10 32  1  0  0  0
 11 12  2  0  0  0
 11 19  1  0  0  0
 12 13  1  0  0  0
 12 33  1  0  0  0
 13 14  2  0  0  0
 13 34  1  0  0  0
 14 18  1  0  0  0
 15 16  1  0  0  0
 15 17  2  0  0  0
 16 35  1  0  0  0
 16 36  1  0  0  0
 16 37  1  0  0  0
 20 21  2  0  0  0
 20 25  1  0  0  0
 21 22  1  0  0  0
 22 23  2  0  0  0
 22 38  1  0  0  0
 23 24  1  0  0  0
 23 39  1  0  0  0
 24 25  2  0  0  0
 24 40  1  0  0  0
 25 41  1  0  0  0
 26 27  1  0  0  0
 26 42  1  0  0  0
 26 43  1  0  0  0
 27 28  1  0  0  0
 27 44  1  0  0  0
 27 45  1  0  0  0
 28 46  1  0  0  0
 28 47  1  0  0  0
M  END
> <s_m_entry_id>
569

> <s_m_entry_name>
dock_pv.568

> <s_m_Source_Path>
/home/csk/Desktop/cluster/DUD-E-result/kif11

> <s_m_Source_File>
dock_pv.maegz

> <i_m_Source_File_Index>
568

> <chembl_id>
CHEMBL3403382

> <chembl_pref_name>
None

> <i_lp_mmshare_version>
53161

> <i_f3d_flags>
0

> <r_lp_tautomer_probability>
1

> <s_lp_Force_Field>
OPLS_2005

> <r_lp_Energy>
29.204446

> <b_lp_Chiralities_Consistent>
1

> <s_lp_Variant>
CHEMBL4581_lig775-4

> <s_i_glide_gridfile>
glide-grid_3cjo

> <i_i_glide_lignum>
1158

> <i_i_glide_rotatable_bonds>
4

> <r_i_docking_score>
-6.80516496716531

> <r_i_glide_ligand_efficiency>
-0.243041605970189

> <r_i_glide_ligand_efficiency_sa>
-0.738017459576286

> <r_i_glide_ligand_efficiency_ln>
-1.5708318827474

> <r_i_glide_gscore>
-6.80516496716531

> <r_i_glide_lipo>
-2.85574541846408

> <r_i_glide_hbond>
0

> <r_i_glide_metal>
0

> <r_i_glide_rewards>
-2.09326149623578

> <r_i_glide_evdw>
-37.2033920288086

> <r_i_glide_ecoul>
-1.58155024051666

> <r_i_glide_erotb>
0.241244085052481

> <r_i_glide_esite>
0

> <r_i_glide_emodel>
-52.7233951124305

> <r_i_glide_energy>
-38.7849422693253

> <r_i_glide_einternal>
2.06203317642212

> <i_i_glide_confnum>
10

> <i_i_glide_posenum>
114

> <r_i_glide_eff_state_penalty>
0

> <s_user_duplicate_titles>
CHEMBL4581_lig775,CHEMBL4581_lig778

> <s_m_subgroup_title>
dock_pv

> <s_m_subgroupid>
dock_pv

> <b_m_subgroup_collapsed>
1

$$$$
CHEMBL4581_lig594
                    3D
 Schrodinger Suite 2021-1.
 47 49  0  0  1  0            999 V2000
   16.8836   14.5121  107.3088 C   0  0  0  0  0  0
   17.6369   14.6383  108.6710 C   0  0  2  0  0  0
   17.1853   15.9139  109.4523 C   0  0  0  0  0  0
   18.0683   16.9312  109.8476 C   0  0  0  0  0  0
   17.6167   18.0424  110.5524 C   0  0  0  0  0  0
   16.2672   18.1566  110.8641 C   0  0  0  0  0  0
   15.3704   17.1612  110.4918 C   0  0  0  0  0  0
   15.8293   16.0465  109.7954 C   0  0  0  0  0  0
   19.4459   14.5745  108.2736 S   0  0  0  0  0  0
   19.7968   15.9245  107.1019 C   0  0  0  0  0  0
   20.8755   15.5699  106.0686 C   0  0  0  0  0  0
   17.3327   13.3828  109.5753 C   0  0  0  0  0  0
   17.7677   13.3472  111.0516 C   0  0  0  0  0  0
   17.1181   12.4354  111.8880 C   0  0  0  0  0  0
   17.4418   12.3618  113.2389 C   0  0  0  0  0  0
   18.4451   13.1712  113.7576 C   0  0  0  0  0  0
   19.1167   14.0710  112.9351 C   0  0  0  0  0  0
   18.7822   14.1550  111.5854 C   0  0  0  0  0  0
   21.3093   16.7620  105.3592 N   0  0  0  0  0  0
   16.3547   15.6429  106.6588 C   0  0  0  0  0  0
   15.6976   15.5296  105.4366 C   0  0  0  0  0  0
   16.0500   13.1441  105.4740 C   0  0  0  0  0  0
   16.7179   13.2626  106.6885 C   0  0  0  0  0  0
   15.5502   14.2789  104.8456 C   0  0  0  0  0  0
   14.7587   14.1341  103.3194 Cl  0  0  0  0  0  0
   19.1179   16.8779  109.6333 H   0  0  0  0  0  0
   18.3118   18.8132  110.8536 H   0  0  0  0  0  0
   15.9156   19.0235  111.4042 H   0  0  0  0  0  0
   14.3239   17.2562  110.7404 H   0  0  0  0  0  0
   15.1199   15.2840  109.5085 H   0  0  0  0  0  0
   18.8934   16.2581  106.5990 H   0  0  0  0  0  0
   20.1430   16.7693  107.6909 H   0  0  0  0  0  0
   21.7417   15.1242  106.5596 H   0  0  0  0  0  0
   20.4950   14.8298  105.3622 H   0  0  0  0  0  0
   16.2545   13.2121  109.5609 H   0  0  0  0  0  0
   17.7695   12.4869  109.1351 H   0  0  0  0  0  0
   16.3421   11.7926  111.4968 H   0  0  0  0  0  0
   16.9126   11.6703  113.8773 H   0  0  0  0  0  0
   18.7017   13.1011  114.8047 H   0  0  0  0  0  0
   19.8980   14.6978  113.3399 H   0  0  0  0  0  0
   19.3280   14.8523  110.9734 H   0  0  0  0  0  0
   21.9539   16.5046  104.6238 H   0  0  0  0  0  0
   20.5209   17.2029  104.9072 H   0  0  0  0  0  0
   16.4644   16.6290  107.0854 H   0  0  0  0  0  0
   15.3096   16.4112  104.9475 H   0  0  0  0  0  0
   15.9476   12.1727  105.0141 H   0  0  0  0  0  0
   17.1175   12.3619  107.1239 H   0  0  0  0  0  0
  1 20  2  0  0  0
  1  2  1  0  0  0
  1 23  1  0  0  0
  2  9  1  0  0  0
  2  3  1  0  0  0
  2 12  1  0  0  0
  3  4  2  0  0  0
  3  8  1  0  0  0
  4  5  1  0  0  0
  4 26  1  0  0  0
  5  6  2  0  0  0
  5 27  1  0  0  0
  6  7  1  0  0  0
  6 28  1  0  0  0
  7  8  2  0  0  0
  7 29  1  0  0  0
  8 30  1  0  0  0
  9 10  1  0  0  0
 10 11  1  0  0  0
 10 31  1  0  0  0
 10 32  1  0  0  0
 11 19  1  0  0  0
 11 33  1  0  0  0
 11 34  1  0  0  0
 12 13  1  0  0  0
 12 35  1  0  0  0
 12 36  1  0  0  0
 13 14  2  0  0  0
 13 18  1  0  0  0
 14 15  1  0  0  0
 14 37  1  0  0  0
 15 16  2  0  0  0
 15 38  1  0  0  0
 16 17  1  0  0  0
 16 39  1  0  0  0
 17 18  2  0  0  0
 17 40  1  0  0  0
 18 41  1  0  0  0
 19 42  1  0  0  0
 19 43  1  0  0  0
 20 21  1  0  0  0
 20 44  1  0  0  0
 21 24  2  0  0  0
 21 45  1  0  0  0
 22 24  1  0  0  0
 22 23  2  0  0  0
 22 46  1  0  0  0
 23 47  1  0  0  0
 24 25  1  0  0  0
M  END
> <s_m_entry_id>
571

> <s_m_entry_name>
dock_pv.570

> <s_m_Source_Path>
/home/csk/Desktop/cluster/DUD-E-result/kif11

> <s_m_Source_File>
dock_pv.maegz

> <i_m_Source_File_Index>
570

> <chembl_id>
CHEMBL2043408

> <chembl_pref_name>
None

> <i_lp_mmshare_version>
53161

> <i_f3d_flags>
0

> <r_lp_tautomer_probability>
1

> <s_lp_Force_Field>
OPLS_2005

> <r_lp_Energy>
23.66097

> <b_lp_Chiralities_Consistent>
1

> <s_lp_Variant>
CHEMBL4581_lig594-2

> <s_i_glide_gridfile>
glide-grid_3cjo

> <i_i_glide_lignum>
913

> <i_i_glide_rotatable_bonds>
7

> <r_i_docking_score>
-6.80482206379212

> <r_i_glide_ligand_efficiency>
-0.272192882551685

> <r_i_glide_ligand_efficiency_sa>
-0.795896815942453

> <r_i_glide_ligand_efficiency_ln>
-1.61294675318032

> <r_i_glide_gscore>
-6.80482206379212

> <r_i_glide_lipo>
-4.13835912827719

> <r_i_glide_hbond>
0

> <r_i_glide_metal>
0

> <r_i_glide_rewards>
-0.985230576868868

> <r_i_glide_evdw>
-42.2979125976562

> <r_i_glide_ecoul>
-2.80095791816711

> <r_i_glide_erotb>
0.853806958961816

> <r_i_glide_esite>
0

> <r_i_glide_emodel>
-59.8333016323008

> <r_i_glide_energy>
-45.0988705158234

> <r_i_glide_einternal>
8.13412284851074

> <i_i_glide_confnum>
95

> <i_i_glide_posenum>
377

> <r_i_glide_eff_state_penalty>
0

> <s_user_duplicate_titles>
CHEMBL4581_lig594

> <s_m_subgroup_title>
dock_pv

> <s_m_subgroupid>
dock_pv

> <b_m_subgroup_collapsed>
1

$$$$
591141
                    3D
 Schrodinger Suite 2021-1.
 47 50  0  0  1  0            999 V2000
   19.0578   13.9620  113.3119 C   0  0  0  0  0  0
   18.8493   14.3238  111.9786 C   0  0  0  0  0  0
   17.8479   13.6903  111.2308 C   0  0  0  0  0  0
   17.1050   12.6706  111.8149 C   0  0  0  0  0  0
   17.2421   12.3752  113.1640 C   0  0  0  0  0  0
   18.2410   12.9981  113.9100 C   0  0  0  0  0  0
   16.3180   11.5620  113.7590 O   0  0  0  0  0  0
   17.4643   14.1210  109.8228 C   0  0  2  0  0  0
   18.6373   14.4835  108.9292 C   0  0  0  0  0  0
   18.8367   15.7202  108.3332 C   0  0  0  0  0  0
   19.9653   15.5620  107.4789 C   0  0  0  0  0  0
   20.6270   16.4208  106.6082 C   0  0  0  0  0  0
   21.8003   15.9941  106.0148 C   0  0  0  0  0  0
   22.2632   14.6887  106.1587 C   0  0  0  0  0  0
   21.5976   13.7711  106.9708 C   0  0  0  0  0  0
   20.4713   14.2407  107.6583 C   0  0  0  0  0  0
   19.6341   13.6211  108.5591 N   0  0  0  0  0  0
   22.7180   17.1620  105.1801 Cl  0  0  0  0  0  0
   17.9505   16.9348  108.6092 C   0  0  0  0  0  0
   17.1090   16.6181  109.8631 C   0  0  0  0  0  0
   16.4921   15.2647  109.7901 N   0  0  1  0  0  0
   15.1136   15.0787  108.6825 S   0  0  0  0  0  0
   14.3180   13.9620  109.1949 O   0  0  0  0  0  0
   14.4909   16.3934  108.4959 O   0  0  0  0  0  0
   15.8600   14.5130  107.0254 C   0  0  0  0  0  0
   14.7770   14.1163  106.0119 C   0  0  0  0  0  0
   14.0760   12.9229  106.4471 N   0  0  0  0  0  0
   19.6754   12.6694  108.8973 H   0  0  0  0  0  0
   19.8249   14.4551  113.8907 H   0  0  0  0  0  0
   19.4481   15.1090  111.5397 H   0  0  0  0  0  0
   16.3180   12.1917  111.2500 H   0  0  0  0  0  0
   18.3568   12.7620  114.9584 H   0  0  0  0  0  0
   15.6611   11.1959  113.1488 H   0  0  0  0  0  0
   16.9629   13.2591  109.3800 H   0  0  0  0  0  0
   20.2828   17.4347  106.4731 H   0  0  0  0  0  0
   23.1727   14.3907  105.6567 H   0  0  0  0  0  0
   21.9655   12.7620  107.0884 H   0  0  0  0  0  0
   18.5552   17.8242  108.7897 H   0  0  0  0  0  0
   17.3087   17.1620  107.7590 H   0  0  0  0  0  0
   17.8086   16.5899  110.6990 H   0  0  0  0  0  0
   16.3603   17.3588  110.1466 H   0  0  0  0  0  0
   16.4568   15.3377  106.6426 H   0  0  0  0  0  0
   16.5427   13.6856  107.2089 H   0  0  0  0  0  0
   14.0657   14.9323  105.8729 H   0  0  0  0  0  0
   15.2285   13.9230  105.0374 H   0  0  0  0  0  0
   14.7168   12.1441  106.5589 H   0  0  0  0  0  0
   13.6821   13.0841  107.3665 H   0  0  0  0  0  0
  1  6  1  0  0  0
  1  2  2  0  0  0
  1 29  1  0  0  0
  2  3  1  0  0  0
  2 30  1  0  0  0
  3  4  2  0  0  0
  3  8  1  0  0  0
  4  5  1  0  0  0
  4 31  1  0  0  0
  5  6  2  0  0  0
  5  7  1  0  0  0
  6 32  1  0  0  0
  7 33  1  0  0  0
  8 21  1  0  0  0
  8  9  1  0  0  0
  8 34  1  0  0  0
  9 17  1  0  0  0
  9 10  2  0  0  0
 10 11  1  0  0  0
 10 19  1  0  0  0
 11 16  2  0  0  0
 11 12  1  0  0  0
 12 13  2  0  0  0
 12 35  1  0  0  0
 13 14  1  0  0  0
 13 18  1  0  0  0
 14 15  2  0  0  0
 14 36  1  0  0  0
 15 16  1  0  0  0
 15 37  1  0  0  0
 16 17  1  0  0  0
 17 28  1  0  0  0
 19 20  1  0  0  0
 19 38  1  0  0  0
 19 39  1  0  0  0
 20 21  1  0  0  0
 20 40  1  0  0  0
 20 41  1  0  0  0
 21 22  1  0  0  0
 22 23  2  0  0  0
 22 24  2  0  0  0
 22 25  1  0  0  0
 25 26  1  0  0  0
 25 42  1  0  0  0
 25 43  1  0  0  0
 26 27  1  0  0  0
 26 44  1  0  0  0
 26 45  1  0  0  0
 27 46  1  0  0  0
 27 47  1  0  0  0
M  END
> <s_m_entry_id>
1224

> <s_m_entry_name>
ligand_docking-pose.36

> <s_m_Source_Path>
/home/csk/Desktop/cluster/DUD-E-result/kif11

> <s_m_Source_File>
ligand_docking-pose.sdf

> <i_m_Source_File_Index>
36

> <i_lp_mmshare_version>
53161

> <r_lp_tautomer_probability>
0.999999999997365

> <s_lp_Force_Field>
OPLS_2005

> <r_lp_Energy>
13.643643

> <b_lp_Chiralities_Consistent>
1

> <s_lp_Variant>
591141-1

> <s_i_glide_gridfile>
glide-grid_3cjo

> <i_i_glide_lignum>
92

> <i_i_glide_rotatable_bonds>
5

> <r_i_docking_score>
-8.87578009079594

> <r_i_glide_ligand_efficiency>
-0.328732595955405

> <r_i_glide_ligand_efficiency_sa>
-0.986197786782766

> <r_i_glide_ligand_efficiency_ln>
-2.06613527646629

> <r_i_glide_gscore>
-8.87578009079594

> <r_i_glide_lipo>
-4.62256996371447

> <r_i_glide_hbond>
-0.514730427235339

> <r_i_glide_metal>
0

> <r_i_glide_rewards>
-1.02656636935111

> <r_i_glide_evdw>
-36.3311576843262

> <r_i_glide_ecoul>
-8.35527610778809

> <r_i_glide_erotb>
0.357935969889503

> <r_i_glide_esite>
0

> <r_i_glide_emodel>
-64.4943226206943

> <r_i_glide_energy>
-44.6864337921143

> <r_i_glide_einternal>
3.26289439201355

> <i_i_glide_confnum>
15

> <i_i_glide_posenum>
117

> <r_i_glide_eff_state_penalty>
0

> <i_f3d_flags>
0

> <s_user_duplicate_titles>
591141

> <s_m_subgroup_title>
dock_pv

> <s_m_subgroupid>
dock_pv1

> <b_m_subgroup_collapsed>
0

$$$$
616212
                    3D
 Schrodinger Suite 2021-1.
 42 45  0  0  1  0            999 V2000
   17.8601   12.4751  114.0018 C   0  0  0  0  0  0
   18.8198   13.4486  113.7552 C   0  0  0  0  0  0
   18.9573   13.9629  112.4710 C   0  0  0  0  0  0
   18.1446   13.4880  111.4328 C   0  0  0  0  0  0
   17.2138   12.4749  111.6832 C   0  0  0  0  0  0
   17.0764   11.9645  112.9710 C   0  0  0  0  0  0
   18.2822   14.0593  110.0233 C   0  0  1  0  0  0
   18.2029   15.6184  109.9782 C   0  0  2  0  0  0
   16.8994   16.2083  110.5685 C   0  0  0  0  0  0
   15.6912   15.9448  109.6505 C   0  0  0  0  0  0
   15.9947   16.3935  108.2071 C   0  0  0  0  0  0
   17.2084   15.8000  107.7501 O   0  0  0  0  0  0
   18.3537   16.1445  108.5325 C   0  0  2  0  0  0
   19.5586   15.5103  107.8607 C   0  0  0  0  0  0
   20.1960   16.1497  106.7941 C   0  0  0  0  0  0
   21.3122   15.5883  106.1711 C   0  0  0  0  0  0
   21.7462   14.3188  106.5576 C   0  0  0  0  0  0
   21.1331   13.6729  107.6305 C   0  0  0  0  0  0
   20.0591   14.2665  108.2893 C   0  0  0  0  0  0
   19.5035   13.5750  109.3793 N   0  0  0  0  0  0
   22.0830   16.3842  105.1340 C   0  0  0  0  0  0
   21.2737   17.1639  104.4191 F   0  0  0  0  0  0
   22.9799   17.1498  105.7587 F   0  0  0  0  0  0
   22.7199   15.5619  104.3104 F   0  0  0  0  0  0
   17.4525   13.6593  109.4373 H   0  0  0  0  0  0
   19.0398   16.0326  110.5435 H   0  0  0  0  0  0
   18.4810   17.2305  108.5524 H   0  0  0  0  0  0
   17.7335   12.1048  115.0077 H   0  0  0  0  0  0
   19.4598   13.7925  114.5555 H   0  0  0  0  0  0
   19.7032   14.7215  112.2838 H   0  0  0  0  0  0
   16.5911   12.0872  110.8888 H   0  0  0  0  0  0
   16.3360   11.2032  113.1824 H   0  0  0  0  0  0
   16.7106   15.8056  111.5627 H   0  0  0  0  0  0
   17.0184   17.2851  110.7039 H   0  0  0  0  0  0
   15.4420   14.8827  109.6601 H   0  0  0  0  0  0
   14.8121   16.4685  110.0272 H   0  0  0  0  0  0
   15.1865   16.0880  107.5429 H   0  0  0  0  0  0
   16.0587   17.4812  108.1399 H   0  0  0  0  0  0
   19.8504   17.1270  106.4871 H   0  0  0  0  0  0
   22.5936   13.8509  106.0784 H   0  0  0  0  0  0
   21.5077   12.7118  107.9497 H   0  0  0  0  0  0
   19.6731   12.5851  109.5026 H   0  0  0  0  0  0
  1  6  1  0  0  0
  1  2  2  0  0  0
  1 28  1  0  0  0
  2  3  1  0  0  0
  2 29  1  0  0  0
  3  4  2  0  0  0
  3 30  1  0  0  0
  4  5  1  0  0  0
  4  7  1  0  0  0
  5  6  2  0  0  0
  5 31  1  0  0  0
  6 32  1  0  0  0
  7 25  1  0  0  0
  7 20  1  0  0  0
  7  8  1  0  0  0
  8 26  1  0  0  0
  8 13  1  0  0  0
  8  9  1  0  0  0
  9 10  1  0  0  0
  9 33  1  0  0  0
  9 34  1  0  0  0
 10 11  1  0  0  0
 10 35  1  0  0  0
 10 36  1  0  0  0
 11 12  1  0  0  0
 11 37  1  0  0  0
 11 38  1  0  0  0
 12 13  1  0  0  0
 13 27  1  0  0  0
 13 14  1  0  0  0
 14 19  2  0  0  0
 14 15  1  0  0  0
 15 16  2  0  0  0
 15 39  1  0  0  0
 16 17  1  0  0  0
 16 21  1  0  0  0
 17 18  2  0  0  0
 17 40  1  0  0  0
 18 19  1  0  0  0
 18 41  1  0  0  0
 19 20  1  0  0  0
 20 42  1  0  0  0
 21 22  1  0  0  0
 21 23  1  0  0  0
 21 24  1  0  0  0
M  END
> <s_m_entry_id>
1232

> <s_m_entry_name>
ligand_docking-pose.44

> <s_m_Source_Path>
/home/csk/Desktop/cluster/DUD-E-result/kif11

> <s_m_Source_File>
ligand_docking-pose.sdf

> <i_m_Source_File_Index>
44

> <i_lp_mmshare_version>
53161

> <r_lp_tautomer_probability>
1

> <s_lp_Force_Field>
OPLS_2005

> <r_lp_Energy>
25.855438

> <b_lp_Chiralities_Consistent>
1

> <s_lp_Variant>
616212-1

> <s_i_glide_gridfile>
glide-grid_3cjo

> <i_i_glide_lignum>
68

> <i_i_glide_rotatable_bonds>
2

> <r_i_docking_score>
-8.76362940470668

> <r_i_glide_ligand_efficiency>
-0.365151225196112

> <r_i_glide_ligand_efficiency_sa>
-1.05327839415684

> <r_i_glide_ligand_efficiency_ln>
-2.09753865329611

> <r_i_glide_gscore>
-8.76362940470668

> <r_i_glide_lipo>
-4.68079842824538

> <r_i_glide_hbond>
-0.0610130542258017

> <r_i_glide_metal>
0

> <r_i_glide_rewards>
-2.26085110545219

> <r_i_glide_evdw>
-35.3283309936523

> <r_i_glide_ecoul>
-1.09435248374939

> <r_i_glide_erotb>
0.169602605461719

> <r_i_glide_esite>
0

> <r_i_glide_emodel>
-52.8295640375448

> <r_i_glide_energy>
-36.4226834774017

> <r_i_glide_einternal>
0.603072643280029

> <i_i_glide_confnum>
2

> <i_i_glide_posenum>
195

> <r_i_glide_eff_state_penalty>
0

> <i_f3d_flags>
0

> <s_user_duplicate_titles>
616212

> <s_m_subgroup_title>
dock_pv

> <s_m_subgroupid>
dock_pv1

> <b_m_subgroup_collapsed>
0

$$$$
414281
                    3D
 Schrodinger Suite 2021-1.
 58 61  0  0  1  0            999 V2000
   21.6819   17.4135  104.5677 C   0  0  0  0  0  0
   21.4850   16.2023  105.4418 C   0  0  0  0  0  0
   22.4728   15.2222  105.5613 C   0  0  0  0  0  0
   22.2891   14.1556  106.4404 C   0  0  0  0  0  0
   21.1322   14.0921  107.2177 C   0  0  0  0  0  0
   20.0964   15.0226  107.0381 C   0  0  0  0  0  0
   20.2928   16.0863  106.1548 C   0  0  0  0  0  0
   18.8953   14.8451  107.7402 N   0  0  0  0  0  0
   18.7110   13.7128  108.6356 C   0  0  1  0  0  0
   20.1073   13.2771  109.1814 C   0  0  0  0  0  0
   21.0936   13.0858  108.1590 O   0  0  0  0  0  0
   17.6201   14.1855  109.6379 C   0  0  1  0  0  0
   17.6497   15.6964  109.3186 C   0  0  0  0  0  0
   18.3604   16.0100  108.3125 N   0  0  0  0  0  0
   16.9110   16.7047  110.0836 C   0  0  0  0  0  0
   16.0980   16.4094  110.9590 O   0  0  0  0  0  0
   17.1864   18.1837  109.7951 C   0  0  0  0  0  0
   16.2306   13.5381  109.2485 C   0  0  0  0  0  0
   15.6171   13.7731  107.8339 C   0  0  0  0  0  0
   14.9115   15.1249  107.5616 C   0  0  0  0  0  0
   13.8985   15.4778  108.5617 N   0  0  0  0  0  0
   13.4512   16.8522  108.3582 C   0  0  0  0  0  0
   12.7443   14.5820  108.5290 C   0  0  0  0  0  0
   17.9912   13.8548  111.1229 C   0  0  0  0  0  0
   17.4781   12.7131  111.7628 C   0  0  0  0  0  0
   17.8161   12.4183  113.0759 C   0  0  0  0  0  0
   18.7067   13.2329  113.7592 C   0  0  0  0  0  0
   19.2446   14.3597  113.1514 C   0  0  0  0  0  0
   18.8860   14.6702  111.8455 C   0  0  0  0  0  0
   18.3180   12.8667  108.0703 H   0  0  0  0  0  0
   22.7180   17.5637  104.2770 H   0  0  0  0  0  0
   21.0528   17.3663  103.6826 H   0  0  0  0  0  0
   21.3699   18.2745  105.1539 H   0  0  0  0  0  0
   23.3890   15.2951  104.9956 H   0  0  0  0  0  0
   23.0635   13.4120  106.5567 H   0  0  0  0  0  0
   19.5211   16.8335  106.0338 H   0  0  0  0  0  0
   20.4889   14.0409  109.8492 H   0  0  0  0  0  0
   20.0103   12.3616  109.7573 H   0  0  0  0  0  0
   16.9391   18.4243  108.7607 H   0  0  0  0  0  0
   16.5856   18.8168  110.4481 H   0  0  0  0  0  0
   18.2377   18.4187  109.9654 H   0  0  0  0  0  0
   16.3377   12.4554  109.3075 H   0  0  0  0  0  0
   15.4820   13.7909  110.0011 H   0  0  0  0  0  0
   16.3972   13.6527  107.0829 H   0  0  0  0  0  0
   14.9253   12.9645  107.5919 H   0  0  0  0  0  0
   15.6566   15.9166  107.5031 H   0  0  0  0  0  0
   14.4441   15.0925  106.5744 H   0  0  0  0  0  0
   12.7297   17.1418  109.1234 H   0  0  0  0  0  0
   14.2902   17.5450  108.4292 H   0  0  0  0  0  0
   12.9855   16.9834  107.3806 H   0  0  0  0  0  0
   12.0061   14.8743  109.2773 H   0  0  0  0  0  0
   12.2582   14.5831  107.5505 H   0  0  0  0  0  0
   13.0385   13.5613  108.7608 H   0  0  0  0  0  0
   16.8012   12.0309  111.2760 H   0  0  0  0  0  0
   17.3809   11.5619  113.5633 H   0  0  0  0  0  0
   18.9753   12.9907  114.7773 H   0  0  0  0  0  0
   19.9430   14.9835  113.6879 H   0  0  0  0  0  0
   19.3318   15.5457  111.3944 H   0  0  0  0  0  0
  1  2  1  0  0  0
  1 31  1  0  0  0
  1 32  1  0  0  0
  1 33  1  0  0  0
  2  7  1  0  0  0
  2  3  2  0  0  0
  3  4  1  0  0  0
  3 34  1  0  0  0
  4  5  2  0  0  0
  4 35  1  0  0  0
  5 11  1  0  0  0
  5  6  1  0  0  0
  6  7  2  0  0  0
  6  8  1  0  0  0
  7 36  1  0  0  0
  8 14  1  0  0  0
  8  9  1  0  0  0
  9 30  1  0  0  0
  9 10  1  0  0  0
  9 12  1  0  0  0
 10 11  1  0  0  0
 10 37  1  0  0  0
 10 38  1  0  0  0
 12 13  1  0  0  0
 12 18  1  0  0  0
 12 24  1  0  0  0
 13 14  2  0  0  0
 13 15  1  0  0  0
 15 16  2  0  0  0
 15 17  1  0  0  0
 17 39  1  0  0  0
 17 40  1  0  0  0
 17 41  1  0  0  0
 18 19  1  0  0  0
 18 42  1  0  0  0
 18 43  1  0  0  0
 19 20  1  0  0  0
 19 44  1  0  0  0
 19 45  1  0  0  0
 20 21  1  0  0  0
 20 46  1  0  0  0
 20 47  1  0  0  0
 21 22  1  0  0  0
 21 23  1  0  0  0
 22 48  1  0  0  0
 22 49  1  0  0  0
 22 50  1  0  0  0
 23 51  1  0  0  0
 23 52  1  0  0  0
 23 53  1  0  0  0
 24 29  1  0  0  0
 24 25  2  0  0  0
 25 26  1  0  0  0
 25 54  1  0  0  0
 26 27  2  0  0  0
 26 55  1  0  0  0
 27 28  1  0  0  0
 27 56  1  0  0  0
 28 29  2  0  0  0
 28 57  1  0  0  0
 29 58  1  0  0  0
M  END
> <s_m_entry_id>
1255

> <s_m_entry_name>
ligand_docking-pose.67

> <s_m_Source_Path>
/home/csk/Desktop/cluster/DUD-E-result/kif11

> <s_m_Source_File>
ligand_docking-pose.sdf

> <i_m_Source_File_Index>
67

> <i_lp_mmshare_version>
53161

> <r_lp_tautomer_probability>
1

> <s_lp_Force_Field>
OPLS_2005

> <r_lp_Energy>
43.939077

> <b_lp_Chiralities_Consistent>
1

> <s_lp_Variant>
414281-1

> <s_i_glide_gridfile>
glide-grid_3cjo

> <i_i_glide_lignum>
143

> <i_i_glide_rotatable_bonds>
6

> <r_i_docking_score>
-8.53156336422585

> <r_i_glide_ligand_efficiency>
-0.294191840145719

> <r_i_glide_ligand_efficiency_sa>
-0.903850539444663

> <r_i_glide_ligand_efficiency_ln>
-1.95351166862728

> <r_i_glide_gscore>
-8.53156336422585

> <r_i_glide_lipo>
-5.19963998557925

> <r_i_glide_hbond>
0

> <r_i_glide_metal>
0

> <r_i_glide_rewards>
-1.42104938032319

> <r_i_glide_evdw>
-43.8152122497559

> <r_i_glide_ecoul>
-1.5293071269989

> <r_i_glide_erotb>
0.509282683214223

> <r_i_glide_esite>
0

> <r_i_glide_emodel>
-65.5866289916259

> <r_i_glide_energy>
-45.3445193767548

> <r_i_glide_einternal>
1.13623988628387

> <i_i_glide_confnum>
28

> <i_i_glide_posenum>
300

> <r_i_glide_eff_state_penalty>
0

> <i_f3d_flags>
0

> <s_user_duplicate_titles>
414281

> <s_m_subgroup_title>
dock_pv

> <s_m_subgroupid>
dock_pv1

> <b_m_subgroup_collapsed>
0

$$$$
615816
                    3D
 Schrodinger Suite 2021-1.
 56 59  0  0  1  0            999 V2000
   22.7118   15.1539  104.5590 C   0  0  0  0  0  0
   21.9204   16.1630  105.4114 C   0  0  0  0  0  0
   22.9552   17.1453  105.9653 C   0  0  0  0  0  0
   20.9369   17.0018  104.5590 C   0  0  0  0  0  0
   21.1627   15.4276  106.5420 C   0  0  0  0  0  0
   21.5261   14.1361  106.9590 C   0  0  0  0  0  0
   20.9525   13.5620  108.0847 C   0  0  0  0  0  0
   19.9309   14.2232  108.7508 C   0  0  0  0  0  0
   19.4718   15.4749  108.3025 C   0  0  0  0  0  0
   20.0993   16.0532  107.2007 C   0  0  0  0  0  0
   18.3096   16.1750  108.9850 C   0  0  2  0  0  0
   18.1432   15.6484  110.4237 C   0  0  1  0  0  0
   16.9013   16.3296  111.0277 C   0  0  0  0  0  0
   15.6511   16.1150  110.1621 C   0  0  0  0  0  0
   15.9122   16.4416  108.6689 C   0  0  1  0  0  0
   17.1483   15.8915  108.2007 O   0  0  0  0  0  0
   14.7299   16.0700  107.7363 C   0  0  0  0  0  0
   14.2653   14.6823  107.8115 N   0  0  2  0  0  0
   15.2273   13.7242  107.2837 C   0  0  0  0  0  0
   18.1201   14.0905  110.4230 C   0  0  1  0  0  0
   19.3524   13.5679  109.8446 N   0  0  0  0  0  0
   17.8946   13.4277  111.7585 C   0  0  0  0  0  0
   17.1180   12.3076  112.0139 C   0  0  0  0  0  0
   17.0264   11.9620  113.3590 C   0  0  0  0  0  0
   17.8130   12.7620  114.1590 C   0  0  0  0  0  0
   18.6501   13.9620  113.2392 S   0  0  0  0  0  0
   18.4866   17.2532  109.0094 H   0  0  0  0  0  0
   19.0104   15.9839  110.9967 H   0  0  0  0  0  0
   16.0137   17.5253  108.5821 H   0  0  0  0  0  0
   17.3184   13.7666  109.7588 H   0  0  0  0  0  0
   22.0591   14.3620  104.2460 H   0  0  0  0  0  0
   23.1180   15.5620  103.6542 H   0  0  0  0  0  0
   23.5490   14.7064  105.0957 H   0  0  0  0  0  0
   22.4620   17.9038  106.5589 H   0  0  0  0  0  0
   23.6993   16.6256  106.5590 H   0  0  0  0  0  0
   23.4889   17.6713  105.1739 H   0  0  0  0  0  0
   20.7180   17.9620  105.0249 H   0  0  0  0  0  0
   21.3333   17.2200  103.5667 H   0  0  0  0  0  0
   19.9701   16.5112  104.4620 H   0  0  0  0  0  0
   22.3151   13.5783  106.4806 H   0  0  0  0  0  0
   21.2838   12.5889  108.4106 H   0  0  0  0  0  0
   19.7714   17.0349  106.8924 H   0  0  0  0  0  0
   16.7180   15.9476  112.0266 H   0  0  0  0  0  0
   17.0850   17.4003  111.1378 H   0  0  0  0  0  0
   15.3152   15.0821  110.2577 H   0  0  0  0  0  0
   14.8340   16.7308  110.5397 H   0  0  0  0  0  0
   13.8807   16.6995  108.0052 H   0  0  0  0  0  0
   14.9691   16.3248  106.7025 H   0  0  0  0  0  0
   13.3722   14.5760  107.3493 H   0  0  0  0  0  0
   14.7765   12.7327  107.2625 H   0  0  0  0  0  0
   15.5267   13.9753  106.2651 H   0  0  0  0  0  0
   16.1181   13.6599  107.9068 H   0  0  0  0  0  0
   19.4929   12.5750  109.9701 H   0  0  0  0  0  0
   16.5757   11.7835  111.2397 H   0  0  0  0  0  0
   16.4005   11.1620  113.7274 H   0  0  0  0  0  0
   17.9254   12.7085  115.2311 H   0  0  0  0  0  0
  1  2  1  0  0  0
  1 31  1  0  0  0
  1 32  1  0  0  0
  1 33  1  0  0  0
  2  3  1  0  0  0
  2  4  1  0  0  0
  2  5  1  0  0  0
  3 34  1  0  0  0
  3 35  1  0  0  0
  3 36  1  0  0  0
  4 37  1  0  0  0
  4 38  1  0  0  0
  4 39  1  0  0  0
  5 10  1  0  0  0
  5  6  2  0  0  0
  6  7  1  0  0  0
  6 40  1  0  0  0
  7  8  2  0  0  0
  7 41  1  0  0  0
  8 21  1  0  0  0
  8  9  1  0  0  0
  9 10  2  0  0  0
  9 11  1  0  0  0
 10 42  1  0  0  0
 11 27  1  0  0  0
 11 16  1  0  0  0
 11 12  1  0  0  0
 12 28  1  0  0  0
 12 13  1  0  0  0
 12 20  1  0  0  0
 13 14  1  0  0  0
 13 43  1  0  0  0
 13 44  1  0  0  0
 14 15  1  0  0  0
 14 45  1  0  0  0
 14 46  1  0  0  0
 15 29  1  0  0  0
 15 16  1  0  0  0
 15 17  1  0  0  0
 17 18  1  0  0  0
 17 47  1  0  0  0
 17 48  1  0  0  0
 18 19  1  0  0  0
 18 49  1  0  0  0
 19 50  1  0  0  0
 19 51  1  0  0  0
 19 52  1  0  0  0
 20 30  1  0  0  0
 20 21  1  0  0  0
 20 22  1  0  0  0
 21 53  1  0  0  0
 22 26  1  0  0  0
 22 23  2  0  0  0
 23 24  1  0  0  0
 23 54  1  0  0  0
 24 25  2  0  0  0
 24 55  1  0  0  0
 25 26  1  0  0  0
 25 56  1  0  0  0
M  END
> <s_m_entry_id>
1287

> <s_m_entry_name>
ligand_docking-pose.99

> <s_m_Source_Path>
/home/csk/Desktop/cluster/DUD-E-result/kif11

> <s_m_Source_File>
ligand_docking-pose.sdf

> <i_m_Source_File_Index>
99

> <i_lp_mmshare_version>
53161

> <r_lp_tautomer_probability>
1

> <s_lp_Force_Field>
OPLS_2005

> <r_lp_Energy>
25.845099

> <b_lp_Chiralities_Consistent>
1

> <s_lp_Variant>
615816-1

> <s_i_glide_gridfile>
glide-grid_3cjo

> <i_i_glide_lignum>
195

> <i_i_glide_rotatable_bonds>
4

> <r_i_docking_score>
-7.88891975732768

> <r_i_glide_ligand_efficiency>
-0.303419990666449

> <r_i_glide_ligand_efficiency_sa>
-0.898880528449344

> <r_i_glide_ligand_efficiency_ln>
-1.85268691935135

> <r_i_glide_gscore>
-7.88891975732768

> <r_i_glide_lipo>
-5.15822934914289

> <r_i_glide_hbond>
-0.0611620516967411

> <r_i_glide_metal>
0

> <r_i_glide_rewards>
-0.990930606060605

> <r_i_glide_evdw>
-31.239429473877

> <r_i_glide_ecoul>
-2.6509804725647

> <r_i_glide_erotb>
0.281020794151106

> <r_i_glide_esite>
0

> <r_i_glide_emodel>
-48.272706256049

> <r_i_glide_energy>
-33.8904099464417

> <r_i_glide_einternal>
3.09379553794861

> <i_i_glide_confnum>
3

> <i_i_glide_posenum>
22

> <r_i_glide_eff_state_penalty>
0

> <i_f3d_flags>
0

> <s_user_duplicate_titles>
615816

> <s_m_subgroup_title>
dock_pv

> <s_m_subgroupid>
dock_pv1

> <b_m_subgroup_collapsed>
0

$$$$
615738
                    3D
 Schrodinger Suite 2021-1.
 65 69  0  0  1  0            999 V2000
   17.9085   12.6092  113.9383 C   0  0  0  0  0  0
   18.8977   13.5625  113.7402 C   0  0  0  0  0  0
   19.0880   14.1148  112.4816 C   0  0  0  0  0  0
   18.2735   13.7173  111.4154 C   0  0  0  0  0  0
   17.2936   12.7422  111.6127 C   0  0  0  0  0  0
   17.1180   12.1875  112.8763 C   0  0  0  0  0  0
   18.4673   14.3173  110.0290 C   0  0  1  0  0  0
   18.6792   15.8609  110.0218 C   0  0  2  0  0  0
   17.5929   16.6733  110.7558 C   0  0  0  0  0  0
   16.2741   16.6773  109.9786 C   0  0  0  0  0  0
   16.4789   17.0510  108.4886 C   0  0  1  0  0  0
   17.5366   16.2812  107.8898 O   0  0  0  0  0  0
   18.7957   16.3757  108.5654 C   0  0  2  0  0  0
   19.8452   15.5593  107.8064 C   0  0  0  0  0  0
   20.5464   16.0993  106.7214 C   0  0  0  0  0  0
   21.6107   15.4076  106.1313 C   0  0  0  0  0  0
   21.9170   14.1138  106.5590 C   0  0  0  0  0  0
   21.2327   13.5621  107.6325 C   0  0  0  0  0  0
   20.1985   14.2665  108.2439 C   0  0  0  0  0  0
   19.5687   13.6521  109.3378 N   0  0  0  0  0  0
   22.5010   16.0818  105.1014 C   0  0  0  0  0  0
   21.8240   16.9193  104.3165 F   0  0  0  0  0  0
   23.4203   16.7874  105.7590 F   0  0  0  0  0  0
   23.1177   15.1619  104.3549 F   0  0  0  0  0  0
   15.1680   17.0136  107.6606 C   0  0  0  0  0  0
   14.5649   15.6875  107.4467 N   0  0  0  0  0  0
   13.7770   15.0720  108.5276 C   0  0  0  0  0  0
   12.3408   14.6543  108.1363 C   0  0  0  0  0  0
   12.2923   13.5620  107.1791 N   0  0  0  0  0  0
   15.0535   14.9124  106.3680 C   0  0  0  0  0  0
   15.4000   13.5642  106.5350 C   0  0  0  0  0  0
   15.8330   12.8072  105.4511 C   0  0  0  0  0  0
   15.9175   13.3932  104.1927 C   0  0  0  0  0  0
   15.5907   14.7310  104.0073 C   0  0  0  0  0  0
   15.1618   15.4867  105.0931 C   0  0  0  0  0  0
   17.5603   14.0940  109.4634 H   0  0  0  0  0  0
   19.6226   16.0833  110.5206 H   0  0  0  0  0  0
   16.7907   18.0974  108.4544 H   0  0  0  0  0  0
   19.1099   17.4209  108.5875 H   0  0  0  0  0  0
   17.7656   12.1790  114.9202 H   0  0  0  0  0  0
   19.5180   13.8734  114.5591 H   0  0  0  0  0  0
   19.8695   14.8464  112.3428 H   0  0  0  0  0  0
   16.6705   12.4108  110.7939 H   0  0  0  0  0  0
   16.3533   11.4401  113.0357 H   0  0  0  0  0  0
   17.4199   16.2816  111.7586 H   0  0  0  0  0  0
   17.9345   17.7019  110.8882 H   0  0  0  0  0  0
   15.8192   15.6927  110.0650 H   0  0  0  0  0  0
   15.5795   17.3759  110.4470 H   0  0  0  0  0  0
   20.3173   17.1063  106.3998 H   0  0  0  0  0  0
   22.7277   13.5553  106.1130 H   0  0  0  0  0  0
   21.5143   12.5801  107.9830 H   0  0  0  0  0  0
   19.6153   12.6508  109.4701 H   0  0  0  0  0  0
   14.4220   17.6568  108.1293 H   0  0  0  0  0  0
   15.3772   17.4982  106.7085 H   0  0  0  0  0  0
   14.3074   14.2224  108.9572 H   0  0  0  0  0  0
   13.6811   15.7921  109.3407 H   0  0  0  0  0  0
   11.7961   14.3471  109.0301 H   0  0  0  0  0  0
   11.8038   15.5096  107.7242 H   0  0  0  0  0  0
   12.7694   13.8510  106.3346 H   0  0  0  0  0  0
   12.8001   12.7578  107.5189 H   0  0  0  0  0  0
   15.3522   13.0870  107.5011 H   0  0  0  0  0  0
   16.1099   11.7721  105.5897 H   0  0  0  0  0  0
   16.2649   12.8044  103.3586 H   0  0  0  0  0  0
   15.6633   15.1796  103.0278 H   0  0  0  0  0  0
   14.8786   16.5135  104.9215 H   0  0  0  0  0  0
  1  6  1  0  0  0
  1  2  2  0  0  0
  1 40  1  0  0  0
  2  3  1  0  0  0
  2 41  1  0  0  0
  3  4  2  0  0  0
  3 42  1  0  0  0
  4  5  1  0  0  0
  4  7  1  0  0  0
  5  6  2  0  0  0
  5 43  1  0  0  0
  6 44  1  0  0  0
  7 36  1  0  0  0
  7 20  1  0  0  0
  7  8  1  0  0  0
  8 37  1  0  0  0
  8 13  1  0  0  0
  8  9  1  0  0  0
  9 10  1  0  0  0
  9 45  1  0  0  0
  9 46  1  0  0  0
 10 11  1  0  0  0
 10 47  1  0  0  0
 10 48  1  0  0  0
 11 38  1  0  0  0
 11 12  1  0  0  0
 11 25  1  0  0  0
 12 13  1  0  0  0
 13 39  1  0  0  0
 13 14  1  0  0  0
 14 19  2  0  0  0
 14 15  1  0  0  0
 15 16  2  0  0  0
 15 49  1  0  0  0
 16 17  1  0  0  0
 16 21  1  0  0  0
 17 18  2  0  0  0
 17 50  1  0  0  0
 18 19  1  0  0  0
 18 51  1  0  0  0
 19 20  1  0  0  0
 20 52  1  0  0  0
 21 22  1  0  0  0
 21 23  1  0  0  0
 21 24  1  0  0  0
 25 26  1  0  0  0
 25 53  1  0  0  0
 25 54  1  0  0  0
 26 27  1  0  0  0
 26 30  1  0  0  0
 27 28  1  0  0  0
 27 55  1  0  0  0
 27 56  1  0  0  0
 28 29  1  0  0  0
 28 57  1  0  0  0
 28 58  1  0  0  0
 29 59  1  0  0  0
 29 60  1  0  0  0
 30 35  1  0  0  0
 30 31  2  0  0  0
 31 32  1  0  0  0
 31 61  1  0  0  0
 32 33  2  0  0  0
 32 62  1  0  0  0
 33 34  1  0  0  0
 33 63  1  0  0  0
 34 35  2  0  0  0
 34 64  1  0  0  0
 35 65  1  0  0  0
M  END
> <s_m_entry_id>
1303

> <s_m_entry_name>
ligand_docking-pose.115

> <s_m_Source_Path>
/home/csk/Desktop/cluster/DUD-E-result/kif11

> <s_m_Source_File>
ligand_docking-pose.sdf

> <i_m_Source_File_Index>
115

> <i_lp_mmshare_version>
53161

> <r_lp_tautomer_probability>
1

> <s_lp_Force_Field>
OPLS_2005

> <r_lp_Energy>
43.124434

> <b_lp_Chiralities_Consistent>
1

> <s_lp_Variant>
615738-1

> <s_i_glide_gridfile>
glide-grid_3cjo

> <i_i_glide_lignum>
64

> <i_i_glide_rotatable_bonds>
7

> <r_i_docking_score>
-7.65908511087278

> <r_i_glide_ligand_efficiency>
-0.218831003167794

> <r_i_glide_ligand_efficiency_sa>
-0.715810721238624

> <r_i_glide_ligand_efficiency_ln>
-1.6813391660721

> <r_i_glide_gscore>
-7.65908511087278

> <r_i_glide_lipo>
-4.92470488860893

> <r_i_glide_hbond>
-0.0294256542696424

> <r_i_glide_metal>
0

> <r_i_glide_rewards>
-0.944690716393236

> <r_i_glide_evdw>
-41.721019744873

> <r_i_glide_ecoul>
-0.744251787662506

> <r_i_glide_erotb>
0.437424903792058

> <r_i_glide_esite>
0

> <r_i_glide_emodel>
-56.0855218736967

> <r_i_glide_energy>
-42.4652715325356

> <r_i_glide_einternal>
8.15555858612061

> <i_i_glide_confnum>
55

> <i_i_glide_posenum>
37

> <r_i_glide_eff_state_penalty>
0

> <i_f3d_flags>
0

> <s_user_duplicate_titles>
615738

> <s_m_subgroup_title>
dock_pv

> <s_m_subgroupid>
dock_pv1

> <b_m_subgroup_collapsed>
0

$$$$
644959
                    3D
 Schrodinger Suite 2021-1.
 49 53  0  0  1  0            999 V2000
   20.2961   16.7047  105.6848 C   0  0  0  0  0  0
   21.4836   16.0586  105.3593 C   0  0  0  0  0  0
   21.9000   14.9140  106.0334 C   0  0  0  0  0  0
   21.1179   14.5029  107.1170 C   0  0  0  0  0  0
   19.9279   15.1823  107.5249 C   0  0  0  0  0  0
   19.5029   16.2628  106.7420 C   0  0  0  0  0  0
   19.4630   14.5645  108.7478 C   0  0  0  0  0  0
   20.3383   13.5186  108.9591 C   0  0  0  0  0  0
   21.3235   13.4874  108.0144 N   0  0  0  0  0  0
   18.3087   14.9295  109.6827 C   0  0  1  0  0  0
   17.0358   15.5277  109.0813 C   0  0  0  0  0  0
   15.8502   14.8287  108.8827 C   0  0  0  0  0  0
   14.9025   15.7662  108.3541 C   0  0  0  0  0  0
   13.5624   15.6748  107.9504 C   0  0  0  0  0  0
   12.9138   16.8196  107.4931 C   0  0  0  0  0  0
   13.5743   18.0453  107.4349 C   0  0  0  0  0  0
   14.9076   18.1865  107.8264 C   0  0  0  0  0  0
   15.5579   17.0353  108.2846 C   0  0  0  0  0  0
   16.8425   16.8454  108.7491 N   0  0  0  0  0  0
   11.2634   16.7160  106.9989 Cl  0  0  0  0  0  0
   15.7129   13.3536  109.2634 C   0  0  0  0  0  0
   17.1024   12.7615  109.6325 C   0  0  0  0  0  0
   17.8509   13.7466  110.4502 N   0  0  0  0  0  0
   17.8650   13.7346  111.8079 C   0  0  0  0  0  0
   18.3523   14.6501  112.4781 O   0  0  0  0  0  0
   17.3409   12.4775  112.5247 C   0  0  0  0  0  0
   17.3377   12.5292  114.0643 C   0  0  0  0  0  0
   18.6987   12.4409  114.5590 N   0  0  0  0  0  0
   22.0709   12.8095  108.0141 H   0  0  0  0  0  0
   17.5674   17.5410  108.8558 H   0  0  0  0  0  0
   19.9858   17.5606  105.1062 H   0  0  0  0  0  0
   22.0778   16.4315  104.5375 H   0  0  0  0  0  0
   22.8073   14.3990  105.7524 H   0  0  0  0  0  0
   18.5847   16.7619  106.9710 H   0  0  0  0  0  0
   20.3211   12.7895  109.7542 H   0  0  0  0  0  0
   18.7101   15.6804  110.3675 H   0  0  0  0  0  0
   13.0388   14.7315  107.9918 H   0  0  0  0  0  0
   13.0381   18.9128  107.0765 H   0  0  0  0  0  0
   15.4030   19.1451  107.7814 H   0  0  0  0  0  0
   15.0336   13.2418  110.1083 H   0  0  0  0  0  0
   15.2843   12.7657  108.4499 H   0  0  0  0  0  0
   17.0773   11.7629  110.0698 H   0  0  0  0  0  0
   17.6754   12.5862  108.7210 H   0  0  0  0  0  0
   16.3178   12.3449  112.1905 H   0  0  0  0  0  0
   17.9086   11.6092  112.1864 H   0  0  0  0  0  0
   16.8749   13.4480  114.4276 H   0  0  0  0  0  0
   16.7416   11.7050  114.4602 H   0  0  0  0  0  0
   19.1843   13.2943  114.3145 H   0  0  0  0  0  0
   18.7181   12.3619  115.5789 H   0  0  0  0  0  0
  1  6  1  0  0  0
  1  2  2  0  0  0
  1 31  1  0  0  0
  2  3  1  0  0  0
  2 32  1  0  0  0
  3  4  2  0  0  0
  3 33  1  0  0  0
  4  9  1  0  0  0
  4  5  1  0  0  0
  5  6  2  0  0  0
  5  7  1  0  0  0
  6 34  1  0  0  0
  7  8  2  0  0  0
  7 10  1  0  0  0
  8  9  1  0  0  0
  8 35  1  0  0  0
  9 29  1  0  0  0
 10 23  1  0  0  0
 10 11  1  0  0  0
 10 36  1  0  0  0
 11 19  1  0  0  0
 11 12  2  0  0  0
 12 13  1  0  0  0
 12 21  1  0  0  0
 13 18  2  0  0  0
 13 14  1  0  0  0
 14 15  2  0  0  0
 14 37  1  0  0  0
 15 16  1  0  0  0
 15 20  1  0  0  0
 16 17  2  0  0  0
 16 38  1  0  0  0
 17 18  1  0  0  0
 17 39  1  0  0  0
 18 19  1  0  0  0
 19 30  1  0  0  0
 21 22  1  0  0  0
 21 40  1  0  0  0
 21 41  1  0  0  0
 22 23  1  0  0  0
 22 42  1  0  0  0
 22 43  1  0  0  0
 23 24  1  0  0  0
 24 25  2  0  0  0
 24 26  1  0  0  0
 26 27  1  0  0  0
 26 44  1  0  0  0
 26 45  1  0  0  0
 27 28  1  0  0  0
 27 46  1  0  0  0
 27 47  1  0  0  0
 28 48  1  0  0  0
 28 49  1  0  0  0
M  END
> <s_m_entry_id>
1314

> <s_m_entry_name>
ligand_docking-pose.126

> <s_m_Source_Path>
/home/csk/Desktop/cluster/DUD-E-result/kif11

> <s_m_Source_File>
ligand_docking-pose.sdf

> <i_m_Source_File_Index>
126

> <i_lp_mmshare_version>
53161

> <r_lp_tautomer_probability>
1

> <s_lp_Force_Field>
OPLS_2005

> <r_lp_Energy>
24.285816

> <b_lp_Chiralities_Consistent>
1

> <s_lp_Variant>
644959-2

> <s_i_glide_gridfile>
glide-grid_3cjo

> <i_i_glide_lignum>
19

> <i_i_glide_rotatable_bonds>
4

> <r_i_docking_score>
-7.44299039935254

> <r_i_glide_ligand_efficiency>
-0.265821085691162

> <r_i_glide_ligand_efficiency_sa>
-0.807189376405225

> <r_i_glide_ligand_efficiency_ln>
-1.71806071986466

> <r_i_glide_gscore>
-7.44299039935254

> <r_i_glide_lipo>
-3.58363258006204

> <r_i_glide_hbond>
-0.32

> <r_i_glide_metal>
0

> <r_i_glide_rewards>
-1.30168266653318

> <r_i_glide_evdw>
-37.5343894958496

> <r_i_glide_ecoul>
-4.93679285049438

> <r_i_glide_erotb>
0.379563249609316

> <r_i_glide_esite>
0

> <r_i_glide_emodel>
-58.0690260257741

> <r_i_glide_energy>
-42.471182346344

> <r_i_glide_einternal>
1.82566976547241

> <i_i_glide_confnum>
1

> <i_i_glide_posenum>
6

> <r_i_glide_eff_state_penalty>
0

> <i_f3d_flags>
0

> <s_user_duplicate_titles>
644959

> <s_m_subgroup_title>
dock_pv

> <s_m_subgroupid>
dock_pv1

> <b_m_subgroup_collapsed>
0

$$$$
644682
                    3D
 Schrodinger Suite 2021-1.
 53 56  0  0  1  0            999 V2000
   14.5887   13.0377  106.9537 C   0  0  0  0  0  0
   14.7004   13.5625  108.3962 C   0  0  0  0  0  0
   15.2919   14.9766  108.4657 C   0  0  0  0  0  0
   14.6126   15.8657  107.9487 O   0  0  0  0  0  0
   16.4106   15.2331  109.2173 N   0  0  0  0  0  0
   16.9129   16.6304  109.4623 C   0  0  1  0  0  0
   17.7418   17.0428  108.1931 C   0  0  0  0  0  0
   18.7758   15.9554  107.8991 C   0  0  0  0  0  0
   19.9224   15.8922  107.0260 C   0  0  0  0  0  0
   20.5036   16.7624  106.0931 C   0  0  0  0  0  0
   21.6752   16.3893  105.4363 C   0  0  0  0  0  0
   22.2622   15.1499  105.6694 C   0  0  0  0  0  0
   21.7058   14.2309  106.5590 C   0  0  0  0  0  0
   20.5445   14.6252  107.2355 C   0  0  0  0  0  0
   19.7706   13.9620  108.1591 N   0  0  0  0  0  0
   18.6732   14.7087  108.4906 C   0  0  0  0  0  0
   17.4907   14.2099  109.3264 C   0  0  1  0  0  0
   17.8357   13.7803  110.7521 C   0  0  0  0  0  0
   17.1273   12.7393  111.3648 C   0  0  0  0  0  0
   17.4197   12.3649  112.6778 C   0  0  0  0  0  0
   18.4023   13.0445  113.3980 C   0  0  0  0  0  0
   19.1031   14.0887  112.7951 C   0  0  0  0  0  0
   18.8228   14.4533  111.4824 C   0  0  0  0  0  0
   20.0741   14.7616  113.4800 O   0  0  0  0  0  0
   15.8428   17.6636  109.9290 C   0  0  0  0  0  0
   14.8508   17.3024  110.5688 O   0  0  0  0  0  0
   16.1344   18.9485  109.6062 O   0  0  0  0  0  0
   15.1630   19.9933  109.7078 C   0  0  0  0  0  0
   14.6902   20.3355  111.1343 C   0  0  0  0  0  0
   19.9039   13.0244  108.5082 H   0  0  0  0  0  0
   14.0264   12.1032  106.9383 H   0  0  0  0  0  0
   14.0603   13.7314  106.2971 H   0  0  0  0  0  0
   15.5697   12.8183  106.5298 H   0  0  0  0  0  0
   13.7018   13.6169  108.8309 H   0  0  0  0  0  0
   15.2317   12.8506  109.0205 H   0  0  0  0  0  0
   17.5903   16.5844  110.3141 H   0  0  0  0  0  0
   17.0784   17.1619  107.3372 H   0  0  0  0  0  0
   18.2424   17.9981  108.3565 H   0  0  0  0  0  0
   20.0587   17.7260  105.8981 H   0  0  0  0  0  0
   22.1298   17.0655  104.7265 H   0  0  0  0  0  0
   23.1619   14.8858  105.1321 H   0  0  0  0  0  0
   22.1609   13.2635  106.7152 H   0  0  0  0  0  0
   17.1945   13.2976  108.8109 H   0  0  0  0  0  0
   16.3558   12.2051  110.8312 H   0  0  0  0  0  0
   16.8659   11.5622  113.1422 H   0  0  0  0  0  0
   18.6148   12.7546  114.4173 H   0  0  0  0  0  0
   19.3757   15.2684  111.0383 H   0  0  0  0  0  0
   20.1831   14.4398  114.3761 H   0  0  0  0  0  0
   15.6082   20.8848  109.2652 H   0  0  0  0  0  0
   14.3037   19.7453  109.0832 H   0  0  0  0  0  0
   14.0495   21.2172  111.1198 H   0  0  0  0  0  0
   14.1120   19.5262  111.5778 H   0  0  0  0  0  0
   15.5180   20.5528  111.8030 H   0  0  0  0  0  0
  1  2  1  0  0  0
  1 31  1  0  0  0
  1 32  1  0  0  0
  1 33  1  0  0  0
  2  3  1  0  0  0
  2 34  1  0  0  0
  2 35  1  0  0  0
  3  4  2  0  0  0
  3  5  1  0  0  0
  5 17  1  0  0  0
  5  6  1  0  0  0
  6  7  1  0  0  0
  6 25  1  0  0  0
  6 36  1  0  0  0
  7  8  1  0  0  0
  7 37  1  0  0  0
  7 38  1  0  0  0
  8 16  2  0  0  0
  8  9  1  0  0  0
  9 14  2  0  0  0
  9 10  1  0  0  0
 10 11  2  0  0  0
 10 39  1  0  0  0
 11 12  1  0  0  0
 11 40  1  0  0  0
 12 13  2  0  0  0
 12 41  1  0  0  0
 13 14  1  0  0  0
 13 42  1  0  0  0
 14 15  1  0  0  0
 15 30  1  0  0  0
 15 16  1  0  0  0
 16 17  1  0  0  0
 17 18  1  0  0  0
 17 43  1  0  0  0
 18 23  1  0  0  0
 18 19  2  0  0  0
 19 20  1  0  0  0
 19 44  1  0  0  0
 20 21  2  0  0  0
 20 45  1  0  0  0
 21 22  1  0  0  0
 21 46  1  0  0  0
 22 23  2  0  0  0
 22 24  1  0  0  0
 23 47  1  0  0  0
 24 48  1  0  0  0
 25 26  2  0  0  0
 25 27  1  0  0  0
 27 28  1  0  0  0
 28 29  1  0  0  0
 28 49  1  0  0  0
 28 50  1  0  0  0
 29 51  1  0  0  0
 29 52  1  0  0  0
 29 53  1  0  0  0
M  END
> <s_m_entry_id>
1335

> <s_m_entry_name>
ligand_docking-pose.147

> <s_m_Source_Path>
/home/csk/Desktop/cluster/DUD-E-result/kif11

> <s_m_Source_File>
ligand_docking-pose.sdf

> <i_m_Source_File_Index>
147

> <i_lp_mmshare_version>
53161

> <r_lp_tautomer_probability>
0.999999999997365

> <s_lp_Force_Field>
OPLS_2005

> <r_lp_Energy>
28.194302

> <b_lp_Chiralities_Consistent>
1

> <s_lp_Variant>
644682-1

> <s_i_glide_gridfile>
glide-grid_3cjo

> <i_i_glide_lignum>
251

> <i_i_glide_rotatable_bonds>
7

> <r_i_docking_score>
-7.14885689601942

> <r_i_glide_ligand_efficiency>
-0.24651230675929

> <r_i_glide_ligand_efficiency_sa>
-0.757363906945109

> <r_i_glide_ligand_efficiency_ln>
-1.63690694981878

> <r_i_glide_gscore>
-7.14885689601942

> <r_i_glide_lipo>
-4.27626195217277

> <r_i_glide_hbond>
0

> <r_i_glide_metal>
0

> <r_i_glide_rewards>
-0.979738062010462

> <r_i_glide_evdw>
-44.2950706481934

> <r_i_glide_ecoul>
-1.23461616039276

> <r_i_glide_erotb>
0.507089074632397

> <r_i_glide_esite>
0

> <r_i_glide_emodel>
-59.7116704382172

> <r_i_glide_energy>
-45.5296868085861

> <r_i_glide_einternal>
4.97762060165405

> <i_i_glide_confnum>
9

> <i_i_glide_posenum>
136

> <r_i_glide_eff_state_penalty>
0

> <i_f3d_flags>
0

> <s_user_duplicate_titles>
644682

> <s_m_subgroup_title>
dock_pv

> <s_m_subgroupid>
dock_pv1

> <b_m_subgroup_collapsed>
0

$$$$
644955
                    3D
 Schrodinger Suite 2021-1.
 53 57  0  0  1  0            999 V2000
   16.8854   12.4409  114.6903 C   0  0  0  0  0  0
   18.3270   12.6344  114.2462 C   0  0  0  0  0  0
   18.4561   12.6397  112.7278 C   0  0  0  0  0  0
   18.0071   13.9023  111.9548 C   0  0  0  0  0  0
   17.5138   14.8233  112.5800 O   0  0  0  0  0  0
   18.3186   14.0262  110.6394 N   0  0  0  0  0  0
   18.6754   12.8287  109.8706 C   0  0  0  0  0  0
   20.0637   13.0764  109.2580 C   0  0  0  0  0  0
   19.9653   14.3148  108.4086 C   0  0  0  0  0  0
   20.7163   14.7248  107.2766 C   0  0  0  0  0  0
   21.7722   14.1481  106.5641 C   0  0  0  0  0  0
   22.3578   14.8645  105.5290 C   0  0  0  0  0  0
   21.8837   16.1316  105.1828 C   0  0  0  0  0  0
   20.7937   16.7150  105.8328 C   0  0  0  0  0  0
   20.2237   16.0018  106.8907 C   0  0  0  0  0  0
   19.1786   16.3017  107.7481 N   0  0  0  0  0  0
   19.0368   15.3012  108.6789 C   0  0  0  0  0  0
   18.0343   15.2524  109.8392 C   0  0  1  0  0  0
   16.5756   15.3510  109.4125 C   0  0  0  0  0  0
   15.5923   16.1079  110.0224 C   0  0  0  0  0  0
   14.4028   15.9780  109.3590 N   0  0  0  0  0  0
   14.5547   15.1153  108.2947 C   0  0  0  0  0  0
   15.9301   14.7225  108.2809 C   0  0  0  0  0  0
   16.3610   13.8610  107.2561 C   0  0  0  0  0  0
   15.4403   13.4031  106.3157 C   0  0  0  0  0  0
   14.1041   13.7877  106.3701 C   0  0  0  0  0  0
   13.6279   14.6544  107.3537 C   0  0  0  0  0  0
   23.5048   14.2128  104.7834 C   0  0  0  0  0  0
   18.6115   17.1365  107.7612 H   0  0  0  0  0  0
   13.5600   16.4542  109.6416 H   0  0  0  0  0  0
   16.8091   12.3625  115.7648 H   0  0  0  0  0  0
   16.3262   13.3147  114.3972 H   0  0  0  0  0  0
   16.4187   11.5652  114.2376 H   0  0  0  0  0  0
   18.7410   13.5577  114.6333 H   0  0  0  0  0  0
   18.9517   11.8514  114.6714 H   0  0  0  0  0  0
   19.5181   12.5809  112.5593 H   0  0  0  0  0  0
   17.9701   11.7423  112.3426 H   0  0  0  0  0  0
   18.7182   11.9621  110.4997 H   0  0  0  0  0  0
   17.9216   12.6285  109.1095 H   0  0  0  0  0  0
   20.8204   13.1762  110.0360 H   0  0  0  0  0  0
   20.3499   12.2174  108.6580 H   0  0  0  0  0  0
   22.1459   13.1713  106.8349 H   0  0  0  0  0  0
   22.3220   16.6665  104.3549 H   0  0  0  0  0  0
   20.4184   17.6769  105.5342 H   0  0  0  0  0  0
   18.2482   16.1045  110.4864 H   0  0  0  0  0  0
   15.6523   16.7423  110.8962 H   0  0  0  0  0  0
   17.3903   13.5427  107.1925 H   0  0  0  0  0  0
   15.7695   12.7284  105.5378 H   0  0  0  0  0  0
   13.4186   13.4056  105.6280 H   0  0  0  0  0  0
   12.5896   14.9518  107.3802 H   0  0  0  0  0  0
   23.8534   14.7819  103.9241 H   0  0  0  0  0  0
   24.3174   14.0385  105.4810 H   0  0  0  0  0  0
   23.1990   13.2294  104.4319 H   0  0  0  0  0  0
  1  2  1  0  0  0
  1 31  1  0  0  0
  1 32  1  0  0  0
  1 33  1  0  0  0
  2  3  1  0  0  0
  2 34  1  0  0  0
  2 35  1  0  0  0
  3  4  1  0  0  0
  3 36  1  0  0  0
  3 37  1  0  0  0
  4  5  2  0  0  0
  4  6  1  0  0  0
  6 18  1  0  0  0
  6  7  1  0  0  0
  7  8  1  0  0  0
  7 38  1  0  0  0
  7 39  1  0  0  0
  8  9  1  0  0  0
  8 40  1  0  0  0
  8 41  1  0  0  0
  9 17  2  0  0  0
  9 10  1  0  0  0
 10 15  2  0  0  0
 10 11  1  0  0  0
 11 12  2  0  0  0
 11 42  1  0  0  0
 12 13  1  0  0  0
 12 28  1  0  0  0
 13 14  2  0  0  0
 13 43  1  0  0  0
 14 15  1  0  0  0
 14 44  1  0  0  0
 15 16  1  0  0  0
 16 29  1  0  0  0
 16 17  1  0  0  0
 17 18  1  0  0  0
 18 19  1  0  0  0
 18 45  1  0  0  0
 19 23  1  0  0  0
 19 20  2  0  0  0
 20 21  1  0  0  0
 20 46  1  0  0  0
 21 30  1  0  0  0
 21 22  1  0  0  0
 22 27  1  0  0  0
 22 23  2  0  0  0
 23 24  1  0  0  0
 24 25  2  0  0  0
 24 47  1  0  0  0
 25 26  1  0  0  0
 25 48  1  0  0  0
 26 27  2  0  0  0
 26 49  1  0  0  0
 27 50  1  0  0  0
 28 51  1  0  0  0
 28 52  1  0  0  0
 28 53  1  0  0  0
M  END
> <s_m_entry_id>
1341

> <s_m_entry_name>
ligand_docking-pose.153

> <s_m_Source_Path>
/home/csk/Desktop/cluster/DUD-E-result/kif11

> <s_m_Source_File>
ligand_docking-pose.sdf

> <i_m_Source_File_Index>
153

> <i_lp_mmshare_version>
53161

> <r_lp_tautomer_probability>
1

> <s_lp_Force_Field>
OPLS_2005

> <r_lp_Energy>
25.872255

> <b_lp_Chiralities_Consistent>
1

> <s_lp_Variant>
644955-1

> <s_i_glide_gridfile>
glide-grid_3cjo

> <i_i_glide_lignum>
234

> <i_i_glide_rotatable_bonds>
4

> <r_i_docking_score>
-6.96341606537773

> <r_i_glide_ligand_efficiency>
-0.248693430906348

> <r_i_glide_ligand_efficiency_sa>
-0.755179728829333

> <r_i_glide_ligand_efficiency_ln>
-1.60736088266898

> <r_i_glide_gscore>
-6.96341606537773

> <r_i_glide_lipo>
-4.00846481286662

> <r_i_glide_hbond>
0

> <r_i_glide_metal>
0

> <r_i_glide_rewards>
-1.49204584543887

> <r_i_glide_evdw>
-33.3854370117188

> <r_i_glide_ecoul>
-1.42196941375732

> <r_i_glide_erotb>
0.419661855577289

> <r_i_glide_esite>
0

> <r_i_glide_emodel>
-46.5681746705766

> <r_i_glide_energy>
-34.8074064254761

> <r_i_glide_einternal>
4.10698652267456

> <i_i_glide_confnum>
1

> <i_i_glide_posenum>
3

> <r_i_glide_eff_state_penalty>
0

> <i_f3d_flags>
0

> <s_user_duplicate_titles>
644955

> <s_m_subgroup_title>
dock_pv

> <s_m_subgroupid>
dock_pv1

> <b_m_subgroup_collapsed>
0

$$$$
644919
                    3D
 Schrodinger Suite 2021-1.
 50 53  0  0  1  0            999 V2000
   22.2270   13.9619  106.4711 C   0  0  0  0  0  0
   21.1479   14.0335  107.3506 C   0  0  0  0  0  0
   20.3136   15.1605  107.3656 C   0  0  0  0  0  0
   20.5974   16.2171  106.4888 C   0  0  0  0  0  0
   21.6793   16.1436  105.6111 C   0  0  0  0  0  0
   22.4966   15.0161  105.6018 C   0  0  0  0  0  0
   21.9180   17.1622  104.7324 O   0  0  0  0  0  0
   19.0766   15.2528  108.2738 C   0  0  1  0  0  0
   17.7915   14.9654  107.4842 C   0  0  0  0  0  0
   16.9027   13.9365  107.7548 C   0  0  0  0  0  0
   15.9004   13.9674  106.7271 C   0  0  0  0  0  0
   14.7658   13.1941  106.4399 C   0  0  0  0  0  0
   14.0024   13.4987  105.3151 C   0  0  0  0  0  0
   14.3438   14.5643  104.4844 C   0  0  0  0  0  0
   15.4622   15.3630  104.7291 C   0  0  0  0  0  0
   16.2328   15.0478  105.8514 C   0  0  0  0  0  0
   17.3878   15.6148  106.3433 N   0  0  0  0  0  0
   12.6204   12.5361  104.9466 Cl  0  0  0  0  0  0
   17.1165   13.0083  108.9367 C   0  0  0  0  0  0
   18.6107   13.0775  109.3330 C   0  0  0  0  0  0
   19.1205   14.4480  109.5269 N   0  0  2  0  0  0
   18.5294   15.1689  110.6679 C   0  0  0  0  0  0
   18.7441   14.5137  112.0590 C   0  0  0  0  0  0
   17.6817   13.4634  112.4775 C   0  0  0  0  0  0
   17.5456   13.2286  113.9937 C   0  0  0  0  0  0
   18.7988   12.7617  114.5572 N   0  0  0  0  0  0
   17.9122   16.3795  105.9468 H   0  0  0  0  0  0
   22.8524   13.0829  106.4621 H   0  0  0  0  0  0
   21.0016   13.2100  108.0269 H   0  0  0  0  0  0
   19.9755   17.1018  106.4804 H   0  0  0  0  0  0
   23.3311   14.9448  104.9187 H   0  0  0  0  0  0
   22.6397   16.9646  104.1325 H   0  0  0  0  0  0
   19.0642   16.3047  108.5685 H   0  0  0  0  0  0
   14.4955   12.3620  107.0722 H   0  0  0  0  0  0
   13.7261   14.7723  103.6229 H   0  0  0  0  0  0
   15.7166   16.1809  104.0709 H   0  0  0  0  0  0
   16.4643   13.2257  109.7818 H   0  0  0  0  0  0
   16.8920   11.9694  108.6866 H   0  0  0  0  0  0
   18.7982   12.4699  110.2109 H   0  0  0  0  0  0
   19.1802   12.5730  108.5604 H   0  0  0  0  0  0
   18.9401   16.1776  110.7158 H   0  0  0  0  0  0
   17.4619   15.2920  110.4805 H   0  0  0  0  0  0
   19.7179   14.0230  112.0838 H   0  0  0  0  0  0
   18.7710   15.3041  112.8087 H   0  0  0  0  0  0
   16.7183   13.7854  112.0971 H   0  0  0  0  0  0
   17.8672   12.5001  112.0091 H   0  0  0  0  0  0
   17.2206   14.1410  114.4954 H   0  0  0  0  0  0
   16.7746   12.4813  114.1860 H   0  0  0  0  0  0
   18.7179   12.5406  115.5524 H   0  0  0  0  0  0
   19.0760   11.9028  114.1046 H   0  0  0  0  0  0
  1  6  1  0  0  0
  1  2  2  0  0  0
  1 28  1  0  0  0
  2  3  1  0  0  0
  2 29  1  0  0  0
  3  4  2  0  0  0
  3  8  1  0  0  0
  4  5  1  0  0  0
  4 30  1  0  0  0
  5  6  2  0  0  0
  5  7  1  0  0  0
  6 31  1  0  0  0
  7 32  1  0  0  0
  8 21  1  0  0  0
  8  9  1  0  0  0
  8 33  1  0  0  0
  9 17  1  0  0  0
  9 10  2  0  0  0
 10 11  1  0  0  0
 10 19  1  0  0  0
 11 16  2  0  0  0
 11 12  1  0  0  0
 12 13  2  0  0  0
 12 34  1  0  0  0
 13 14  1  0  0  0
 13 18  1  0  0  0
 14 15  2  0  0  0
 14 35  1  0  0  0
 15 16  1  0  0  0
 15 36  1  0  0  0
 16 17  1  0  0  0
 17 27  1  0  0  0
 19 20  1  0  0  0
 19 37  1  0  0  0
 19 38  1  0  0  0
 20 21  1  0  0  0
 20 39  1  0  0  0
 20 40  1  0  0  0
 21 22  1  0  0  0
 22 23  1  0  0  0
 22 41  1  0  0  0
 22 42  1  0  0  0
 23 24  1  0  0  0
 23 43  1  0  0  0
 23 44  1  0  0  0
 24 25  1  0  0  0
 24 45  1  0  0  0
 24 46  1  0  0  0
 25 26  1  0  0  0
 25 47  1  0  0  0
 25 48  1  0  0  0
 26 49  1  0  0  0
 26 50  1  0  0  0
M  END
> <s_m_entry_id>
1343

> <s_m_entry_name>
ligand_docking-pose.155

> <s_m_Source_Path>
/home/csk/Desktop/cluster/DUD-E-result/kif11

> <s_m_Source_File>
ligand_docking-pose.sdf

> <i_m_Source_File_Index>
155

> <i_lp_mmshare_version>
53161

> <r_lp_tautomer_probability>
0.999999999997365

> <s_lp_Force_Field>
OPLS_2005

> <r_lp_Energy>
33.421543

> <b_lp_Chiralities_Consistent>
1

> <s_lp_Variant>
644919-2

> <s_i_glide_gridfile>
glide-grid_3cjo

> <i_i_glide_lignum>
79

> <i_i_glide_rotatable_bonds>
6

> <r_i_docking_score>
-6.94770825106724

> <r_i_glide_ligand_efficiency>
-0.267219548117971

> <r_i_glide_ligand_efficiency_sa>
-0.791636859841339

> <r_i_glide_ligand_efficiency_ln>
-1.63164648547294

> <r_i_glide_gscore>
-6.94770825106724

> <r_i_glide_lipo>
-3.65045605507203

> <r_i_glide_hbond>
-0.32

> <r_i_glide_metal>
0

> <r_i_glide_rewards>
-0.887130954545454

> <r_i_glide_evdw>
-35.6156539916992

> <r_i_glide_ecoul>
-5.82124853134155

> <r_i_glide_erotb>
0.56384873783644

> <r_i_glide_esite>
0

> <r_i_glide_emodel>
-55.2738607456935

> <r_i_glide_energy>
-41.4369025230408

> <r_i_glide_einternal>
7.04337120056152

> <i_i_glide_confnum>
25

> <i_i_glide_posenum>
323

> <r_i_glide_eff_state_penalty>
0

> <i_f3d_flags>
0

> <s_user_duplicate_titles>
644919

> <s_m_subgroup_title>
dock_pv

> <s_m_subgroupid>
dock_pv1

> <b_m_subgroup_collapsed>
0

$$$$
644866
                    3D
 Schrodinger Suite 2021-1.
 53 56  0  0  1  0            999 V2000
   23.5182   14.3954  104.8822 C   0  0  0  0  0  0
   22.3224   15.0086  105.5625 C   0  0  0  0  0  0
   21.8283   16.2607  105.1935 C   0  0  0  0  0  0
   20.6574   16.7769  105.7504 C   0  0  0  0  0  0
   20.0157   16.0017  106.7202 C   0  0  0  0  0  0
   20.5543   14.7631  107.1623 C   0  0  0  0  0  0
   21.7068   14.2617  106.5586 C   0  0  0  0  0  0
   19.7307   14.3014  108.2210 C   0  0  0  0  0  0
   18.6523   15.1564  108.3115 C   0  0  0  0  0  0
   18.8408   16.1880  107.4207 N   0  0  0  0  0  0
   17.4580   14.9489  109.2575 C   0  0  1  0  0  0
   17.8222   13.9419  110.2886 N   0  0  2  0  0  0
   18.4833   12.7723  109.7037 C   0  0  0  0  0  0
   19.8777   13.1254  109.1505 C   0  0  0  0  0  0
   16.7181   13.4746  111.1355 C   0  0  0  0  0  0
   17.2166   12.8076  112.4663 C   0  0  0  0  0  0
   18.0288   13.7138  113.4303 C   0  0  0  0  0  0
   19.2777   14.3576  112.7902 C   0  0  0  0  0  0
   20.2726   14.7620  113.7581 N   0  0  0  0  0  0
   16.9996   16.2818  109.8469 C   0  0  0  0  0  0
   17.9312   17.1271  110.4614 C   0  0  0  0  0  0
   17.5371   18.3621  110.9589 C   0  0  0  0  0  0
   16.2057   18.7613  110.8593 C   0  0  0  0  0  0
   15.2640   17.9169  110.2723 C   0  0  0  0  0  0
   15.6594   16.6777  109.7632 C   0  0  0  0  0  0
   13.9564   18.3100  110.1891 O   0  0  0  0  0  0
   18.1981   16.9642  107.3521 H   0  0  0  0  0  0
   23.8399   14.9489  104.0043 H   0  0  0  0  0  0
   24.3170   14.3120  105.6131 H   0  0  0  0  0  0
   23.2796   13.3830  104.5564 H   0  0  0  0  0  0
   22.3293   16.8255  104.4220 H   0  0  0  0  0  0
   20.2629   17.7300  105.4318 H   0  0  0  0  0  0
   22.1099   13.3058  106.8585 H   0  0  0  0  0  0
   16.6324   14.5456  108.6689 H   0  0  0  0  0  0
   18.6567   12.0378  110.4833 H   0  0  0  0  0  0
   17.8332   12.3203  108.9552 H   0  0  0  0  0  0
   20.3163   12.2662  108.6488 H   0  0  0  0  0  0
   20.5681   13.3347  109.9674 H   0  0  0  0  0  0
   16.1112   14.3492  111.3593 H   0  0  0  0  0  0
   16.0638   12.7949  110.5837 H   0  0  0  0  0  0
   16.3729   12.3621  113.0022 H   0  0  0  0  0  0
   17.7997   11.9127  112.2650 H   0  0  0  0  0  0
   17.3876   14.4982  113.8332 H   0  0  0  0  0  0
   18.3268   13.1012  114.2835 H   0  0  0  0  0  0
   19.7510   13.6546  112.1069 H   0  0  0  0  0  0
   18.9898   15.2332  112.2101 H   0  0  0  0  0  0
   20.6758   13.9324  114.1639 H   0  0  0  0  0  0
   21.0274   15.2326  113.2827 H   0  0  0  0  0  0
   18.9683   16.8315  110.5376 H   0  0  0  0  0  0
   18.2657   19.0098  111.4211 H   0  0  0  0  0  0
   15.9115   19.7189  111.2566 H   0  0  0  0  0  0
   14.9323   16.0282  109.2978 H   0  0  0  0  0  0
   13.3974   17.6804  109.7290 H   0  0  0  0  0  0
  1  2  1  0  0  0
  1 28  1  0  0  0
  1 29  1  0  0  0
  1 30  1  0  0  0
  2  7  1  0  0  0
  2  3  2  0  0  0
  3  4  1  0  0  0
  3 31  1  0  0  0
  4  5  2  0  0  0
  4 32  1  0  0  0
  5 10  1  0  0  0
  5  6  1  0  0  0
  6  7  2  0  0  0
  6  8  1  0  0  0
  7 33  1  0  0  0
  8 14  1  0  0  0
  8  9  2  0  0  0
  9 10  1  0  0  0
  9 11  1  0  0  0
 10 27  1  0  0  0
 11 12  1  0  0  0
 11 20  1  0  0  0
 11 34  1  0  0  0
 12 13  1  0  0  0
 12 15  1  0  0  0
 13 14  1  0  0  0
 13 35  1  0  0  0
 13 36  1  0  0  0
 14 37  1  0  0  0
 14 38  1  0  0  0
 15 16  1  0  0  0
 15 39  1  0  0  0
 15 40  1  0  0  0
 16 17  1  0  0  0
 16 41  1  0  0  0
 16 42  1  0  0  0
 17 18  1  0  0  0
 17 43  1  0  0  0
 17 44  1  0  0  0
 18 19  1  0  0  0
 18 45  1  0  0  0
 18 46  1  0  0  0
 19 47  1  0  0  0
 19 48  1  0  0  0
 20 25  1  0  0  0
 20 21  2  0  0  0
 21 22  1  0  0  0
 21 49  1  0  0  0
 22 23  2  0  0  0
 22 50  1  0  0  0
 23 24  1  0  0  0
 23 51  1  0  0  0
 24 25  2  0  0  0
 24 26  1  0  0  0
 25 52  1  0  0  0
 26 53  1  0  0  0
M  END
> <s_m_entry_id>
1352

> <s_m_entry_name>
ligand_docking-pose.164

> <s_m_Source_Path>
/home/csk/Desktop/cluster/DUD-E-result/kif11

> <s_m_Source_File>
ligand_docking-pose.sdf

> <i_m_Source_File_Index>
164

> <i_lp_mmshare_version>
53161

> <r_lp_tautomer_probability>
0.999999999997365

> <s_lp_Force_Field>
OPLS_2005

> <r_lp_Energy>
27.99515

> <b_lp_Chiralities_Consistent>
1

> <s_lp_Variant>
644866-1

> <s_i_glide_gridfile>
glide-grid_3cjo

> <i_i_glide_lignum>
106

> <i_i_glide_rotatable_bonds>
6

> <r_i_docking_score>
-6.8077517732475

> <r_i_glide_ligand_efficiency>
-0.261836606663366

> <r_i_glide_ligand_efficiency_sa>
-0.775689916962923

> <r_i_glide_ligand_efficiency_ln>
-1.59877816589163

> <r_i_glide_gscore>
-6.8077517732475

> <r_i_glide_lipo>
-4.765920514442

> <r_i_glide_hbond>
0

> <r_i_glide_metal>
0

> <r_i_glide_rewards>
-1.02634581818182

> <r_i_glide_evdw>
-32.5441741943359

> <r_i_glide_ecoul>
-0.0811980366706848

> <r_i_glide_erotb>
0.623902974593709

> <r_i_glide_esite>
0

> <r_i_glide_emodel>
-43.8492607047588

> <r_i_glide_energy>
-32.6253722310066

> <r_i_glide_einternal>
6.9013876914978

> <i_i_glide_confnum>
21

> <i_i_glide_posenum>
391

> <r_i_glide_eff_state_penalty>
0

> <i_f3d_flags>
0

> <s_user_duplicate_titles>
644866

> <s_m_subgroup_title>
dock_pv

> <s_m_subgroupid>
dock_pv1

> <b_m_subgroup_collapsed>
0

$$$$
