CHEMBL2061_lig390
                    3D
 Schrodinger Suite 2021-1.
 58 61  0  0  1  0            999 V2000
   60.6756   45.8433   28.9679 C   0  0  0  0  0  0
   60.2607   46.8851   28.1549 C   0  0  0  0  0  0
   63.8647   45.7723   32.6800 C   0  0  0  0  0  0
   63.0514   46.7346   33.3408 C   0  0  0  0  0  0
   58.9164   46.9560   28.1391 O   0  0  0  0  0  0
   59.4889   45.2771   29.4716 C   0  0  0  0  0  0
   58.4188   45.9866   28.9377 C   0  0  0  0  0  0
   62.1577   45.6022   29.2470 C   0  0  2  0  0  0
   63.5805   45.4665   31.3384 C   0  0  0  0  0  0
   62.5614   46.0996   30.6353 C   0  0  0  0  0  0
   65.0153   45.0251   33.3817 C   0  0  0  0  0  0
   63.1381   47.0248   34.8573 C   0  0  0  0  0  0
   56.9814   45.9172   29.0249 C   0  0  0  0  0  0
   62.1469   47.4675   32.5657 C   0  0  0  0  0  0
   54.8017   45.3267   29.9840 C   0  0  0  0  0  0
   56.2425   45.2913   29.9616 C   0  0  0  0  0  0
   61.9055   47.1684   31.2386 C   0  0  0  0  0  0
   65.2580   45.5865   34.8012 C   0  0  0  0  0  0
   63.9687   45.9187   35.5645 C   0  0  0  0  0  0
   54.1130   44.4774   30.5392 O   0  0  0  0  0  0
   61.1088   47.8657   27.3640 C   0  0  0  0  0  0
   54.2665   46.4252   29.3708 O   0  0  0  0  0  0
   62.9959   46.2601   28.1150 C   0  0  0  0  0  0
   64.6523   43.5219   33.4888 C   0  0  0  0  0  0
   66.3253   45.2779   32.5987 C   0  0  0  0  0  0
   63.8206   48.3920   35.0554 C   0  0  0  0  0  0
   61.7162   47.0126   35.4827 C   0  0  0  0  0  0
   62.5827   47.7216   27.8174 C   0  0  0  0  0  0
   59.4233   44.4322   30.1398 H   0  0  0  0  0  0
   62.3411   44.5258   29.2493 H   0  0  0  0  0  0
   64.1350   44.6849   30.8404 H   0  0  0  0  0  0
   56.5052   46.4626   28.2235 H   0  0  0  0  0  0
   61.6081   48.2865   33.0054 H   0  0  0  0  0  0
   56.7066   44.7175   30.7507 H   0  0  0  0  0  0
   61.1727   47.7491   30.7018 H   0  0  0  0  0  0
   65.8704   46.4870   34.7624 H   0  0  0  0  0  0
   65.8669   44.8645   35.3395 H   0  0  0  0  0  0
   64.2115   46.2179   36.5851 H   0  0  0  0  0  0
   63.3792   45.0059   35.6648 H   0  0  0  0  0  0
   61.0243   47.6765   26.2943 H   0  0  0  0  0  0
   60.7810   48.8896   27.5392 H   0  0  0  0  0  0
   54.9495   47.0107   29.0383 H   0  0  0  0  0  0
   62.8800   45.6755   27.2008 H   0  0  0  0  0  0
   64.0571   46.2171   28.3621 H   0  0  0  0  0  0
   65.4676   42.9523   33.9348 H   0  0  0  0  0  0
   63.7599   43.3538   34.0929 H   0  0  0  0  0  0
   64.4684   43.0747   32.5124 H   0  0  0  0  0  0
   67.1841   44.8521   33.1200 H   0  0  0  0  0  0
   66.3050   44.8398   31.5997 H   0  0  0  0  0  0
   66.5186   46.3463   32.4725 H   0  0  0  0  0  0
   64.0048   48.6076   36.1093 H   0  0  0  0  0  0
   64.7714   48.4593   34.5275 H   0  0  0  0  0  0
   63.2084   49.2031   34.6629 H   0  0  0  0  0  0
   61.7439   47.2766   36.5390 H   0  0  0  0  0  0
   61.0492   47.7413   35.0277 H   0  0  0  0  0  0
   61.2351   46.0384   35.3920 H   0  0  0  0  0  0
   63.2402   48.1497   27.0602 H   0  0  0  0  0  0
   62.7447   48.3225   28.7133 H   0  0  0  0  0  0
  1  2  2  0  0  0
  1  6  1  0  0  0
  1  8  1  0  0  0
  2  5  1  0  0  0
  2 21  1  0  0  0
  3  9  2  0  0  0
  3 11  1  0  0  0
  3  4  1  0  0  0
  4 14  2  0  0  0
  4 12  1  0  0  0
  5  7  1  0  0  0
  6  7  2  0  0  0
  6 29  1  0  0  0
  7 13  1  0  0  0
  8 10  1  0  0  0
  8 23  1  0  0  0
  8 30  1  0  0  0
  9 10  1  0  0  0
  9 31  1  0  0  0
 10 17  2  0  0  0
 11 18  1  0  0  0
 11 24  1  0  0  0
 11 25  1  0  0  0
 12 19  1  0  0  0
 12 26  1  0  0  0
 12 27  1  0  0  0
 13 16  2  0  0  0
 13 32  1  0  0  0
 14 17  1  0  0  0
 14 33  1  0  0  0
 15 16  1  0  0  0
 15 20  2  0  0  0
 15 22  1  0  0  0
 16 34  1  0  0  0
 17 35  1  0  0  0
 18 19  1  0  0  0
 18 36  1  0  0  0
 18 37  1  0  0  0
 19 38  1  0  0  0
 19 39  1  0  0  0
 21 28  1  0  0  0
 21 40  1  0  0  0
 21 41  1  0  0  0
 22 42  1  0  0  0
 23 28  1  0  0  0
 23 43  1  0  0  0
 23 44  1  0  0  0
 24 45  1  0  0  0
 24 46  1  0  0  0
 24 47  1  0  0  0
 25 48  1  0  0  0
 25 49  1  0  0  0
 25 50  1  0  0  0
 26 51  1  0  0  0
 26 52  1  0  0  0
 26 53  1  0  0  0
 27 54  1  0  0  0
 27 55  1  0  0  0
 27 56  1  0  0  0
 28 57  1  0  0  0
 28 58  1  0  0  0
M  END
> <s_m_entry_id>
30789

> <s_m_entry_name>
dock_pv.2

> <s_m_Source_Path>
/home/csk/Desktop/cluster/DUD-E-result/rxra

> <s_m_Source_File>
dock_pv.maegz

> <i_m_Source_File_Index>
2

> <chembl_id>
CHEMBL62880

> <chembl_pref_name>
None

> <i_lp_mmshare_version>
53161

> <r_lp_tautomer_probability>
1

> <s_lp_Force_Field>
OPLS_2005

> <r_lp_Energy>
23.103321

> <b_lp_Chiralities_Consistent>
1

> <s_lp_Variant>
CHEMBL2061_lig390-1

> <s_i_glide_gridfile>
glide-grid_1mv9

> <i_i_glide_lignum>
450

> <i_i_glide_rotatable_bonds>
4

> <r_i_docking_score>
-12.3988369106975

> <r_i_glide_ligand_efficiency>
-0.442815603953482

> <r_i_glide_ligand_efficiency_sa>
-1.34464897804605

> <r_i_glide_ligand_efficiency_ln>
-2.86201560465945

> <r_i_glide_gscore>
-12.3988369106975

> <r_i_glide_lipo>
-6.75866015472943

> <r_i_glide_hbond>
-0.32

> <r_i_glide_metal>
0

> <r_i_glide_rewards>
-2.41253878186111

> <r_i_glide_evdw>
-51.9315986633301

> <r_i_glide_ecoul>
-4.7791748046875

> <r_i_glide_erotb>
0.40581817976269

> <r_i_glide_esite>
0

> <r_i_glide_emodel>
-92.1813247795053

> <r_i_glide_energy>
-56.7107734680176

> <r_i_glide_einternal>
4.08377027511597

> <i_i_glide_confnum>
57

> <i_i_glide_posenum>
357

> <r_i_glide_eff_state_penalty>
0

> <s_user_duplicate_titles>
CHEMBL2061_lig390,96395

> <i_f3d_flags>
0

> <s_m_subgroup_title>
dock_pv

> <s_m_subgroupid>
dock_pv

> <b_m_subgroup_collapsed>
1

$$$$
CHEMBL2061_lig391
                    3D
 Schrodinger Suite 2021-1.
 60 64  0  0  1  0            999 V2000
   55.8521   44.8761   30.9390 N   0  0  0  0  0  0
   61.4910   46.1970   28.6056 C   0  0  0  0  0  0
   56.8921   45.7201   29.1454 C   0  0  0  0  0  0
   54.7580   45.1096   30.2287 C   0  0  0  0  0  0
   57.0577   45.1828   30.4698 C   0  0  0  0  0  0
   61.0926   47.2496   27.8183 C   0  0  0  0  0  0
   59.2684   46.2640   28.4132 C   0  0  0  0  0  0
   55.2080   45.8667   28.7070 S   0  0  0  0  0  0
   63.9986   45.6005   32.6267 C   0  0  0  0  0  0
   57.8579   46.1284   28.3285 C   0  0  0  0  0  0
   59.7633   47.2770   27.6783 O   0  0  0  0  0  0
   63.2588   46.6320   33.2671 C   0  0  0  0  0  0
   60.3081   45.6118   29.0473 C   0  0  0  0  0  0
   62.9381   45.9938   28.9886 C   0  0  2  0  0  0
   63.9275   45.4845   31.2341 C   0  0  0  0  0  0
   63.0921   46.2827   30.4740 C   0  0  0  0  0  0
   64.8910   44.6195   33.3920 C   0  0  0  0  0  0
   63.3398   46.9243   34.7825 C   0  0  0  0  0  0
   62.4230   47.4332   32.4767 C   0  0  0  0  0  0
   53.6080   44.8770   30.5390 O   0  0  0  0  0  0
   58.0907   45.0098   31.1046 O   0  0  0  0  0  0
   62.3473   47.2770   31.1073 C   0  0  0  0  0  0
   64.5271   44.6314   34.8837 C   0  0  0  0  0  0
   64.4041   46.0294   35.4852 C   0  0  0  0  0  0
   61.9420   48.3001   27.1919 C   0  0  0  0  0  0
   63.8500   46.8813   28.0916 C   0  0  0  0  0  0
   64.6306   43.1580   32.9390 C   0  0  0  0  0  0
   66.3612   45.0695   33.2061 C   0  0  0  0  0  0
   63.8368   48.3675   34.9644 C   0  0  0  0  0  0
   61.9408   46.7218   35.4144 C   0  0  0  0  0  0
   63.3098   48.3000   27.8616 C   0  0  0  0  0  0
   55.7781   44.4655   31.8557 H   0  0  0  0  0  0
   57.4992   46.4770   27.3887 H   0  0  0  0  0  0
   60.2304   44.7844   29.7390 H   0  0  0  0  0  0
   63.1973   44.9437   28.8394 H   0  0  0  0  0  0
   64.5103   44.7337   30.7238 H   0  0  0  0  0  0
   61.8406   48.2214   32.9261 H   0  0  0  0  0  0
   61.6894   47.9273   30.5504 H   0  0  0  0  0  0
   65.3278   44.0770   35.3506 H   0  0  0  0  0  0
   63.6080   44.0831   35.0849 H   0  0  0  0  0  0
   65.3951   46.4769   35.4177 H   0  0  0  0  0  0
   64.2033   45.9625   36.5558 H   0  0  0  0  0  0
   62.0429   48.0770   26.1324 H   0  0  0  0  0  0
   61.4824   49.2770   27.3390 H   0  0  0  0  0  0
   63.9316   46.4770   27.0900 H   0  0  0  0  0  0
   64.8618   46.9012   28.4929 H   0  0  0  0  0  0
   65.2907   42.4770   33.4721 H   0  0  0  0  0  0
   63.6080   42.8379   33.1370 H   0  0  0  0  0  0
   64.8080   42.9863   31.8799 H   0  0  0  0  0  0
   67.0431   44.4786   33.8178 H   0  0  0  0  0  0
   66.6789   44.9497   32.1700 H   0  0  0  0  0  0
   66.5135   46.1179   33.4657 H   0  0  0  0  0  0
   63.9804   48.6238   36.0154 H   0  0  0  0  0  0
   64.7958   48.4770   34.4583 H   0  0  0  0  0  0
   63.1640   49.1095   34.5390 H   0  0  0  0  0  0
   61.8615   47.2607   36.3588 H   0  0  0  0  0  0
   61.1308   47.1068   34.7954 H   0  0  0  0  0  0
   61.7215   45.6770   35.6097 H   0  0  0  0  0  0
   64.0183   48.8908   27.2793 H   0  0  0  0  0  0
   63.2080   48.7996   28.8195 H   0  0  0  0  0  0
  1  4  1  0  0  0
  1  5  1  0  0  0
  1 32  1  0  0  0
  2 13  1  0  0  0
  2 14  1  0  0  0
  2  6  2  0  0  0
  3  5  1  0  0  0
  3 10  2  0  0  0
  3  8  1  0  0  0
  4  8  1  0  0  0
  4 20  2  0  0  0
  5 21  2  0  0  0
  6 11  1  0  0  0
  6 25  1  0  0  0
  7 10  1  0  0  0
  7 11  1  0  0  0
  7 13  2  0  0  0
  9 15  2  0  0  0
  9 17  1  0  0  0
  9 12  1  0  0  0
 10 33  1  0  0  0
 12 19  2  0  0  0
 12 18  1  0  0  0
 13 34  1  0  0  0
 14 16  1  0  0  0
 14 26  1  0  0  0
 14 35  1  0  0  0
 15 16  1  0  0  0
 15 36  1  0  0  0
 16 22  2  0  0  0
 17 23  1  0  0  0
 17 27  1  0  0  0
 17 28  1  0  0  0
 18 24  1  0  0  0
 18 29  1  0  0  0
 18 30  1  0  0  0
 19 22  1  0  0  0
 19 37  1  0  0  0
 22 38  1  0  0  0
 23 24  1  0  0  0
 23 39  1  0  0  0
 23 40  1  0  0  0
 24 41  1  0  0  0
 24 42  1  0  0  0
 25 31  1  0  0  0
 25 43  1  0  0  0
 25 44  1  0  0  0
 26 31  1  0  0  0
 26 45  1  0  0  0
 26 46  1  0  0  0
 27 47  1  0  0  0
 27 48  1  0  0  0
 27 49  1  0  0  0
 28 50  1  0  0  0
 28 51  1  0  0  0
 28 52  1  0  0  0
 29 53  1  0  0  0
 29 54  1  0  0  0
 29 55  1  0  0  0
 30 56  1  0  0  0
 30 57  1  0  0  0
 30 58  1  0  0  0
 31 59  1  0  0  0
 31 60  1  0  0  0
M  END
> <s_m_entry_id>
30790

> <s_m_entry_name>
dock_pv.3

> <s_m_Source_Path>
/home/csk/Desktop/cluster/DUD-E-result/rxra

> <s_m_Source_File>
dock_pv.maegz

> <i_m_Source_File_Index>
3

> <chembl_id>
CHEMBL305115

> <chembl_pref_name>
None

> <i_lp_mmshare_version>
53161

> <r_lp_tautomer_probability>
1

> <s_lp_Force_Field>
OPLS_2005

> <r_lp_Energy>
30.014438

> <b_lp_Chiralities_Consistent>
1

> <s_lp_Variant>
CHEMBL2061_lig391-1

> <s_i_glide_gridfile>
glide-grid_1mv9

> <i_i_glide_lignum>
452

> <i_i_glide_rotatable_bonds>
2

> <r_i_docking_score>
-12.1394682044905

> <r_i_glide_ligand_efficiency>
-0.391595748531952

> <r_i_glide_ligand_efficiency_sa>
-1.23015130658889

> <r_i_glide_ligand_efficiency_ln>
-2.73782211013397

> <r_i_glide_gscore>
-12.1394682044905

> <r_i_glide_lipo>
-6.8664543681327

> <r_i_glide_hbond>
-0.386390698243598

> <r_i_glide_metal>
0

> <r_i_glide_rewards>
-2.35757178375235

> <r_i_glide_evdw>
-46.4640350341797

> <r_i_glide_ecoul>
-2.77260684967041

> <r_i_glide_erotb>
0.210041424797674

> <r_i_glide_esite>
0

> <r_i_glide_emodel>
-55.3654488995886

> <r_i_glide_energy>
-49.2366418838501

> <r_i_glide_einternal>
2.87002754211426

> <i_i_glide_confnum>
21

> <i_i_glide_posenum>
139

> <r_i_glide_eff_state_penalty>
0

> <s_user_duplicate_titles>
CHEMBL2061_lig391,97103

> <i_f3d_flags>
0

> <s_m_subgroup_title>
dock_pv

> <s_m_subgroupid>
dock_pv

> <b_m_subgroup_collapsed>
1

$$$$
CHEMBL2061_lig443
                    3D
 Schrodinger Suite 2021-1.
 59 62  0  0  1  0            999 V2000
   63.9774   46.8176   35.5054 C   0  0  0  0  0  0
   64.5539   45.4041   35.4430 C   0  0  0  0  0  0
   65.2620   45.0616   34.0992 C   0  0  0  0  0  0
   63.3888   47.2078   34.3447 N   0  0  0  0  0  0
   64.0080   47.4744   36.5393 O   0  0  0  0  0  0
   65.4408   43.5362   34.1541 C   0  0  0  0  0  0
   66.5892   45.8398   33.9691 C   0  0  0  0  0  0
   63.3948   46.4765   33.1259 C   0  0  0  0  0  0
   64.3493   45.4562   32.9308 C   0  0  0  0  0  0
   64.4353   44.8366   31.6769 C   0  0  0  0  0  0
   63.5651   45.1590   30.6404 C   0  0  0  0  0  0
   62.5806   46.1308   30.8562 C   0  0  0  0  0  0
   62.5117   46.7817   32.0848 C   0  0  0  0  0  0
   61.5655   46.4674   29.8414 C   0  0  0  0  0  0
   60.2637   46.0127   30.0575 C   0  0  0  0  0  0
   59.2609   46.2410   29.1247 C   0  0  0  0  0  0
   59.5686   47.0405   28.0296 C   0  0  0  0  0  0
   60.8461   47.5440   27.8151 C   0  0  0  0  0  0
   61.8841   47.2103   28.6922 C   0  0  0  0  0  0
   57.8965   45.5551   29.2254 C   0  0  1  0  0  0
   63.2078   47.5815   28.5446 O   0  0  0  0  0  0
   63.8144   48.0491   27.3388 C   0  0  0  0  0  0
   64.2538   49.2770   27.5449 F   0  0  0  0  0  0
   64.8610   47.2781   27.0724 F   0  0  0  0  0  0
   63.0566   48.0769   26.2546 F   0  0  0  0  0  0
   62.6075   48.4596   34.4515 C   0  0  0  0  0  0
   61.2760   48.2460   35.2032 C   0  0  0  0  0  0
   63.6581   44.3868   29.3305 C   0  0  0  0  0  0
   57.7919   44.1892   29.8534 C   0  0  0  0  0  0
   57.0945   45.3531   30.5235 C   0  0  2  0  0  0
   55.5531   45.3314   30.4173 C   0  0  0  0  0  0
   55.0785   44.8765   29.2245 O   0  0  0  0  0  0
   54.8215   45.6767   31.3388 O   0  0  0  0  0  0
   65.2079   45.2770   36.3012 H   0  0  0  0  0  0
   63.7023   44.7443   35.6179 H   0  0  0  0  0  0
   66.0064   43.2788   35.0378 H   0  0  0  0  0  0
   64.4885   43.0027   34.1843 H   0  0  0  0  0  0
   66.0126   43.1319   33.3390 H   0  0  0  0  0  0
   67.2423   45.6766   34.8274 H   0  0  0  0  0  0
   67.1395   45.5316   33.0806 H   0  0  0  0  0  0
   66.4121   46.9125   33.8832 H   0  0  0  0  0  0
   65.1824   44.0776   31.5052 H   0  0  0  0  0  0
   61.7352   47.5199   32.2090 H   0  0  0  0  0  0
   60.0512   45.4324   30.9388 H   0  0  0  0  0  0
   58.8081   47.2730   27.3182 H   0  0  0  0  0  0
   60.9848   48.1770   26.9558 H   0  0  0  0  0  0
   57.3043   45.7112   28.3225 H   0  0  0  0  0  0
   63.2085   49.2102   34.9703 H   0  0  0  0  0  0
   62.4229   48.9167   33.4809 H   0  0  0  0  0  0
   60.7427   49.1839   35.2941 H   0  0  0  0  0  0
   60.6343   47.5289   34.6914 H   0  0  0  0  0  0
   61.4296   47.8904   36.2224 H   0  0  0  0  0  0
   64.1187   43.4088   29.4756 H   0  0  0  0  0  0
   62.6693   44.1916   28.9146 H   0  0  0  0  0  0
   64.2352   44.9488   28.5971 H   0  0  0  0  0  0
   58.6451   43.7483   30.3655 H   0  0  0  0  0  0
   57.2195   43.4243   29.3417 H   0  0  0  0  0  0
   57.4885   45.7327   31.4672 H   0  0  0  0  0  0
   55.7786   44.5630   28.6494 H   0  0  0  0  0  0
  1  5  2  0  0  0
  1  2  1  0  0  0
  1  4  1  0  0  0
  2  3  1  0  0  0
  2 34  1  0  0  0
  2 35  1  0  0  0
  3  9  1  0  0  0
  3  6  1  0  0  0
  3  7  1  0  0  0
  4  8  1  0  0  0
  4 26  1  0  0  0
  6 36  1  0  0  0
  6 37  1  0  0  0
  6 38  1  0  0  0
  7 39  1  0  0  0
  7 40  1  0  0  0
  7 41  1  0  0  0
  8  9  2  0  0  0
  8 13  1  0  0  0
  9 10  1  0  0  0
 10 11  2  0  0  0
 10 42  1  0  0  0
 11 12  1  0  0  0
 11 28  1  0  0  0
 12 14  1  0  0  0
 12 13  2  0  0  0
 13 43  1  0  0  0
 14 19  1  0  0  0
 14 15  2  0  0  0
 15 16  1  0  0  0
 15 44  1  0  0  0
 16 17  2  0  0  0
 16 20  1  0  0  0
 17 18  1  0  0  0
 17 45  1  0  0  0
 18 19  2  0  0  0
 18 46  1  0  0  0
 19 21  1  0  0  0
 20 29  1  0  0  0
 20 30  1  0  0  0
 20 47  1  0  0  0
 21 22  1  0  0  0
 22 23  1  0  0  0
 22 24  1  0  0  0
 22 25  1  0  0  0
 26 27  1  0  0  0
 26 48  1  0  0  0
 26 49  1  0  0  0
 27 50  1  0  0  0
 27 51  1  0  0  0
 27 52  1  0  0  0
 28 53  1  0  0  0
 28 54  1  0  0  0
 28 55  1  0  0  0
 29 30  1  0  0  0
 29 56  1  0  0  0
 29 57  1  0  0  0
 30 31  1  0  0  0
 30 58  1  0  0  0
 31 32  1  0  0  0
 31 33  2  0  0  0
 32 59  1  0  0  0
M  END
> <s_m_entry_id>
30791

> <s_m_entry_name>
dock_pv.4

> <s_m_Source_Path>
/home/csk/Desktop/cluster/DUD-E-result/rxra

> <s_m_Source_File>
dock_pv.maegz

> <i_m_Source_File_Index>
4

> <chembl_id>
CHEMBL246824

> <chembl_pref_name>
None

> <i_lp_mmshare_version>
53161

> <r_lp_tautomer_probability>
1

> <s_lp_Force_Field>
OPLS_2005

> <r_lp_Energy>
40.602212

> <b_lp_Chiralities_Consistent>
1

> <s_lp_Variant>
CHEMBL2061_lig443-4

> <s_i_glide_gridfile>
glide-grid_1mv9

> <i_i_glide_lignum>
519

> <i_i_glide_rotatable_bonds>
7

> <r_i_docking_score>
-12.0885395722695

> <r_i_glide_ligand_efficiency>
-0.366319380977864

> <r_i_glide_ligand_efficiency_sa>
-1.17498198885987

> <r_i_glide_ligand_efficiency_ln>
-2.68842860976464

> <r_i_glide_gscore>
-12.0885395722695

> <r_i_glide_lipo>
-6.40901621209085

> <r_i_glide_hbond>
-0.0996249494967094

> <r_i_glide_metal>
0

> <r_i_glide_rewards>
-2.96268102954545

> <r_i_glide_evdw>
-47.7870063781738

> <r_i_glide_ecoul>
-4.04061317443848

> <r_i_glide_erotb>
0.378224913937964

> <r_i_glide_esite>
0

> <r_i_glide_emodel>
-77.0838558078657

> <r_i_glide_energy>
-51.8276195526123

> <r_i_glide_einternal>
11.0677223205566

> <i_i_glide_confnum>
21

> <i_i_glide_posenum>
181

> <r_i_glide_eff_state_penalty>
0

> <s_user_duplicate_titles>
CHEMBL2061_lig443,CHEMBL2061_lig455,414671,414612

> <i_f3d_flags>
0

> <s_m_subgroup_title>
dock_pv

> <s_m_subgroupid>
dock_pv

> <b_m_subgroup_collapsed>
1

$$$$
CHEMBL2061_lig44
                    3D
 Schrodinger Suite 2021-1.
 56 59  0  0  1  0            999 V2000
   60.5610   46.8749   28.6278 C   0  0  0  0  0  0
   59.4241   46.8266   27.9805 N   0  0  0  0  0  0
   58.5331   46.2616   28.8450 C   0  0  0  0  0  0
   59.1639   45.8898   30.0554 C   0  0  0  0  0  0
   60.5101   46.2185   29.8549 N   0  0  0  0  0  0
   57.1499   46.0770   28.6718 C   0  0  0  0  0  0
   56.3867   45.6262   29.7528 C   0  0  0  0  0  0
   57.0303   45.2337   30.9231 C   0  0  0  0  0  0
   58.4080   45.3428   31.1080 C   0  0  0  0  0  0
   54.8798   45.6080   29.6993 C   0  0  0  0  0  0
   54.1974   44.8220   30.3566 O   0  0  0  0  0  0
   54.3386   46.6043   28.9394 O   0  0  0  0  0  0
   61.5669   46.5493   32.0231 C   0  0  0  0  0  0
   61.6065   46.0206   30.7314 C   0  0  0  0  0  0
   62.7359   45.2878   30.3304 C   0  0  0  0  0  0
   63.8051   45.1653   31.2116 C   0  0  0  0  0  0
   63.7904   45.6951   32.5113 C   0  0  0  0  0  0
   65.0050   45.4162   33.4375 C   0  0  0  0  0  0
   64.9194   46.2521   34.7395 C   0  0  0  0  0  0
   63.5087   46.2916   35.3279 C   0  0  0  0  0  0
   62.4872   46.9659   34.3742 C   0  0  0  0  0  0
   62.6212   46.3869   32.9428 C   0  0  0  0  0  0
   62.7877   48.4722   34.3114 C   0  0  0  0  0  0
   61.0871   46.6917   34.9768 C   0  0  0  0  0  0
   64.9947   43.9133   33.8171 C   0  0  0  0  0  0
   66.3243   45.8379   32.7410 C   0  0  0  0  0  0
   62.8259   44.5555   28.9941 C   0  0  0  0  0  0
   61.7685   47.6288   28.0524 C   0  0  0  0  0  0
   61.4338   48.8768   27.7388 F   0  0  0  0  0  0
   62.7968   47.7317   28.8904 F   0  0  0  0  0  0
   62.2227   47.0513   26.9433 F   0  0  0  0  0  0
   56.6817   46.3456   27.7390 H   0  0  0  0  0  0
   56.4278   44.8776   31.7390 H   0  0  0  0  0  0
   58.8080   45.0944   32.0746 H   0  0  0  0  0  0
   55.0168   47.1815   28.5834 H   0  0  0  0  0  0
   60.6918   47.1040   32.3215 H   0  0  0  0  0  0
   64.6610   44.5922   30.8880 H   0  0  0  0  0  0
   65.2528   47.2746   34.5581 H   0  0  0  0  0  0
   65.6123   45.8636   35.4872 H   0  0  0  0  0  0
   63.5398   46.8140   36.2852 H   0  0  0  0  0  0
   63.1949   45.2751   35.5681 H   0  0  0  0  0  0
   62.8784   48.8770   35.3175 H   0  0  0  0  0  0
   63.7147   48.6683   33.7838 H   0  0  0  0  0  0
   62.0080   49.0224   33.7844 H   0  0  0  0  0  0
   61.0550   46.9479   36.0369 H   0  0  0  0  0  0
   60.3038   47.2772   34.5008 H   0  0  0  0  0  0
   60.8011   45.6480   34.8833 H   0  0  0  0  0  0
   65.7913   43.6755   34.5231 H   0  0  0  0  0  0
   64.0514   43.6049   34.2689 H   0  0  0  0  0  0
   65.1492   43.2789   32.9441 H   0  0  0  0  0  0
   67.1775   45.7410   33.4148 H   0  0  0  0  0  0
   66.5463   45.2234   31.8690 H   0  0  0  0  0  0
   66.2874   46.8762   32.4088 H   0  0  0  0  0  0
   63.3172   43.5903   29.1234 H   0  0  0  0  0  0
   61.8466   44.3340   28.5707 H   0  0  0  0  0  0
   63.4120   45.1287   28.2769 H   0  0  0  0  0  0
  1  2  2  0  0  0
  1  5  1  0  0  0
  1 28  1  0  0  0
  2  3  1  0  0  0
  3  4  1  0  0  0
  3  6  2  0  0  0
  4  5  1  0  0  0
  4  9  2  0  0  0
  5 14  1  0  0  0
  6  7  1  0  0  0
  6 32  1  0  0  0
  7  8  2  0  0  0
  7 10  1  0  0  0
  8  9  1  0  0  0
  8 33  1  0  0  0
  9 34  1  0  0  0
 10 11  2  0  0  0
 10 12  1  0  0  0
 12 35  1  0  0  0
 13 14  1  0  0  0
 13 22  2  0  0  0
 13 36  1  0  0  0
 14 15  2  0  0  0
 15 16  1  0  0  0
 15 27  1  0  0  0
 16 17  2  0  0  0
 16 37  1  0  0  0
 17 18  1  0  0  0
 17 22  1  0  0  0
 18 19  1  0  0  0
 18 25  1  0  0  0
 18 26  1  0  0  0
 19 20  1  0  0  0
 19 38  1  0  0  0
 19 39  1  0  0  0
 20 21  1  0  0  0
 20 40  1  0  0  0
 20 41  1  0  0  0
 21 22  1  0  0  0
 21 23  1  0  0  0
 21 24  1  0  0  0
 23 42  1  0  0  0
 23 43  1  0  0  0
 23 44  1  0  0  0
 24 45  1  0  0  0
 24 46  1  0  0  0
 24 47  1  0  0  0
 25 48  1  0  0  0
 25 49  1  0  0  0
 25 50  1  0  0  0
 26 51  1  0  0  0
 26 52  1  0  0  0
 26 53  1  0  0  0
 27 54  1  0  0  0
 27 55  1  0  0  0
 27 56  1  0  0  0
 28 29  1  0  0  0
 28 30  1  0  0  0
 28 31  1  0  0  0
M  END
> <s_m_entry_id>
30793

> <s_m_entry_name>
dock_pv.6

> <s_m_Source_Path>
/home/csk/Desktop/cluster/DUD-E-result/rxra

> <s_m_Source_File>
dock_pv.maegz

> <i_m_Source_File_Index>
6

> <chembl_id>
CHEMBL2332887

> <chembl_pref_name>
None

> <i_lp_mmshare_version>
53161

> <r_lp_tautomer_probability>
1

> <s_lp_Force_Field>
OPLS_2005

> <r_lp_Energy>
30.355463

> <b_lp_Chiralities_Consistent>
1

> <s_lp_Variant>
CHEMBL2061_lig44-1

> <s_i_glide_gridfile>
glide-grid_1mv9

> <i_i_glide_lignum>
61

> <i_i_glide_rotatable_bonds>
4

> <r_i_docking_score>
-12.0342498126292

> <r_i_glide_ligand_efficiency>
-0.388201606859006

> <r_i_glide_ligand_efficiency_sa>
-1.21948901561823

> <r_i_glide_ligand_efficiency_ln>
-2.71409213821278

> <r_i_glide_gscore>
-12.0342498126292

> <r_i_glide_lipo>
-6.10239149997674

> <r_i_glide_hbond>
-0.220957722867309

> <r_i_glide_metal>
0

> <r_i_glide_rewards>
-3.07287567181811

> <r_i_glide_evdw>
-46.6244316101074

> <r_i_glide_ecoul>
-3.47594308853149

> <r_i_glide_erotb>
0.214588125818075

> <r_i_glide_esite>
0

> <r_i_glide_emodel>
-76.6139063126106

> <r_i_glide_energy>
-50.1003746986389

> <r_i_glide_einternal>
4.37397813796997

> <i_i_glide_confnum>
11

> <i_i_glide_posenum>
242

> <r_i_glide_eff_state_penalty>
0

> <s_user_duplicate_titles>
CHEMBL2061_lig44

> <i_f3d_flags>
0

> <s_m_subgroup_title>
dock_pv

> <s_m_subgroupid>
dock_pv

> <b_m_subgroup_collapsed>
1

$$$$
CHEMBL2061_lig118
                    3D
 Schrodinger Suite 2021-1.
 60 62  0  0  1  0            999 V2000
   58.7263   46.0122   29.6981 C   0  0  0  0  0  0
   59.8927   46.0770   30.4097 O   0  0  0  0  0  0
   62.7268   46.6030   31.2824 C   0  0  0  0  0  0
   57.5171   45.5238   30.3590 C   0  0  0  0  0  0
   60.8399   46.6142   29.5865 C   0  0  0  0  0  0
   63.8967   45.8456   31.4940 C   0  0  0  0  0  0
   56.3544   45.3231   29.6836 C   0  0  0  0  0  0
   62.1847   46.8420   29.9107 C   0  0  0  0  0  0
   58.9444   46.4750   28.4088 C   0  0  0  0  0  0
   64.4246   45.6997   32.7891 C   0  0  0  0  0  0
   62.0622   47.1340   32.3950 C   0  0  0  0  0  0
   60.2997   46.8735   28.3121 C   0  0  0  0  0  0
   63.7468   46.2548   33.8672 C   0  0  0  0  0  0
   62.5635   46.9558   33.6868 C   0  0  0  0  0  0
   55.0953   44.9084   30.2553 C   0  0  0  0  0  0
   64.5006   45.2034   30.4394 O   0  0  0  0  0  0
   54.6527   45.2770   31.3389 O   0  0  0  0  0  0
   56.2417   45.5042   28.3463 F   0  0  0  0  0  0
   65.7259   44.9559   33.0785 C   0  0  0  0  0  0
   64.0162   42.8253   30.5124 C   0  0  0  0  0  0
   63.7066   44.1643   29.8591 C   0  0  0  0  0  0
   61.8391   47.4856   34.9117 C   0  0  0  0  0  0
   54.4079   44.0770   29.4276 O   0  0  0  0  0  0
   57.7194   45.3011   31.8613 C   0  0  0  0  0  0
   65.2080   42.4380   30.1390 F   0  0  0  0  0  0
   64.0080   42.7896   31.8382 F   0  0  0  0  0  0
   62.9952   47.2330   28.8359 C   0  0  0  0  0  0
   61.1222   47.3987   27.3110 C   0  0  0  0  0  0
   62.4814   47.5389   27.5786 C   0  0  0  0  0  0
   65.5667   43.8602   34.1583 C   0  0  0  0  0  0
   66.8079   45.9458   33.5125 C   0  0  0  0  0  0
   62.7352   48.3975   35.7713 C   0  0  0  0  0  0
   61.2694   46.3308   35.7383 C   0  0  0  0  0  0
   58.2117   46.4791   27.6255 H   0  0  0  0  0  0
   61.1479   47.6863   32.2474 H   0  0  0  0  0  0
   64.1409   46.1283   34.8644 H   0  0  0  0  0  0
   66.0634   44.4771   32.1611 H   0  0  0  0  0  0
   63.3030   42.0771   30.1740 H   0  0  0  0  0  0
   62.6330   44.3339   29.9183 H   0  0  0  0  0  0
   63.9300   44.1169   28.7937 H   0  0  0  0  0  0
   60.9940   48.0770   34.5808 H   0  0  0  0  0  0
   54.8956   43.8424   28.6293 H   0  0  0  0  0  0
   58.3350   46.0768   32.3155 H   0  0  0  0  0  0
   56.7946   45.3064   32.4246 H   0  0  0  0  0  0
   58.2124   44.3456   32.0312 H   0  0  0  0  0  0
   64.0637   47.2768   28.9628 H   0  0  0  0  0  0
   60.7296   47.6317   26.3324 H   0  0  0  0  0  0
   63.1515   47.8671   26.7954 H   0  0  0  0  0  0
   64.6580   43.2744   34.0355 H   0  0  0  0  0  0
   66.4076   43.1689   34.1385 H   0  0  0  0  0  0
   65.5264   44.2886   35.1599 H   0  0  0  0  0  0
   67.0178   46.6899   32.7447 H   0  0  0  0  0  0
   66.5108   46.4764   34.4163 H   0  0  0  0  0  0
   67.7219   45.4082   33.7418 H   0  0  0  0  0  0
   63.2221   49.1613   35.1649 H   0  0  0  0  0  0
   62.1427   48.8949   36.5387 H   0  0  0  0  0  0
   63.5214   47.8403   36.2820 H   0  0  0  0  0  0
   60.5228   45.7644   35.1796 H   0  0  0  0  0  0
   62.0477   45.6433   36.0673 H   0  0  0  0  0  0
   60.8080   46.7282   36.6314 H   0  0  0  0  0  0
  1  2  1  0  0  0
  1  4  1  0  0  0
  1  9  2  0  0  0
  2  5  1  0  0  0
  3  8  1  0  0  0
  3  6  1  0  0  0
  3 11  2  0  0  0
  4  7  2  0  0  0
  4 24  1  0  0  0
  5  8  1  0  0  0
  5 12  2  0  0  0
  6 10  2  0  0  0
  6 16  1  0  0  0
  7 15  1  0  0  0
  7 18  1  0  0  0
  8 27  2  0  0  0
  9 12  1  0  0  0
  9 34  1  0  0  0
 10 19  1  0  0  0
 10 13  1  0  0  0
 11 14  1  0  0  0
 11 35  1  0  0  0
 12 28  1  0  0  0
 13 14  2  0  0  0
 13 36  1  0  0  0
 14 22  1  0  0  0
 15 17  2  0  0  0
 15 23  1  0  0  0
 16 21  1  0  0  0
 19 30  1  0  0  0
 19 31  1  0  0  0
 19 37  1  0  0  0
 20 21  1  0  0  0
 20 25  1  0  0  0
 20 26  1  0  0  0
 20 38  1  0  0  0
 21 39  1  0  0  0
 21 40  1  0  0  0
 22 32  1  0  0  0
 22 33  1  0  0  0
 22 41  1  0  0  0
 23 42  1  0  0  0
 24 43  1  0  0  0
 24 44  1  0  0  0
 24 45  1  0  0  0
 27 29  1  0  0  0
 27 46  1  0  0  0
 28 29  2  0  0  0
 28 47  1  0  0  0
 29 48  1  0  0  0
 30 49  1  0  0  0
 30 50  1  0  0  0
 30 51  1  0  0  0
 31 52  1  0  0  0
 31 53  1  0  0  0
 31 54  1  0  0  0
 32 55  1  0  0  0
 32 56  1  0  0  0
 32 57  1  0  0  0
 33 58  1  0  0  0
 33 59  1  0  0  0
 33 60  1  0  0  0
M  END
> <s_m_entry_id>
30794

> <s_m_entry_name>
dock_pv.7

> <s_m_Source_Path>
/home/csk/Desktop/cluster/DUD-E-result/rxra

> <s_m_Source_File>
dock_pv.maegz

> <i_m_Source_File_Index>
7

> <chembl_id>
CHEMBL41422

> <chembl_pref_name>
None

> <i_lp_mmshare_version>
53161

> <r_lp_tautomer_probability>
1

> <s_lp_Force_Field>
OPLS_2005

> <r_lp_Energy>
30.992235

> <b_lp_Chiralities_Consistent>
1

> <s_lp_Variant>
CHEMBL2061_lig118-1

> <s_i_glide_gridfile>
glide-grid_1mv9

> <i_i_glide_lignum>
157

> <i_i_glide_rotatable_bonds>
9

> <r_i_docking_score>
-11.9788666523859

> <r_i_glide_ligand_efficiency>
-0.36299595916321

> <r_i_glide_ligand_efficiency_sa>
-1.16432199930874

> <r_i_glide_ligand_efficiency_ln>
-2.66403792023852

> <r_i_glide_gscore>
-11.9788666523859

> <r_i_glide_lipo>
-7.1423361430585

> <r_i_glide_hbond>
-0.0743946817523724

> <r_i_glide_metal>
0

> <r_i_glide_rewards>
-2.17148957472558

> <r_i_glide_evdw>
-47.1142997741699

> <r_i_glide_ecoul>
-4.73041391372681

> <r_i_glide_erotb>
0.474630822918031

> <r_i_glide_esite>
0

> <r_i_glide_emodel>
-71.6580314615652

> <r_i_glide_energy>
-51.8447136878967

> <r_i_glide_einternal>
6.52403926849365

> <i_i_glide_confnum>
126

> <i_i_glide_posenum>
44

> <r_i_glide_eff_state_penalty>
0

> <s_user_duplicate_titles>
CHEMBL2061_lig118,60726

> <i_f3d_flags>
0

> <s_m_subgroup_title>
dock_pv

> <s_m_subgroupid>
dock_pv

> <b_m_subgroup_collapsed>
1

$$$$
CHEMBL2061_lig123
                    3D
 Schrodinger Suite 2021-1.
 66 68  0  0  1  0            999 V2000
   58.7322   46.0116   29.7303 C   0  0  0  0  0  0
   59.8984   46.0972   30.4417 O   0  0  0  0  0  0
   62.7561   46.6792   31.2861 C   0  0  0  0  0  0
   57.5225   45.5147   30.3836 C   0  0  0  0  0  0
   60.8267   46.6819   29.6239 C   0  0  0  0  0  0
   56.3667   45.3017   29.6982 C   0  0  0  0  0  0
   63.8713   45.8464   31.4916 C   0  0  0  0  0  0
   62.1810   46.8970   29.9270 C   0  0  0  0  0  0
   58.9371   46.4813   28.4435 C   0  0  0  0  0  0
   64.4615   45.7583   32.7717 C   0  0  0  0  0  0
   62.1986   47.3503   32.3839 C   0  0  0  0  0  0
   60.2718   46.9473   28.3543 C   0  0  0  0  0  0
   63.8760   46.4386   33.8384 C   0  0  0  0  0  0
   62.7565   47.2447   33.6636 C   0  0  0  0  0  0
   55.0998   44.9003   30.2610 C   0  0  0  0  0  0
   54.6531   45.2787   31.3393 O   0  0  0  0  0  0
   56.2683   45.4597   28.3566 F   0  0  0  0  0  0
   65.7426   44.9619   33.0493 C   0  0  0  0  0  0
   62.1769   48.0035   34.8611 C   0  0  0  0  0  0
   64.3177   45.0835   30.4312 O   0  0  0  0  0  0
   54.4076   44.0772   29.4285 O   0  0  0  0  0  0
   57.7161   45.3081   31.8872 C   0  0  0  0  0  0
   62.9753   47.2783   28.8384 C   0  0  0  0  0  0
   61.0725   47.5156   27.3534 C   0  0  0  0  0  0
   62.4387   47.6382   27.6030 C   0  0  0  0  0  0
   65.4681   43.6871   33.8754 C   0  0  0  0  0  0
   66.8084   45.8135   33.7580 C   0  0  0  0  0  0
   64.1577   43.6779   30.6323 C   0  0  0  0  0  0
   63.2554   48.6092   35.7850 C   0  0  0  0  0  0
   61.2265   47.1106   35.6704 C   0  0  0  0  0  0
   63.3696   42.9565   29.5383 C   0  0  0  0  0  0
   62.0984   43.6201   29.0168 C   0  0  0  0  0  0
   62.3148   44.2549   27.6582 C   0  0  0  0  0  0
   58.2038   46.4778   27.6592 H   0  0  0  0  0  0
   61.3420   47.9878   32.2250 H   0  0  0  0  0  0
   64.3091   46.3382   34.8220 H   0  0  0  0  0  0
   66.1953   44.6832   32.0977 H   0  0  0  0  0  0
   61.6066   48.8545   34.4848 H   0  0  0  0  0  0
   54.8979   43.8334   28.6338 H   0  0  0  0  0  0
   58.3432   46.0765   32.3385 H   0  0  0  0  0  0
   56.7873   45.3348   32.4436 H   0  0  0  0  0  0
   58.1950   44.3474   32.0655 H   0  0  0  0  0  0
   64.0466   47.2773   28.9465 H   0  0  0  0  0  0
   60.6652   47.7504   26.3812 H   0  0  0  0  0  0
   63.0991   47.9684   26.8135 H   0  0  0  0  0  0
   64.8654   42.9540   33.3391 H   0  0  0  0  0  0
   66.4063   43.2027   34.1384 H   0  0  0  0  0  0
   64.9550   43.9164   34.8132 H   0  0  0  0  0  0
   67.0421   46.7224   33.1966 H   0  0  0  0  0  0
   66.5024   46.1016   34.7635 H   0  0  0  0  0  0
   67.7246   45.2414   33.8715 H   0  0  0  0  0  0
   65.1449   43.2245   30.6890 H   0  0  0  0  0  0
   63.6651   43.4489   31.5801 H   0  0  0  0  0  0
   63.9647   49.2149   35.2226 H   0  0  0  0  0  0
   62.7924   49.2510   36.5363 H   0  0  0  0  0  0
   63.8175   47.8510   36.3295 H   0  0  0  0  0  0
   60.4079   46.7413   35.0529 H   0  0  0  0  0  0
   61.7366   46.2472   36.1009 H   0  0  0  0  0  0
   60.8075   47.6739   36.5032 H   0  0  0  0  0  0
   64.0054   42.6261   28.7190 H   0  0  0  0  0  0
   63.0259   42.0737   30.0446 H   0  0  0  0  0  0
   61.3054   42.8784   28.9370 H   0  0  0  0  0  0
   61.7303   44.3310   29.7402 H   0  0  0  0  0  0
   61.4869   44.8760   27.3424 H   0  0  0  0  0  0
   63.2078   44.8732   27.6413 H   0  0  0  0  0  0
   62.4059   43.4511   26.9399 H   0  0  0  0  0  0
  1  2  1  0  0  0
  1  4  1  0  0  0
  1  9  2  0  0  0
  2  5  1  0  0  0
  3  8  1  0  0  0
  3  7  1  0  0  0
  3 11  2  0  0  0
  4  6  2  0  0  0
  4 22  1  0  0  0
  5  8  1  0  0  0
  5 12  2  0  0  0
  6 15  1  0  0  0
  6 17  1  0  0  0
  7 10  2  0  0  0
  7 20  1  0  0  0
  8 23  2  0  0  0
  9 12  1  0  0  0
  9 34  1  0  0  0
 10 18  1  0  0  0
 10 13  1  0  0  0
 11 14  1  0  0  0
 11 35  1  0  0  0
 12 24  1  0  0  0
 13 14  2  0  0  0
 13 36  1  0  0  0
 14 19  1  0  0  0
 15 16  2  0  0  0
 15 21  1  0  0  0
 18 26  1  0  0  0
 18 27  1  0  0  0
 18 37  1  0  0  0
 19 29  1  0  0  0
 19 30  1  0  0  0
 19 38  1  0  0  0
 20 28  1  0  0  0
 21 39  1  0  0  0
 22 40  1  0  0  0
 22 41  1  0  0  0
 22 42  1  0  0  0
 23 25  1  0  0  0
 23 43  1  0  0  0
 24 25  2  0  0  0
 24 44  1  0  0  0
 25 45  1  0  0  0
 26 46  1  0  0  0
 26 47  1  0  0  0
 26 48  1  0  0  0
 27 49  1  0  0  0
 27 50  1  0  0  0
 27 51  1  0  0  0
 28 31  1  0  0  0
 28 52  1  0  0  0
 28 53  1  0  0  0
 29 54  1  0  0  0
 29 55  1  0  0  0
 29 56  1  0  0  0
 30 57  1  0  0  0
 30 58  1  0  0  0
 30 59  1  0  0  0
 31 32  1  0  0  0
 31 60  1  0  0  0
 31 61  1  0  0  0
 32 33  1  0  0  0
 32 62  1  0  0  0
 32 63  1  0  0  0
 33 64  1  0  0  0
 33 65  1  0  0  0
 33 66  1  0  0  0
M  END
> <s_m_entry_id>
30795

> <s_m_entry_name>
dock_pv.8

> <s_m_Source_Path>
/home/csk/Desktop/cluster/DUD-E-result/rxra

> <s_m_Source_File>
dock_pv.maegz

> <i_m_Source_File_Index>
8

> <chembl_id>
CHEMBL290246

> <chembl_pref_name>
None

> <i_lp_mmshare_version>
53161

> <r_lp_tautomer_probability>
1

> <s_lp_Force_Field>
OPLS_2005

> <r_lp_Energy>
31.744889

> <b_lp_Chiralities_Consistent>
1

> <s_lp_Variant>
CHEMBL2061_lig123-1

> <s_i_glide_gridfile>
glide-grid_1mv9

> <i_i_glide_lignum>
162

> <i_i_glide_rotatable_bonds>
10

> <r_i_docking_score>
-11.9624159734318

> <r_i_glide_ligand_efficiency>
-0.362497453740357

> <r_i_glide_ligand_efficiency_sa>
-1.16272302605311

> <r_i_glide_ligand_efficiency_ln>
-2.66037937441617

> <r_i_glide_gscore>
-11.9624159734318

> <r_i_glide_lipo>
-7.24597093898491

> <r_i_glide_hbond>
-0.074625604137752

> <r_i_glide_metal>
0

> <r_i_glide_rewards>
-1.95697229764297

> <r_i_glide_evdw>
-51.7520141601562

> <r_i_glide_ecoul>
-4.56730365753174

> <r_i_glide_erotb>
0.587849123971416

> <r_i_glide_esite>
0

> <r_i_glide_emodel>
-80.9987876055124

> <r_i_glide_energy>
-56.319317817688

> <r_i_glide_einternal>
9.15006637573242

> <i_i_glide_confnum>
62

> <i_i_glide_posenum>
66

> <r_i_glide_eff_state_penalty>
0

> <s_user_duplicate_titles>
CHEMBL2061_lig123,60727

> <i_f3d_flags>
0

> <s_m_subgroup_title>
dock_pv

> <s_m_subgroupid>
dock_pv

> <b_m_subgroup_collapsed>
1

$$$$
CHEMBL2061_lig456
                    3D
 Schrodinger Suite 2021-1.
 59 62  0  0  1  0            999 V2000
   64.0811   46.8850   35.4250 C   0  0  0  0  0  0
   65.1396   45.8026   35.1963 C   0  0  0  0  0  0
   65.6233   45.5942   33.7370 C   0  0  0  0  0  0
   63.3211   47.1733   34.3307 N   0  0  0  0  0  0
   63.9730   47.3981   36.5385 O   0  0  0  0  0  0
   66.2463   44.1947   33.7193 C   0  0  0  0  0  0
   66.6429   46.6804   33.3399 C   0  0  0  0  0  0
   63.3597   46.4962   33.0788 C   0  0  0  0  0  0
   64.4570   45.6790   32.7572 C   0  0  0  0  0  0
   64.4782   45.0098   31.5262 C   0  0  0  0  0  0
   63.4594   45.1542   30.5961 C   0  0  0  0  0  0
   62.4038   46.0330   30.8749 C   0  0  0  0  0  0
   62.3607   46.6760   32.1124 C   0  0  0  0  0  0
   61.3071   46.2843   29.9136 C   0  0  0  0  0  0
   59.9984   46.0037   30.3230 C   0  0  0  0  0  0
   58.9287   46.0878   29.4424 C   0  0  0  0  0  0
   59.1936   46.4848   28.1353 C   0  0  0  0  0  0
   60.4770   46.8591   27.7328 C   0  0  0  0  0  0
   61.5607   46.7751   28.6189 C   0  0  0  0  0  0
   57.5222   45.7300   29.9270 C   0  0  2  0  0  0
   62.8870   47.0465   28.2933 O   0  0  0  0  0  0
   63.3317   47.9552   27.2753 C   0  0  0  0  0  0
   64.4901   47.4874   26.8197 F   0  0  0  0  0  0
   62.5336   48.0769   26.2358 F   0  0  0  0  0  0
   63.5626   49.1749   27.7386 F   0  0  0  0  0  0
   62.2395   48.1501   34.5804 C   0  0  0  0  0  0
   60.9459   47.5075   35.1106 C   0  0  0  0  0  0
   63.5071   44.2941   29.3374 C   0  0  0  0  0  0
   56.9761   44.3568   29.7368 C   0  0  0  0  0  0
   56.3420   45.5159   28.9772 C   0  0  1  0  0  0
   54.9764   46.0097   29.4777 C   0  0  0  0  0  0
   54.4206   46.8813   28.5914 O   0  0  0  0  0  0
   54.4505   45.6749   30.5391 O   0  0  0  0  0  0
   65.9895   46.0764   35.8156 H   0  0  0  0  0  0
   64.7112   44.8896   35.6131 H   0  0  0  0  0  0
   66.9406   44.0810   34.5395 H   0  0  0  0  0  0
   65.5106   43.3912   33.7761 H   0  0  0  0  0  0
   66.8340   44.0770   32.8224 H   0  0  0  0  0  0
   67.6071   46.4753   33.8032 H   0  0  0  0  0  0
   66.8079   46.6907   32.2631 H   0  0  0  0  0  0
   66.3190   47.6800   33.6282 H   0  0  0  0  0  0
   65.3067   44.3678   31.2718 H   0  0  0  0  0  0
   61.5174   47.3221   32.2987 H   0  0  0  0  0  0
   59.8134   45.6766   31.3359 H   0  0  0  0  0  0
   58.4047   46.5307   27.4078 H   0  0  0  0  0  0
   60.5919   47.1595   26.7064 H   0  0  0  0  0  0
   57.3288   46.0767   30.9428 H   0  0  0  0  0  0
   62.5737   48.8767   35.3170 H   0  0  0  0  0  0
   62.0487   48.7551   33.6937 H   0  0  0  0  0  0
   60.2140   48.2793   35.3427 H   0  0  0  0  0  0
   60.4960   46.8274   34.3872 H   0  0  0  0  0  0
   61.1282   46.9544   36.0331 H   0  0  0  0  0  0
   64.0081   43.3450   29.5299 H   0  0  0  0  0  0
   62.5069   44.0354   28.9896 H   0  0  0  0  0  0
   64.0390   44.8085   28.5397 H   0  0  0  0  0  0
   56.4447   43.8782   30.5612 H   0  0  0  0  0  0
   57.6611   43.6760   29.2520 H   0  0  0  0  0  0
   56.4871   45.5787   27.9000 H   0  0  0  0  0  0
   55.0084   47.0489   27.8522 H   0  0  0  0  0  0
  1  5  2  0  0  0
  1  2  1  0  0  0
  1  4  1  0  0  0
  2  3  1  0  0  0
  2 34  1  0  0  0
  2 35  1  0  0  0
  3  9  1  0  0  0
  3  6  1  0  0  0
  3  7  1  0  0  0
  4  8  1  0  0  0
  4 26  1  0  0  0
  6 36  1  0  0  0
  6 37  1  0  0  0
  6 38  1  0  0  0
  7 39  1  0  0  0
  7 40  1  0  0  0
  7 41  1  0  0  0
  8  9  2  0  0  0
  8 13  1  0  0  0
  9 10  1  0  0  0
 10 11  2  0  0  0
 10 42  1  0  0  0
 11 12  1  0  0  0
 11 28  1  0  0  0
 12 14  1  0  0  0
 12 13  2  0  0  0
 13 43  1  0  0  0
 14 19  1  0  0  0
 14 15  2  0  0  0
 15 16  1  0  0  0
 15 44  1  0  0  0
 16 17  2  0  0  0
 16 20  1  0  0  0
 17 18  1  0  0  0
 17 45  1  0  0  0
 18 19  2  0  0  0
 18 46  1  0  0  0
 19 21  1  0  0  0
 20 29  1  0  0  0
 20 30  1  0  0  0
 20 47  1  0  0  0
 21 22  1  0  0  0
 22 23  1  0  0  0
 22 24  1  0  0  0
 22 25  1  0  0  0
 26 27  1  0  0  0
 26 48  1  0  0  0
 26 49  1  0  0  0
 27 50  1  0  0  0
 27 51  1  0  0  0
 27 52  1  0  0  0
 28 53  1  0  0  0
 28 54  1  0  0  0
 28 55  1  0  0  0
 29 30  1  0  0  0
 29 56  1  0  0  0
 29 57  1  0  0  0
 30 31  1  0  0  0
 30 58  1  0  0  0
 31 32  1  0  0  0
 31 33  2  0  0  0
 32 59  1  0  0  0
M  END
> <s_m_entry_id>
30796

> <s_m_entry_name>
dock_pv.9

> <s_m_Source_Path>
/home/csk/Desktop/cluster/DUD-E-result/rxra

> <s_m_Source_File>
dock_pv.maegz

> <i_m_Source_File_Index>
9

> <chembl_id>
CHEMBL247401

> <chembl_pref_name>
None

> <i_lp_mmshare_version>
53161

> <r_lp_tautomer_probability>
1

> <s_lp_Force_Field>
OPLS_2005

> <r_lp_Energy>
40.828699

> <b_lp_Chiralities_Consistent>
1

> <s_lp_Variant>
CHEMBL2061_lig456-1

> <s_i_glide_gridfile>
glide-grid_1mv9

> <i_i_glide_lignum>
532

> <i_i_glide_rotatable_bonds>
7

> <r_i_docking_score>
-11.8980100624438

> <r_i_glide_ligand_efficiency>
-0.360545759467993

> <r_i_glide_ligand_efficiency_sa>
-1.15646289968014

> <r_i_glide_ligand_efficiency_ln>
-2.6460558332884

> <r_i_glide_gscore>
-11.8980100624438

> <r_i_glide_lipo>
-6.25206971566744

> <r_i_glide_hbond>
-0.16

> <r_i_glide_metal>
0

> <r_i_glide_rewards>
-2.92810271016954

> <r_i_glide_evdw>
-49.0412445068359

> <r_i_glide_ecoul>
-3.22666883468628

> <r_i_glide_erotb>
0.378224913937964

> <r_i_glide_esite>
0

> <r_i_glide_emodel>
-78.4866733243727

> <r_i_glide_energy>
-52.2679133415222

> <r_i_glide_einternal>
7.73345613479614

> <i_i_glide_confnum>
18

> <i_i_glide_posenum>
226

> <r_i_glide_eff_state_penalty>
0

> <s_user_duplicate_titles>
CHEMBL2061_lig456,CHEMBL2061_lig443,414670

> <i_f3d_flags>
0

> <s_m_subgroup_title>
dock_pv

> <s_m_subgroupid>
dock_pv

> <b_m_subgroup_collapsed>
1

$$$$
CHEMBL2061_lig460
                    3D
 Schrodinger Suite 2021-1.
 62 65  0  0  1  0            999 V2000
   64.0848   46.6891   35.3730 C   0  0  0  0  0  0
   65.4441   46.3407   34.7480 C   0  0  0  0  0  0
   65.3974   45.2101   33.6797 C   0  0  0  0  0  0
   63.0451   46.5642   34.5060 N   0  0  0  0  0  0
   64.0080   47.0550   36.5399 O   0  0  0  0  0  0
   65.1023   43.8339   34.3130 C   0  0  0  0  0  0
   66.7771   45.2509   33.0092 C   0  0  0  0  0  0
   63.1743   46.2759   33.1224 C   0  0  0  0  0  0
   64.2848   45.5348   32.6773 C   0  0  0  0  0  0
   64.2987   45.0673   31.3592 C   0  0  0  0  0  0
   63.2530   45.3260   30.4807 C   0  0  0  0  0  0
   62.1996   46.1640   30.8885 C   0  0  0  0  0  0
   62.1795   46.6301   32.2041 C   0  0  0  0  0  0
   61.0298   46.4342   30.0214 C   0  0  0  0  0  0
   59.7781   46.0194   30.4712 C   0  0  0  0  0  0
   58.6748   46.0286   29.6336 C   0  0  0  0  0  0
   58.8242   46.4773   28.3282 C   0  0  0  0  0  0
   60.0378   47.0079   27.8957 C   0  0  0  0  0  0
   61.1473   47.0123   28.7491 C   0  0  0  0  0  0
   57.3431   45.5555   30.1729 C   0  0  2  0  0  0
   62.3584   47.5736   28.4111 O   0  0  0  0  0  0
   61.6929   46.8097   35.0630 C   0  0  0  0  0  0
   61.3892   48.2898   35.3304 C   0  0  0  0  0  0
   63.2675   44.5773   29.1508 C   0  0  0  0  0  0
   56.9281   44.1223   30.0674 C   0  0  0  0  0  0
   56.1736   45.1815   29.2757 C   0  0  1  0  0  0
   54.8223   45.6170   29.8355 C   0  0  0  0  0  0
   54.1929   46.4820   28.9958 O   0  0  0  0  0  0
   54.4027   45.2803   30.9389 O   0  0  0  0  0  0
   62.7333   47.6778   27.0406 C   0  0  0  0  0  0
   64.2453   47.9213   26.9992 C   0  0  0  0  0  0
   64.8081   47.0972   27.8657 F   0  0  0  0  0  0
   64.8080   47.6775   25.8196 F   0  0  0  0  0  0
   64.5616   49.1675   27.3390 F   0  0  0  0  0  0
   65.8065   47.2743   34.3142 H   0  0  0  0  0  0
   66.1257   46.0770   35.5531 H   0  0  0  0  0  0
   65.9352   43.5264   34.9390 H   0  0  0  0  0  0
   64.1985   43.8343   34.9235 H   0  0  0  0  0  0
   64.9818   43.0618   33.5516 H   0  0  0  0  0  0
   67.5744   45.0897   33.7384 H   0  0  0  0  0  0
   66.8657   44.4773   32.2524 H   0  0  0  0  0  0
   66.9435   46.2194   32.5390 H   0  0  0  0  0  0
   65.1004   44.4290   31.0217 H   0  0  0  0  0  0
   61.3425   47.2366   32.5159 H   0  0  0  0  0  0
   59.6630   45.6770   31.4870 H   0  0  0  0  0  0
   57.9779   46.4769   27.6723 H   0  0  0  0  0  0
   60.1023   47.4306   26.9072 H   0  0  0  0  0  0
   57.1198   45.9961   31.1479 H   0  0  0  0  0  0
   60.9219   46.3917   34.4161 H   0  0  0  0  0  0
   61.5832   46.2459   35.9916 H   0  0  0  0  0  0
   60.3456   48.4427   35.5982 H   0  0  0  0  0  0
   61.9851   48.6794   36.1559 H   0  0  0  0  0  0
   61.6082   48.8770   34.4420 H   0  0  0  0  0  0
   64.1060   44.9002   28.5393 H   0  0  0  0  0  0
   63.4134   43.5119   29.3356 H   0  0  0  0  0  0
   62.3481   44.6633   28.5751 H   0  0  0  0  0  0
   56.4619   43.6741   30.9392 H   0  0  0  0  0  0
   57.6082   43.4344   29.5706 H   0  0  0  0  0  0
   56.2693   45.1921   28.1909 H   0  0  0  0  0  0
   54.7333   46.6637   28.2244 H   0  0  0  0  0  0
   62.5203   46.7351   26.5392 H   0  0  0  0  0  0
   62.1898   48.4745   26.5393 H   0  0  0  0  0  0
  1  5  2  0  0  0
  1  2  1  0  0  0
  1  4  1  0  0  0
  2  3  1  0  0  0
  2 35  1  0  0  0
  2 36  1  0  0  0
  3  9  1  0  0  0
  3  6  1  0  0  0
  3  7  1  0  0  0
  4  8  1  0  0  0
  4 22  1  0  0  0
  6 37  1  0  0  0
  6 38  1  0  0  0
  6 39  1  0  0  0
  7 40  1  0  0  0
  7 41  1  0  0  0
  7 42  1  0  0  0
  8  9  2  0  0  0
  8 13  1  0  0  0
  9 10  1  0  0  0
 10 11  2  0  0  0
 10 43  1  0  0  0
 11 24  1  0  0  0
 11 12  1  0  0  0
 12 14  1  0  0  0
 12 13  2  0  0  0
 13 44  1  0  0  0
 14 19  1  0  0  0
 14 15  2  0  0  0
 15 16  1  0  0  0
 15 45  1  0  0  0
 16 17  2  0  0  0
 16 20  1  0  0  0
 17 18  1  0  0  0
 17 46  1  0  0  0
 18 19  2  0  0  0
 18 47  1  0  0  0
 19 21  1  0  0  0
 20 25  1  0  0  0
 20 26  1  0  0  0
 20 48  1  0  0  0
 21 30  1  0  0  0
 22 23  1  0  0  0
 22 49  1  0  0  0
 22 50  1  0  0  0
 23 51  1  0  0  0
 23 52  1  0  0  0
 23 53  1  0  0  0
 24 54  1  0  0  0
 24 55  1  0  0  0
 24 56  1  0  0  0
 25 26  1  0  0  0
 25 57  1  0  0  0
 25 58  1  0  0  0
 26 27  1  0  0  0
 26 59  1  0  0  0
 27 28  1  0  0  0
 27 29  2  0  0  0
 28 60  1  0  0  0
 30 31  1  0  0  0
 30 61  1  0  0  0
 30 62  1  0  0  0
 31 32  1  0  0  0
 31 33  1  0  0  0
 31 34  1  0  0  0
M  END
> <s_m_entry_id>
30798

> <s_m_entry_name>
dock_pv.11

> <s_m_Source_Path>
/home/csk/Desktop/cluster/DUD-E-result/rxra

> <s_m_Source_File>
dock_pv.maegz

> <i_m_Source_File_Index>
11

> <chembl_id>
CHEMBL246210

> <chembl_pref_name>
None

> <i_lp_mmshare_version>
53161

> <r_lp_tautomer_probability>
1

> <s_lp_Force_Field>
OPLS_2005

> <r_lp_Energy>
43.051175

> <b_lp_Chiralities_Consistent>
1

> <s_lp_Variant>
CHEMBL2061_lig460-1

> <s_i_glide_gridfile>
glide-grid_1mv9

> <i_i_glide_lignum>
545

> <i_i_glide_rotatable_bonds>
8

> <r_i_docking_score>
-11.8865436056389

> <r_i_glide_ligand_efficiency>
-0.349604223695261

> <r_i_glide_ligand_efficiency_sa>
-1.13258196752832

> <r_i_glide_ligand_efficiency_ln>
-2.62607088874054

> <r_i_glide_gscore>
-11.8865436056389

> <r_i_glide_lipo>
-6.60703534192103

> <r_i_glide_hbond>
-0.158949629096931

> <r_i_glide_metal>
0

> <r_i_glide_rewards>
-2.41725680257641

> <r_i_glide_evdw>
-52.2028121948242

> <r_i_glide_ecoul>
-3.60541915893555

> <r_i_glide_erotb>
0.447651651537044

> <r_i_glide_esite>
0

> <r_i_glide_emodel>
-86.6945586005558

> <r_i_glide_energy>
-55.8082313537598

> <r_i_glide_einternal>
7.84996700286865

> <i_i_glide_confnum>
392

> <i_i_glide_posenum>
172

> <r_i_glide_eff_state_penalty>
0

> <s_user_duplicate_titles>
CHEMBL2061_lig460,414666

> <i_f3d_flags>
0

> <s_m_subgroup_title>
dock_pv

> <s_m_subgroupid>
dock_pv

> <b_m_subgroup_collapsed>
1

$$$$
CHEMBL2061_lig439
                    3D
 Schrodinger Suite 2021-1.
 61 63  0  0  1  0            999 V2000
   63.9635   46.8563   35.4520 C   0  0  0  0  0  0
   64.8422   45.6282   35.2173 C   0  0  0  0  0  0
   65.4424   45.5423   33.7879 C   0  0  0  0  0  0
   63.1986   47.1856   34.3752 N   0  0  0  0  0  0
   63.9611   47.4239   36.5390 O   0  0  0  0  0  0
   66.1069   44.1638   33.7161 C   0  0  0  0  0  0
   66.4768   46.6548   33.5289 C   0  0  0  0  0  0
   63.2202   46.5373   33.1089 C   0  0  0  0  0  0
   64.3065   45.7025   32.7719 C   0  0  0  0  0  0
   64.3238   45.0795   31.5182 C   0  0  0  0  0  0
   63.3025   45.2769   30.5945 C   0  0  0  0  0  0
   62.2612   46.1603   30.9026 C   0  0  0  0  0  0
   62.2224   46.7674   32.1529 C   0  0  0  0  0  0
   61.1791   46.4415   29.9438 C   0  0  0  0  0  0
   59.9323   45.8519   30.1389 C   0  0  0  0  0  0
   58.8750   46.0212   29.2477 C   0  0  0  0  0  0
   59.1566   46.7599   28.0963 C   0  0  0  0  0  0
   60.3650   47.4264   27.9120 C   0  0  0  0  0  0
   61.3826   47.2927   28.8555 C   0  0  0  0  0  0
   57.4699   45.4113   29.5246 C   0  0  2  0  0  0
   56.3310   46.2358   28.8272 C   0  0  0  0  0  0
   54.8668   46.0770   29.2764 C   0  0  0  0  0  0
   54.1333   47.1784   28.9390 O   0  0  0  0  0  0
   54.3983   45.0796   29.8189 O   0  0  0  0  0  0
   62.5147   48.0770   28.8385 O   0  0  0  0  0  0
   63.3621   48.1151   27.6962 C   0  0  0  0  0  0
   64.0082   49.2762   27.7390 F   0  0  0  0  0  0
   64.2580   47.1344   27.7390 F   0  0  0  0  0  0
   62.7188   48.0770   26.5390 F   0  0  0  0  0  0
   62.1617   48.2016   34.6443 C   0  0  0  0  0  0
   60.8427   47.5926   35.1491 C   0  0  0  0  0  0
   63.3277   44.4869   29.2922 C   0  0  0  0  0  0
   57.2366   45.1623   31.0442 C   0  0  0  0  0  0
   65.6080   45.6452   35.9845 H   0  0  0  0  0  0
   64.2121   44.7632   35.4308 H   0  0  0  0  0  0
   66.8080   44.0753   34.5390 H   0  0  0  0  0  0
   65.3993   43.3342   33.7592 H   0  0  0  0  0  0
   66.7086   44.0770   32.8219 H   0  0  0  0  0  0
   67.3610   46.4769   34.1390 H   0  0  0  0  0  0
   66.8080   46.6506   32.4910 H   0  0  0  0  0  0
   66.0947   47.6547   33.7390 H   0  0  0  0  0  0
   65.1397   44.4243   31.2541 H   0  0  0  0  0  0
   61.3896   47.4216   32.3559 H   0  0  0  0  0  0
   59.7924   45.2770   31.0247 H   0  0  0  0  0  0
   58.4080   46.8745   27.3390 H   0  0  0  0  0  0
   60.4703   48.0809   27.0607 H   0  0  0  0  0  0
   57.4809   44.4270   29.0540 H   0  0  0  0  0  0
   56.3427   46.0276   27.7566 H   0  0  0  0  0  0
   56.5699   47.2882   28.9390 H   0  0  0  0  0  0
   54.6798   47.8591   28.5390 H   0  0  0  0  0  0
   62.5126   48.8770   35.4204 H   0  0  0  0  0  0
   62.0083   48.8422   33.7758 H   0  0  0  0  0  0
   60.1154   48.3796   35.3391 H   0  0  0  0  0  0
   60.4050   46.8959   34.4336 H   0  0  0  0  0  0
   60.9928   47.0623   36.0902 H   0  0  0  0  0  0
   64.3182   44.0851   29.0932 H   0  0  0  0  0  0
   62.6160   43.6620   29.3383 H   0  0  0  0  0  0
   63.0597   45.1028   28.4364 H   0  0  0  0  0  0
   57.9311   44.4220   31.4403 H   0  0  0  0  0  0
   57.3498   46.0769   31.6258 H   0  0  0  0  0  0
   56.2603   44.7492   31.2777 H   0  0  0  0  0  0
  1  5  2  0  0  0
  1  2  1  0  0  0
  1  4  1  0  0  0
  2  3  1  0  0  0
  2 34  1  0  0  0
  2 35  1  0  0  0
  3  9  1  0  0  0
  3  6  1  0  0  0
  3  7  1  0  0  0
  4  8  1  0  0  0
  4 30  1  0  0  0
  6 36  1  0  0  0
  6 37  1  0  0  0
  6 38  1  0  0  0
  7 39  1  0  0  0
  7 40  1  0  0  0
  7 41  1  0  0  0
  8  9  2  0  0  0
  8 13  1  0  0  0
  9 10  1  0  0  0
 10 11  2  0  0  0
 10 42  1  0  0  0
 11 12  1  0  0  0
 11 32  1  0  0  0
 12 14  1  0  0  0
 12 13  2  0  0  0
 13 43  1  0  0  0
 14 19  1  0  0  0
 14 15  2  0  0  0
 15 16  1  0  0  0
 15 44  1  0  0  0
 16 17  2  0  0  0
 16 20  1  0  0  0
 17 18  1  0  0  0
 17 45  1  0  0  0
 18 19  2  0  0  0
 18 46  1  0  0  0
 19 25  1  0  0  0
 20 21  1  0  0  0
 20 33  1  0  0  0
 20 47  1  0  0  0
 21 22  1  0  0  0
 21 48  1  0  0  0
 21 49  1  0  0  0
 22 23  1  0  0  0
 22 24  2  0  0  0
 23 50  1  0  0  0
 25 26  1  0  0  0
 26 27  1  0  0  0
 26 28  1  0  0  0
 26 29  1  0  0  0
 30 31  1  0  0  0
 30 51  1  0  0  0
 30 52  1  0  0  0
 31 53  1  0  0  0
 31 54  1  0  0  0
 31 55  1  0  0  0
 32 56  1  0  0  0
 32 57  1  0  0  0
 32 58  1  0  0  0
 33 59  1  0  0  0
 33 60  1  0  0  0
 33 61  1  0  0  0
M  END
> <s_m_entry_id>
30799

> <s_m_entry_name>
dock_pv.12

> <s_m_Source_Path>
/home/csk/Desktop/cluster/DUD-E-result/rxra

> <s_m_Source_File>
dock_pv.maegz

> <i_m_Source_File_Index>
12

> <chembl_id>
CHEMBL247000

> <chembl_pref_name>
None

> <i_lp_mmshare_version>
53161

> <r_lp_tautomer_probability>
1

> <s_lp_Force_Field>
OPLS_2005

> <r_lp_Energy>
37.322204

> <b_lp_Chiralities_Consistent>
1

> <s_lp_Variant>
CHEMBL2061_lig439-1

> <s_i_glide_gridfile>
glide-grid_1mv9

> <i_i_glide_lignum>
510

> <i_i_glide_rotatable_bonds>
8

> <r_i_docking_score>
-11.8811595428022

> <r_i_glide_ligand_efficiency>
-0.360035137660673

> <r_i_glide_ligand_efficiency_sa>
-1.15482506270543

> <r_i_glide_ligand_efficiency_ln>
-2.64230836496744

> <r_i_glide_gscore>
-11.8811595428022

> <r_i_glide_lipo>
-6.42017429067366

> <r_i_glide_hbond>
0

> <r_i_glide_metal>
0

> <r_i_glide_rewards>
-2.92660505314069

> <r_i_glide_evdw>
-50.9191360473633

> <r_i_glide_ecoul>
-3.04976153373718

> <r_i_glide_erotb>
0.46904083344087

> <r_i_glide_esite>
0

> <r_i_glide_emodel>
-78.9024096242778

> <r_i_glide_energy>
-53.9688975811005

> <r_i_glide_einternal>
10.2596998214722

> <i_i_glide_confnum>
65

> <i_i_glide_posenum>
117

> <r_i_glide_eff_state_penalty>
0

> <s_user_duplicate_titles>
CHEMBL2061_lig439,414628

> <i_f3d_flags>
0

> <s_m_subgroup_title>
dock_pv

> <s_m_subgroupid>
dock_pv

> <b_m_subgroup_collapsed>
1

$$$$
CHEMBL2061_lig396
                    3D
 Schrodinger Suite 2021-1.
 57 60  0  0  1  0            999 V2000
   60.7368   46.7338   29.4960 C   0  0  0  0  0  0
   59.9686   46.0770   30.3558 N   0  0  0  0  0  0
   60.0512   46.9268   28.3320 C   0  0  0  0  0  0
   63.3167   46.3831   33.1244 C   0  0  0  0  0  0
   58.8006   45.9590   29.7474 C   0  0  0  0  0  0
   58.8099   46.4209   28.4682 O   0  0  0  0  0  0
   64.4775   45.6096   32.8553 C   0  0  0  0  0  0
   62.1588   47.2789   29.6433 C   0  0  1  0  0  0
   62.5991   46.8770   32.0386 C   0  0  0  0  0  0
   62.9727   46.6243   30.7288 C   0  0  0  0  0  0
   62.8497   46.7561   34.5440 C   0  0  0  0  0  0
   65.3108   44.9532   33.9590 C   0  0  0  0  0  0
   57.5390   45.5056   30.3023 C   0  0  0  0  0  0
   64.8392   45.3635   31.5222 C   0  0  0  0  0  0
   56.4225   45.2240   29.5985 C   0  0  0  0  0  0
   55.1789   44.8770   30.2343 C   0  0  0  0  0  0
   64.1002   45.8544   30.4669 C   0  0  0  0  0  0
   63.5026   45.8219   35.5717 C   0  0  0  0  0  0
   64.9761   45.5515   35.3390 C   0  0  0  0  0  0
   54.8183   45.2770   31.3390 O   0  0  0  0  0  0
   60.6273   47.3951   27.0327 C   0  0  0  0  0  0
   54.4080   44.0770   29.4467 O   0  0  0  0  0  0
   62.8406   47.2556   28.2483 C   0  0  0  0  0  0
   63.2947   48.2083   34.8312 C   0  0  0  0  0  0
   61.3167   46.5611   34.7025 C   0  0  0  0  0  0
   64.9912   43.4411   33.9237 C   0  0  0  0  0  0
   66.8080   45.2617   33.7390 C   0  0  0  0  0  0
   62.0045   48.0462   27.2458 C   0  0  0  0  0  0
   62.0940   48.3276   29.9428 H   0  0  0  0  0  0
   61.7395   47.5069   32.2094 H   0  0  0  0  0  0
   57.5453   45.4208   31.3818 H   0  0  0  0  0  0
   65.7007   44.7573   31.2885 H   0  0  0  0  0  0
   56.4170   45.2724   28.5191 H   0  0  0  0  0  0
   64.4311   45.6335   29.4638 H   0  0  0  0  0  0
   62.9801   44.8770   35.6418 H   0  0  0  0  0  0
   63.4004   46.2797   36.5390 H   0  0  0  0  0  0
   65.3132   44.8851   36.1264 H   0  0  0  0  0  0
   65.5210   46.4770   35.4896 H   0  0  0  0  0  0
   60.7493   46.4451   26.5390 H   0  0  0  0  0  0
   60.0080   48.0770   26.4671 H   0  0  0  0  0  0
   54.8504   43.7750   28.6456 H   0  0  0  0  0  0
   62.9557   46.2309   27.8887 H   0  0  0  0  0  0
   63.8442   47.6770   28.2929 H   0  0  0  0  0  0
   63.0369   48.5189   35.8445 H   0  0  0  0  0  0
   64.3703   48.3398   34.7097 H   0  0  0  0  0  0
   62.8110   48.9074   34.1483 H   0  0  0  0  0  0
   61.0031   46.6784   35.7407 H   0  0  0  0  0  0
   60.7401   47.2770   34.1263 H   0  0  0  0  0  0
   60.9916   45.5774   34.3689 H   0  0  0  0  0  0
   65.8945   42.8770   34.1390 H   0  0  0  0  0  0
   64.2197   43.1487   34.6364 H   0  0  0  0  0  0
   64.6636   43.0847   32.9460 H   0  0  0  0  0  0
   67.4136   44.9637   34.5952 H   0  0  0  0  0  0
   67.2080   44.7097   32.8940 H   0  0  0  0  0  0
   66.9906   46.3234   33.5636 H   0  0  0  0  0  0
   62.5309   48.1027   26.2920 H   0  0  0  0  0  0
   61.8839   49.0750   27.5914 H   0  0  0  0  0  0
  1  2  1  0  0  0
  1  3  2  0  0  0
  1  8  1  0  0  0
  2  5  2  0  0  0
  3  6  1  0  0  0
  3 21  1  0  0  0
  4  9  2  0  0  0
  4 11  1  0  0  0
  4  7  1  0  0  0
  5 13  1  0  0  0
  5  6  1  0  0  0
  7 14  2  0  0  0
  7 12  1  0  0  0
  8 10  1  0  0  0
  8 23  1  0  0  0
  8 29  1  0  0  0
  9 10  1  0  0  0
  9 30  1  0  0  0
 10 17  2  0  0  0
 11 18  1  0  0  0
 11 24  1  0  0  0
 11 25  1  0  0  0
 12 19  1  0  0  0
 12 26  1  0  0  0
 12 27  1  0  0  0
 13 15  2  0  0  0
 13 31  1  0  0  0
 14 17  1  0  0  0
 14 32  1  0  0  0
 15 16  1  0  0  0
 15 33  1  0  0  0
 16 20  2  0  0  0
 16 22  1  0  0  0
 17 34  1  0  0  0
 18 19  1  0  0  0
 18 35  1  0  0  0
 18 36  1  0  0  0
 19 37  1  0  0  0
 19 38  1  0  0  0
 21 28  1  0  0  0
 21 39  1  0  0  0
 21 40  1  0  0  0
 22 41  1  0  0  0
 23 28  1  0  0  0
 23 42  1  0  0  0
 23 43  1  0  0  0
 24 44  1  0  0  0
 24 45  1  0  0  0
 24 46  1  0  0  0
 25 47  1  0  0  0
 25 48  1  0  0  0
 25 49  1  0  0  0
 26 50  1  0  0  0
 26 51  1  0  0  0
 26 52  1  0  0  0
 27 53  1  0  0  0
 27 54  1  0  0  0
 27 55  1  0  0  0
 28 56  1  0  0  0
 28 57  1  0  0  0
M  END
> <s_m_entry_id>
30800

> <s_m_entry_name>
dock_pv.13

> <s_m_Source_Path>
/home/csk/Desktop/cluster/DUD-E-result/rxra

> <s_m_Source_File>
dock_pv.maegz

> <i_m_Source_File_Index>
13

> <chembl_id>
CHEMBL64222

> <chembl_pref_name>
None

> <i_lp_mmshare_version>
53161

> <r_lp_tautomer_probability>
1

> <s_lp_Force_Field>
OPLS_2005

> <r_lp_Energy>
25.135518

> <b_lp_Chiralities_Consistent>
1

> <s_lp_Variant>
CHEMBL2061_lig396-2

> <s_i_glide_gridfile>
glide-grid_1mv9

> <i_i_glide_lignum>
462

> <i_i_glide_rotatable_bonds>
4

> <r_i_docking_score>
-11.8567544440413

> <r_i_glide_ligand_efficiency>
-0.423455515858619

> <r_i_glide_ligand_efficiency_sa>
-1.28586034810795

> <r_i_glide_ligand_efficiency_ln>
-2.73688705512238

> <r_i_glide_gscore>
-11.8567544440413

> <r_i_glide_lipo>
-6.87887790466326

> <r_i_glide_hbond>
-0.0253809714468342

> <r_i_glide_metal>
0

> <r_i_glide_rewards>
-2.05077572673869

> <r_i_glide_evdw>
-50.5750045776367

> <r_i_glide_ecoul>
-5.17931413650513

> <r_i_glide_erotb>
0.403927508165069

> <r_i_glide_esite>
0

> <r_i_glide_emodel>
-69.2701522433304

> <r_i_glide_energy>
-55.7543187141418

> <r_i_glide_einternal>
5.48010778427124

> <i_i_glide_confnum>
5

> <i_i_glide_posenum>
152

> <r_i_glide_eff_state_penalty>
0

> <s_user_duplicate_titles>
CHEMBL2061_lig396,96819

> <i_f3d_flags>
0

> <s_m_subgroup_title>
dock_pv

> <s_m_subgroupid>
dock_pv

> <b_m_subgroup_collapsed>
1

$$$$
CHEMBL2061_lig445
                    3D
 Schrodinger Suite 2021-1.
 59 61  0  0  1  0            999 V2000
   63.9671   46.8295   35.4582 C   0  0  0  0  0  0
   64.8320   45.5949   35.2117 C   0  0  0  0  0  0
   65.4202   45.5229   33.7778 C   0  0  0  0  0  0
   63.1822   47.1544   34.3925 N   0  0  0  0  0  0
   64.0036   47.4086   36.5390 O   0  0  0  0  0  0
   66.1039   44.1529   33.7047 C   0  0  0  0  0  0
   66.4422   46.6483   33.5185 C   0  0  0  0  0  0
   63.1743   46.4943   33.1313 C   0  0  0  0  0  0
   64.2659   45.6736   32.7760 C   0  0  0  0  0  0
   64.2654   45.0492   31.5238 C   0  0  0  0  0  0
   63.2210   45.2258   30.6202 C   0  0  0  0  0  0
   62.1597   46.0828   30.9505 C   0  0  0  0  0  0
   62.1461   46.6999   32.1989 C   0  0  0  0  0  0
   61.0468   46.3284   30.0079 C   0  0  0  0  0  0
   59.7915   45.7602   30.2516 C   0  0  0  0  0  0
   58.7438   45.8468   29.3370 C   0  0  0  0  0  0
   59.0268   46.4776   28.1258 C   0  0  0  0  0  0
   60.2263   47.1538   27.9074 C   0  0  0  0  0  0
   61.2398   47.1210   28.8704 C   0  0  0  0  0  0
   57.3680   45.3802   29.6953 C   0  0  0  0  0  0
   56.2869   46.0550   29.2182 C   0  0  0  0  0  0
   54.8834   45.8563   29.5153 C   0  0  0  0  0  0
   54.1270   46.8523   28.9631 O   0  0  0  0  0  0
   54.3933   44.9611   30.1999 O   0  0  0  0  0  0
   62.3484   47.9497   28.8379 O   0  0  0  0  0  0
   63.1625   48.0773   27.6752 C   0  0  0  0  0  0
   64.0830   47.1216   27.6465 F   0  0  0  0  0  0
   62.4872   48.0770   26.5390 F   0  0  0  0  0  0
   63.7878   49.2516   27.7389 F   0  0  0  0  0  0
   62.1755   48.1987   34.6614 C   0  0  0  0  0  0
   60.8536   47.6502   35.2204 C   0  0  0  0  0  0
   63.2241   44.3983   29.3382 C   0  0  0  0  0  0
   57.3138   44.1498   30.5981 C   0  0  0  0  0  0
   65.6080   45.6015   35.9696 H   0  0  0  0  0  0
   64.1994   44.7310   35.4236 H   0  0  0  0  0  0
   66.8073   44.0697   34.5308 H   0  0  0  0  0  0
   65.4071   43.3141   33.7436 H   0  0  0  0  0  0
   66.7037   44.0771   32.8084 H   0  0  0  0  0  0
   67.3294   46.4769   34.1270 H   0  0  0  0  0  0
   66.7726   46.6517   32.4800 H   0  0  0  0  0  0
   66.0517   47.6432   33.7379 H   0  0  0  0  0  0
   65.0850   44.4044   31.2461 H   0  0  0  0  0  0
   61.3078   47.3401   32.4233 H   0  0  0  0  0  0
   59.6107   45.2772   31.1923 H   0  0  0  0  0  0
   58.2885   46.5019   27.3482 H   0  0  0  0  0  0
   60.3149   47.7410   27.0083 H   0  0  0  0  0  0
   56.4622   46.8770   28.5507 H   0  0  0  0  0  0
   54.6666   47.4899   28.4916 H   0  0  0  0  0  0
   62.5708   48.8770   35.4110 H   0  0  0  0  0  0
   62.0108   48.8202   33.7805 H   0  0  0  0  0  0
   60.1636   48.4721   35.4072 H   0  0  0  0  0  0
   60.3694   46.9522   34.5369 H   0  0  0  0  0  0
   61.0135   47.1418   36.1713 H   0  0  0  0  0  0
   63.8274   43.4958   29.4469 H   0  0  0  0  0  0
   62.2185   44.0563   29.0894 H   0  0  0  0  0  0
   63.6068   44.9673   28.4965 H   0  0  0  0  0  0
   58.0064   43.3922   30.2355 H   0  0  0  0  0  0
   57.6076   44.4211   31.6113 H   0  0  0  0  0  0
   56.3389   43.6775   30.6545 H   0  0  0  0  0  0
  1  5  2  0  0  0
  1  2  1  0  0  0
  1  4  1  0  0  0
  2  3  1  0  0  0
  2 34  1  0  0  0
  2 35  1  0  0  0
  3  9  1  0  0  0
  3  6  1  0  0  0
  3  7  1  0  0  0
  4  8  1  0  0  0
  4 30  1  0  0  0
  6 36  1  0  0  0
  6 37  1  0  0  0
  6 38  1  0  0  0
  7 39  1  0  0  0
  7 40  1  0  0  0
  7 41  1  0  0  0
  8  9  2  0  0  0
  8 13  1  0  0  0
  9 10  1  0  0  0
 10 11  2  0  0  0
 10 42  1  0  0  0
 11 12  1  0  0  0
 11 32  1  0  0  0
 12 14  1  0  0  0
 12 13  2  0  0  0
 13 43  1  0  0  0
 14 19  1  0  0  0
 14 15  2  0  0  0
 15 16  1  0  0  0
 15 44  1  0  0  0
 16 17  2  0  0  0
 16 20  1  0  0  0
 17 18  1  0  0  0
 17 45  1  0  0  0
 18 19  2  0  0  0
 18 46  1  0  0  0
 19 25  1  0  0  0
 20 21  2  0  0  0
 20 33  1  0  0  0
 21 22  1  0  0  0
 21 47  1  0  0  0
 22 23  1  0  0  0
 22 24  2  0  0  0
 23 48  1  0  0  0
 25 26  1  0  0  0
 26 27  1  0  0  0
 26 28  1  0  0  0
 26 29  1  0  0  0
 30 31  1  0  0  0
 30 49  1  0  0  0
 30 50  1  0  0  0
 31 51  1  0  0  0
 31 52  1  0  0  0
 31 53  1  0  0  0
 32 54  1  0  0  0
 32 55  1  0  0  0
 32 56  1  0  0  0
 33 57  1  0  0  0
 33 58  1  0  0  0
 33 59  1  0  0  0
M  END
> <s_m_entry_id>
30801

> <s_m_entry_name>
dock_pv.14

> <s_m_Source_Path>
/home/csk/Desktop/cluster/DUD-E-result/rxra

> <s_m_Source_File>
dock_pv.maegz

> <i_m_Source_File_Index>
14

> <chembl_id>
CHEMBL247848

> <chembl_pref_name>
None

> <i_lp_mmshare_version>
53161

> <r_lp_tautomer_probability>
1

> <s_lp_Force_Field>
OPLS_2005

> <r_lp_Energy>
44.920176

> <b_lp_Chiralities_Consistent>
1

> <s_lp_Variant>
CHEMBL2061_lig445-1

> <s_i_glide_gridfile>
glide-grid_1mv9

> <i_i_glide_lignum>
521

> <i_i_glide_rotatable_bonds>
7

> <r_i_docking_score>
-11.8532722268148

> <r_i_glide_ligand_efficiency>
-0.359190067479236

> <r_i_glide_ligand_efficiency_sa>
-1.15211447109037

> <r_i_glide_ligand_efficiency_ln>
-2.63610637028463

> <r_i_glide_gscore>
-11.8532722268148

> <r_i_glide_lipo>
-6.21887648449109

> <r_i_glide_hbond>
0

> <r_i_glide_metal>
0

> <r_i_glide_rewards>
-2.93098766065618

> <r_i_glide_evdw>
-50.5909080505371

> <r_i_glide_ecoul>
-3.68058395385742

> <r_i_glide_erotb>
0.378224913937964

> <r_i_glide_esite>
0

> <r_i_glide_emodel>
-86.7432082276516

> <r_i_glide_energy>
-54.2714920043945

> <r_i_glide_einternal>
3.55287766456604

> <i_i_glide_confnum>
25

> <i_i_glide_posenum>
99

> <r_i_glide_eff_state_penalty>
0

> <s_user_duplicate_titles>
CHEMBL2061_lig445

> <i_f3d_flags>
0

> <s_m_subgroup_title>
dock_pv

> <s_m_subgroupid>
dock_pv

> <b_m_subgroup_collapsed>
1

$$$$
CHEMBL2061_lig439
                    3D
 Schrodinger Suite 2021-1.
 61 63  0  0  1  0            999 V2000
   64.0569   46.7805   35.4147 C   0  0  0  0  0  0
   65.4076   46.3712   34.8053 C   0  0  0  0  0  0
   65.3546   45.2352   33.7415 C   0  0  0  0  0  0
   63.0003   46.5854   34.5830 N   0  0  0  0  0  0
   64.0079   47.2582   36.5427 O   0  0  0  0  0  0
   65.0965   43.8623   34.3928 C   0  0  0  0  0  0
   66.7149   45.3005   33.0281 C   0  0  0  0  0  0
   63.1077   46.2627   33.2061 C   0  0  0  0  0  0
   64.2213   45.5290   32.7573 C   0  0  0  0  0  0
   64.2308   45.0440   31.4467 C   0  0  0  0  0  0
   63.1898   45.3016   30.5666 C   0  0  0  0  0  0
   62.1425   46.1481   30.9717 C   0  0  0  0  0  0
   62.1027   46.6003   32.2906 C   0  0  0  0  0  0
   61.0207   46.4636   30.0665 C   0  0  0  0  0  0
   59.7561   45.9667   30.3675 C   0  0  0  0  0  0
   58.7159   46.0097   29.4477 C   0  0  0  0  0  0
   58.9977   46.5170   28.1767 C   0  0  0  0  0  0
   60.2035   47.1740   27.9201 C   0  0  0  0  0  0
   61.2128   47.1956   28.8907 C   0  0  0  0  0  0
   57.3282   45.5220   29.8957 C   0  0  1  0  0  0
   56.1639   45.8889   28.9353 C   0  0  0  0  0  0
   54.7725   45.9642   29.5768 C   0  0  0  0  0  0
   53.9842   46.8777   28.9388 O   0  0  0  0  0  0
   54.4079   45.2932   30.5398 O   0  0  0  0  0  0
   62.3380   47.9943   28.8162 O   0  0  0  0  0  0
   63.1773   47.9679   27.6720 C   0  0  0  0  0  0
   63.9859   49.0220   27.7385 F   0  0  0  0  0  0
   63.9333   46.8775   27.6532 F   0  0  0  0  0  0
   62.5082   48.0770   26.5389 F   0  0  0  0  0  0
   61.6548   46.8409   35.1474 C   0  0  0  0  0  0
   61.3286   48.3251   35.3391 C   0  0  0  0  0  0
   63.2115   44.5638   29.2312 C   0  0  0  0  0  0
   57.3504   44.0293   30.2569 C   0  0  0  0  0  0
   65.8136   47.2892   34.3772 H   0  0  0  0  0  0
   66.0569   46.0768   35.6274 H   0  0  0  0  0  0
   65.9637   43.5665   34.9738 H   0  0  0  0  0  0
   64.2246   43.8642   35.0483 H   0  0  0  0  0  0
   64.9415   43.0847   33.6430 H   0  0  0  0  0  0
   67.5418   45.2297   33.7391 H   0  0  0  0  0  0
   66.8187   44.4829   32.3218 H   0  0  0  0  0  0
   66.8080   46.2348   32.4743 H   0  0  0  0  0  0
   65.0334   44.4057   31.1126 H   0  0  0  0  0  0
   61.2640   47.2071   32.5957 H   0  0  0  0  0  0
   59.5741   45.5481   31.3404 H   0  0  0  0  0  0
   58.2590   46.4786   27.4004 H   0  0  0  0  0  0
   60.3096   47.6946   26.9819 H   0  0  0  0  0  0
   57.1490   46.0713   30.8246 H   0  0  0  0  0  0
   56.1194   45.2032   28.0901 H   0  0  0  0  0  0
   56.3606   46.8773   28.5394 H   0  0  0  0  0  0
   54.4553   47.3165   28.2267 H   0  0  0  0  0  0
   60.8804   46.3755   34.5372 H   0  0  0  0  0  0
   61.5713   46.3302   36.1073 H   0  0  0  0  0  0
   60.2698   48.4754   35.5438 H   0  0  0  0  0  0
   61.8755   48.7484   36.1826 H   0  0  0  0  0  0
   61.6082   48.8768   34.4450 H   0  0  0  0  0  0
   64.2089   44.6221   28.7914 H   0  0  0  0  0  0
   62.9917   43.5036   29.3842 H   0  0  0  0  0  0
   62.5140   44.9491   28.4875 H   0  0  0  0  0  0
   58.0571   43.8046   31.0551 H   0  0  0  0  0  0
   56.3772   43.6775   30.5938 H   0  0  0  0  0  0
   57.6407   43.4400   29.3940 H   0  0  0  0  0  0
  1  5  2  0  0  0
  1  2  1  0  0  0
  1  4  1  0  0  0
  2  3  1  0  0  0
  2 34  1  0  0  0
  2 35  1  0  0  0
  3  9  1  0  0  0
  3  6  1  0  0  0
  3  7  1  0  0  0
  4  8  1  0  0  0
  4 30  1  0  0  0
  6 36  1  0  0  0
  6 37  1  0  0  0
  6 38  1  0  0  0
  7 39  1  0  0  0
  7 40  1  0  0  0
  7 41  1  0  0  0
  8  9  2  0  0  0
  8 13  1  0  0  0
  9 10  1  0  0  0
 10 11  2  0  0  0
 10 42  1  0  0  0
 11 12  1  0  0  0
 11 32  1  0  0  0
 12 14  1  0  0  0
 12 13  2  0  0  0
 13 43  1  0  0  0
 14 19  1  0  0  0
 14 15  2  0  0  0
 15 16  1  0  0  0
 15 44  1  0  0  0
 16 17  2  0  0  0
 16 20  1  0  0  0
 17 18  1  0  0  0
 17 45  1  0  0  0
 18 19  2  0  0  0
 18 46  1  0  0  0
 19 25  1  0  0  0
 20 21  1  0  0  0
 20 33  1  0  0  0
 20 47  1  0  0  0
 21 22  1  0  0  0
 21 48  1  0  0  0
 21 49  1  0  0  0
 22 23  1  0  0  0
 22 24  2  0  0  0
 23 50  1  0  0  0
 25 26  1  0  0  0
 26 27  1  0  0  0
 26 28  1  0  0  0
 26 29  1  0  0  0
 30 31  1  0  0  0
 30 51  1  0  0  0
 30 52  1  0  0  0
 31 53  1  0  0  0
 31 54  1  0  0  0
 31 55  1  0  0  0
 32 56  1  0  0  0
 32 57  1  0  0  0
 32 58  1  0  0  0
 33 59  1  0  0  0
 33 60  1  0  0  0
 33 61  1  0  0  0
M  END
> <s_m_entry_id>
30802

> <s_m_entry_name>
dock_pv.15

> <s_m_Source_Path>
/home/csk/Desktop/cluster/DUD-E-result/rxra

> <s_m_Source_File>
dock_pv.maegz

> <i_m_Source_File_Index>
15

> <chembl_id>
CHEMBL247000

> <chembl_pref_name>
None

> <i_lp_mmshare_version>
53161

> <r_lp_tautomer_probability>
1

> <s_lp_Force_Field>
OPLS_2005

> <r_lp_Energy>
35.459537

> <b_lp_Chiralities_Consistent>
1

> <s_lp_Variant>
CHEMBL2061_lig439-2

> <s_i_glide_gridfile>
glide-grid_1mv9

> <i_i_glide_lignum>
511

> <i_i_glide_rotatable_bonds>
8

> <r_i_docking_score>
-11.8529424716253

> <r_i_glide_ligand_efficiency>
-0.359180074897735

> <r_i_glide_ligand_efficiency_sa>
-1.1520824195422

> <r_i_glide_ligand_efficiency_ln>
-2.63603303443786

> <r_i_glide_gscore>
-11.8529424716253

> <r_i_glide_lipo>
-6.23297743889333

> <r_i_glide_hbond>
-0.0990607768171012

> <r_i_glide_metal>
0

> <r_i_glide_rewards>
-2.85303689195274

> <r_i_glide_evdw>
-51.453742980957

> <r_i_glide_ecoul>
-3.76147365570068

> <r_i_glide_erotb>
0.46904083344087

> <r_i_glide_esite>
0

> <r_i_glide_emodel>
-82.1116004208682

> <r_i_glide_energy>
-55.2152166366577

> <r_i_glide_einternal>
9.2830286026001

> <i_i_glide_confnum>
100

> <i_i_glide_posenum>
28

> <r_i_glide_eff_state_penalty>
0

> <s_user_duplicate_titles>
CHEMBL2061_lig439

> <i_f3d_flags>
0

> <s_m_subgroup_title>
dock_pv

> <s_m_subgroupid>
dock_pv

> <b_m_subgroup_collapsed>
1

$$$$
CHEMBL2061_lig594
                    3D
 Schrodinger Suite 2021-1.
 58 60  0  0  1  0            999 V2000
   64.5229   45.5829   31.5307 C   0  0  0  0  0  0
   63.6548   46.0026   30.5378 C   0  0  0  0  0  0
   62.5522   46.7848   30.8786 C   0  0  0  0  0  0
   62.3221   47.0894   32.2173 C   0  0  0  0  0  0
   61.6222   47.2768   29.8355 C   0  0  0  0  0  0
   60.2632   46.6503   29.7383 C   0  0  0  0  0  0
   59.5164   46.8371   28.5793 C   0  0  0  0  0  0
   58.2312   46.3281   28.5092 C   0  0  0  0  0  0
   57.6202   45.6629   29.5647 C   0  0  0  0  0  0
   58.4064   45.3691   30.6826 C   0  0  0  0  0  0
   59.7029   45.8825   30.7683 C   0  0  0  0  0  0
   56.1744   45.2756   29.3821 C   0  0  0  0  0  0
   55.6134   45.2760   28.2844 O   0  0  0  0  0  0
   64.2768   45.8253   32.8885 C   0  0  0  0  0  0
   63.1394   46.6014   33.2462 C   0  0  0  0  0  0
   62.8128   46.9946   34.7075 C   0  0  0  0  0  0
   63.6255   46.1470   35.7152 C   0  0  0  0  0  0
   65.0646   45.9190   35.2761 C   0  0  0  0  0  0
   65.1914   45.1722   33.9405 C   0  0  0  0  0  0
   63.2094   48.4767   34.8786 C   0  0  0  0  0  0
   61.3210   46.7305   35.0335 C   0  0  0  0  0  0
   64.7477   43.7095   34.1172 C   0  0  0  0  0  0
   66.6807   45.2798   33.5472 C   0  0  0  0  0  0
   63.9124   45.6050   29.2498 O   0  0  0  0  0  0
   63.0428   44.5765   28.7832 C   0  0  0  0  0  0
   63.4560   43.2174   29.3406 C   0  0  0  0  0  0
   62.0337   48.0536   28.9706 O   0  0  0  0  0  0
   55.2261   45.0668   30.6277 C   0  0  0  0  0  0
   55.6810   45.6770   31.7571 O   0  0  0  0  0  0
   54.1495   44.4770   30.5390 O   0  0  0  0  0  0
   65.3589   44.9741   31.2250 H   0  0  0  0  0  0
   61.4784   47.7139   32.4709 H   0  0  0  0  0  0
   59.9100   47.3847   27.7327 H   0  0  0  0  0  0
   57.6820   46.4767   27.6065 H   0  0  0  0  0  0
   58.0295   44.7764   31.5047 H   0  0  0  0  0  0
   60.2552   45.6790   31.6715 H   0  0  0  0  0  0
   63.1565   45.1777   35.8876 H   0  0  0  0  0  0
   63.6357   46.6412   36.6850 H   0  0  0  0  0  0
   65.6065   45.4020   36.0626 H   0  0  0  0  0  0
   65.5555   46.8767   35.1675 H   0  0  0  0  0  0
   63.0012   48.8449   35.8841 H   0  0  0  0  0  0
   64.2687   48.6289   34.6825 H   0  0  0  0  0  0
   62.6746   49.1111   34.1694 H   0  0  0  0  0  0
   61.1240   46.8484   36.1000 H   0  0  0  0  0  0
   60.6541   47.4248   34.5289 H   0  0  0  0  0  0
   61.0161   45.7208   34.7535 H   0  0  0  0  0  0
   65.3059   43.2770   34.9390 H   0  0  0  0  0  0
   63.6845   43.6065   34.3359 H   0  0  0  0  0  0
   64.9535   43.1125   33.2280 H   0  0  0  0  0  0
   67.3368   44.9505   34.3549 H   0  0  0  0  0  0
   66.9062   44.6443   32.6940 H   0  0  0  0  0  0
   66.9650   46.3014   33.2888 H   0  0  0  0  0  0
   61.9963   44.7445   29.0294 H   0  0  0  0  0  0
   63.0775   44.5668   27.7019 H   0  0  0  0  0  0
   62.7049   42.4746   29.0847 H   0  0  0  0  0  0
   64.4074   42.8730   28.9424 H   0  0  0  0  0  0
   63.5582   43.2234   30.4250 H   0  0  0  0  0  0
   56.5112   46.1476   31.6397 H   0  0  0  0  0  0
  1 14  1  0  0  0
  1  2  2  0  0  0
  1 31  1  0  0  0
  2  3  1  0  0  0
  2 24  1  0  0  0
  3  4  2  0  0  0
  3  5  1  0  0  0
  4 15  1  0  0  0
  4 32  1  0  0  0
  5  6  1  0  0  0
  5 27  2  0  0  0
  6  7  2  0  0  0
  6 11  1  0  0  0
  7  8  1  0  0  0
  7 33  1  0  0  0
  8  9  2  0  0  0
  8 34  1  0  0  0
  9 10  1  0  0  0
  9 12  1  0  0  0
 10 11  2  0  0  0
 10 35  1  0  0  0
 11 36  1  0  0  0
 12 13  2  0  0  0
 12 28  1  0  0  0
 14 15  2  0  0  0
 14 19  1  0  0  0
 15 16  1  0  0  0
 16 17  1  0  0  0
 16 20  1  0  0  0
 16 21  1  0  0  0
 17 18  1  0  0  0
 17 37  1  0  0  0
 17 38  1  0  0  0
 18 19  1  0  0  0
 18 39  1  0  0  0
 18 40  1  0  0  0
 19 22  1  0  0  0
 19 23  1  0  0  0
 20 41  1  0  0  0
 20 42  1  0  0  0
 20 43  1  0  0  0
 21 44  1  0  0  0
 21 45  1  0  0  0
 21 46  1  0  0  0
 22 47  1  0  0  0
 22 48  1  0  0  0
 22 49  1  0  0  0
 23 50  1  0  0  0
 23 51  1  0  0  0
 23 52  1  0  0  0
 24 25  1  0  0  0
 25 26  1  0  0  0
 25 53  1  0  0  0
 25 54  1  0  0  0
 26 55  1  0  0  0
 26 56  1  0  0  0
 26 57  1  0  0  0
 28 29  1  0  0  0
 28 30  2  0  0  0
 29 58  1  0  0  0
M  END
> <s_m_entry_id>
30803

> <s_m_entry_name>
dock_pv.16

> <s_m_Source_Path>
/home/csk/Desktop/cluster/DUD-E-result/rxra

> <s_m_Source_File>
dock_pv.maegz

> <i_m_Source_File_Index>
16

> <chembl_id>
CHEMBL3718049

> <chembl_pref_name>
None

> <i_lp_mmshare_version>
53161

> <r_lp_tautomer_probability>
1

> <s_lp_Force_Field>
OPLS_2005

> <r_lp_Energy>
41.221579

> <b_lp_Chiralities_Consistent>
1

> <s_lp_Variant>
CHEMBL2061_lig594-1

> <s_i_glide_gridfile>
glide-grid_1mv9

> <i_i_glide_lignum>
729

> <i_i_glide_rotatable_bonds>
7

> <r_i_docking_score>
-11.835380717061

> <r_i_glide_ligand_efficiency>
-0.394512690568699

> <r_i_glide_ligand_efficiency_sa>
-1.2258426547566

> <r_i_glide_ligand_efficiency_ln>
-2.68912745571779

> <r_i_glide_gscore>
-11.835380717061

> <r_i_glide_lipo>
-6.12891025594759

> <r_i_glide_hbond>
-0.32

> <r_i_glide_metal>
0

> <r_i_glide_rewards>
-3.02973029971476

> <r_i_glide_evdw>
-48.3657188415527

> <r_i_glide_ecoul>
-3.52145552635193

> <r_i_glide_erotb>
0.589764109631806

> <r_i_glide_esite>
0

> <r_i_glide_emodel>
-82.9660356856918

> <r_i_glide_energy>
-51.8871743679047

> <r_i_glide_einternal>
8.32656383514404

> <i_i_glide_confnum>
151

> <i_i_glide_posenum>
362

> <r_i_glide_eff_state_penalty>
0

> <s_user_duplicate_titles>
CHEMBL2061_lig594

> <i_f3d_flags>
0

> <s_m_subgroup_title>
dock_pv

> <s_m_subgroupid>
dock_pv

> <b_m_subgroup_collapsed>
1

$$$$
CHEMBL2061_lig460
                    3D
 Schrodinger Suite 2021-1.
 62 65  0  0  1  0            999 V2000
   64.0080   46.9352   35.4738 C   0  0  0  0  0  0
   64.7985   45.6358   35.3039 C   0  0  0  0  0  0
   65.3407   45.3874   33.8694 C   0  0  0  0  0  0
   63.3055   47.3087   34.3732 N   0  0  0  0  0  0
   64.0080   47.5367   36.5398 O   0  0  0  0  0  0
   65.7345   43.9046   33.8466 C   0  0  0  0  0  0
   66.5230   46.3290   33.5597 C   0  0  0  0  0  0
   63.2399   46.6007   33.1487 C   0  0  0  0  0  0
   64.2405   45.6606   32.8396 C   0  0  0  0  0  0
   64.2113   45.0223   31.5934 C   0  0  0  0  0  0
   63.2104   45.2768   30.6665 C   0  0  0  0  0  0
   62.2256   46.2242   30.9725 C   0  0  0  0  0  0
   62.2416   46.8656   32.2035 C   0  0  0  0  0  0
   61.1536   46.5505   30.0254 C   0  0  0  0  0  0
   59.9149   45.9430   30.1842 C   0  0  0  0  0  0
   58.9283   46.0770   29.2231 C   0  0  0  0  0  0
   59.2080   46.8359   28.0977 C   0  0  0  0  0  0
   60.4079   47.5244   27.9532 C   0  0  0  0  0  0
   61.3891   47.3997   28.9412 C   0  0  0  0  0  0
   57.6046   45.3441   29.3461 C   0  0  1  0  0  0
   62.5862   48.0772   28.9410 O   0  0  0  0  0  0
   62.4161   48.4673   34.5797 C   0  0  0  0  0  0
   61.1206   48.0642   35.3178 C   0  0  0  0  0  0
   63.2082   44.4558   29.3806 C   0  0  0  0  0  0
   57.5060   44.0770   30.1414 C   0  0  0  0  0  0
   56.7762   45.3026   30.6356 C   0  0  2  0  0  0
   55.2452   45.2462   30.4795 C   0  0  0  0  0  0
   54.8080   44.6395   29.3397 O   0  0  0  0  0  0
   54.4910   45.6770   31.3390 O   0  0  0  0  0  0
   63.1884   48.5148   27.7274 C   0  0  0  0  0  0
   64.0141   47.3544   27.1867 C   0  0  0  0  0  0
   64.8080   46.8770   28.1363 F   0  0  0  0  0  0
   63.2080   46.3716   26.8193 F   0  0  0  0  0  0
   64.7714   47.7013   26.1458 F   0  0  0  0  0  0
   65.6079   45.6567   36.0299 H   0  0  0  0  0  0
   64.1179   44.8415   35.6149 H   0  0  0  0  0  0
   66.4078   43.6771   34.6615 H   0  0  0  0  0  0
   64.8753   43.2360   33.9193 H   0  0  0  0  0  0
   66.2694   43.6770   32.9396 H   0  0  0  0  0  0
   67.3973   46.0770   34.1607 H   0  0  0  0  0  0
   66.8080   46.2462   32.5116 H   0  0  0  0  0  0
   66.2793   47.3773   33.7388 H   0  0  0  0  0  0
   64.9705   44.3024   31.3308 H   0  0  0  0  0  0
   61.4501   47.5712   32.3983 H   0  0  0  0  0  0
   59.7317   45.3278   31.0425 H   0  0  0  0  0  0
   58.4554   46.8770   27.3390 H   0  0  0  0  0  0
   60.5420   48.1441   27.0817 H   0  0  0  0  0  0
   57.0359   45.3774   28.4165 H   0  0  0  0  0  0
   62.9711   49.2106   35.1551 H   0  0  0  0  0  0
   62.1937   48.9841   33.6474 H   0  0  0  0  0  0
   60.4080   48.8773   35.3392 H   0  0  0  0  0  0
   60.6287   47.2206   34.8323 H   0  0  0  0  0  0
   61.3153   47.7896   36.3547 H   0  0  0  0  0  0
   63.1199   43.3952   29.6171 H   0  0  0  0  0  0
   62.4055   44.7117   28.6919 H   0  0  0  0  0  0
   64.1542   44.5793   28.8577 H   0  0  0  0  0  0
   58.3574   43.6922   30.7023 H   0  0  0  0  0  0
   56.9186   43.2770   29.7385 H   0  0  0  0  0  0
   57.1379   45.8043   31.5341 H   0  0  0  0  0  0
   55.5216   44.2837   28.8061 H   0  0  0  0  0  0
   62.4927   48.8924   26.9827 H   0  0  0  0  0  0
   63.8549   49.3439   27.9615 H   0  0  0  0  0  0
  1  5  2  0  0  0
  1  2  1  0  0  0
  1  4  1  0  0  0
  2  3  1  0  0  0
  2 35  1  0  0  0
  2 36  1  0  0  0
  3  9  1  0  0  0
  3  6  1  0  0  0
  3  7  1  0  0  0
  4  8  1  0  0  0
  4 22  1  0  0  0
  6 37  1  0  0  0
  6 38  1  0  0  0
  6 39  1  0  0  0
  7 40  1  0  0  0
  7 41  1  0  0  0
  7 42  1  0  0  0
  8  9  2  0  0  0
  8 13  1  0  0  0
  9 10  1  0  0  0
 10 11  2  0  0  0
 10 43  1  0  0  0
 11 24  1  0  0  0
 11 12  1  0  0  0
 12 14  1  0  0  0
 12 13  2  0  0  0
 13 44  1  0  0  0
 14 19  1  0  0  0
 14 15  2  0  0  0
 15 16  1  0  0  0
 15 45  1  0  0  0
 16 17  2  0  0  0
 16 20  1  0  0  0
 17 18  1  0  0  0
 17 46  1  0  0  0
 18 19  2  0  0  0
 18 47  1  0  0  0
 19 21  1  0  0  0
 20 25  1  0  0  0
 20 26  1  0  0  0
 20 48  1  0  0  0
 21 30  1  0  0  0
 22 23  1  0  0  0
 22 49  1  0  0  0
 22 50  1  0  0  0
 23 51  1  0  0  0
 23 52  1  0  0  0
 23 53  1  0  0  0
 24 54  1  0  0  0
 24 55  1  0  0  0
 24 56  1  0  0  0
 25 26  1  0  0  0
 25 57  1  0  0  0
 25 58  1  0  0  0
 26 27  1  0  0  0
 26 59  1  0  0  0
 27 28  1  0  0  0
 27 29  2  0  0  0
 28 60  1  0  0  0
 30 31  1  0  0  0
 30 61  1  0  0  0
 30 62  1  0  0  0
 31 32  1  0  0  0
 31 33  1  0  0  0
 31 34  1  0  0  0
M  END
> <s_m_entry_id>
30804

> <s_m_entry_name>
dock_pv.17

> <s_m_Source_Path>
/home/csk/Desktop/cluster/DUD-E-result/rxra

> <s_m_Source_File>
dock_pv.maegz

> <i_m_Source_File_Index>
17

> <chembl_id>
CHEMBL246210

> <chembl_pref_name>
None

> <i_lp_mmshare_version>
53161

> <r_lp_tautomer_probability>
1

> <s_lp_Force_Field>
OPLS_2005

> <r_lp_Energy>
42.91899

> <b_lp_Chiralities_Consistent>
1

> <s_lp_Variant>
CHEMBL2061_lig460-4

> <s_i_glide_gridfile>
glide-grid_1mv9

> <i_i_glide_lignum>
548

> <i_i_glide_rotatable_bonds>
8

> <r_i_docking_score>
-11.8338642505327

> <r_i_glide_ligand_efficiency>
-0.348054830898021

> <r_i_glide_ligand_efficiency_sa>
-1.12756253634347

> <r_i_glide_ligand_efficiency_ln>
-2.61443254159173

> <r_i_glide_gscore>
-11.8338642505327

> <r_i_glide_lipo>
-6.67600694936167

> <r_i_glide_hbond>
-0.155837077712002

> <r_i_glide_metal>
0

> <r_i_glide_rewards>
-2.42316745376197

> <r_i_glide_evdw>
-47.0359764099121

> <r_i_glide_ecoul>
-4.49803733825684

> <r_i_glide_erotb>
0.447651651537044

> <r_i_glide_esite>
0

> <r_i_glide_emodel>
-73.9792616718034

> <r_i_glide_energy>
-51.5340137481689

> <r_i_glide_einternal>
8.86848545074463

> <i_i_glide_confnum>
100

> <i_i_glide_posenum>
385

> <r_i_glide_eff_state_penalty>
0

> <s_user_duplicate_titles>
CHEMBL2061_lig460

> <i_f3d_flags>
0

> <s_m_subgroup_title>
dock_pv

> <s_m_subgroupid>
dock_pv

> <b_m_subgroup_collapsed>
1

$$$$
CHEMBL2061_lig566
                    3D
 Schrodinger Suite 2021-1.
 61 65  0  0  1  0            999 V2000
   60.9020   46.8555   28.6582 N   0  0  0  0  0  0
   60.6045   46.3523   29.8031 C   0  0  0  0  0  0
   61.6365   46.0787   30.8789 C   0  0  0  0  0  0
   62.5637   46.4122   33.1514 C   0  0  0  0  0  0
   63.7249   45.6725   32.8010 C   0  0  0  0  0  0
   62.7798   45.3128   30.5819 C   0  0  0  0  0  0
   61.5789   46.6343   32.1632 C   0  0  0  0  0  0
   63.7839   45.1267   31.5207 C   0  0  0  0  0  0
   62.2095   47.0639   28.2274 C   0  0  0  0  0  0
   64.8996   45.3935   33.7718 C   0  0  0  0  0  0
   62.3607   46.9665   34.5773 C   0  0  0  0  0  0
   62.9922   44.8384   29.1731 C   0  0  0  0  0  0
   55.0137   45.0661   30.4469 C   0  0  0  0  0  0
   63.2542   46.1388   28.4564 C   0  0  0  0  0  0
   59.1797   45.9643   29.9821 C   0  0  0  0  0  0
   56.4720   45.2803   30.2525 C   0  0  0  0  0  0
   63.3474   46.3104   35.5808 C   0  0  0  0  0  0
   64.7720   46.2613   35.0440 C   0  0  0  0  0  0
   54.4082   45.6694   31.3248 O   0  0  0  0  0  0
   58.6415   45.6771   31.2366 C   0  0  0  0  0  0
   58.3233   45.8933   28.8627 C   0  0  0  0  0  0
   56.9861   45.5489   28.9895 C   0  0  0  0  0  0
   57.3014   45.3564   31.3683 C   0  0  0  0  0  0
   54.4444   44.1666   29.5973 O   0  0  0  0  0  0
   62.6156   48.4765   34.5536 C   0  0  0  0  0  0
   60.9419   46.6354   35.0740 C   0  0  0  0  0  0
   64.8572   43.8994   34.1763 C   0  0  0  0  0  0
   66.2495   45.7892   33.1178 C   0  0  0  0  0  0
   62.4940   48.1918   27.4642 C   0  0  0  0  0  0
   64.5521   46.4772   28.1392 C   0  0  0  0  0  0
   63.7855   48.4295   27.0223 C   0  0  0  0  0  0
   64.8083   47.5757   27.3391 C   0  0  0  0  0  0
   60.7416   47.2670   32.4101 H   0  0  0  0  0  0
   64.6514   44.5518   31.2321 H   0  0  0  0  0  0
   63.8355   44.1500   29.0906 H   0  0  0  0  0  0
   62.1217   44.3163   28.7716 H   0  0  0  0  0  0
   63.0271   45.2990   35.8350 H   0  0  0  0  0  0
   63.3521   46.8591   36.5241 H   0  0  0  0  0  0
   65.4459   45.9000   35.8219 H   0  0  0  0  0  0
   65.0971   47.2827   34.8396 H   0  0  0  0  0  0
   59.2201   45.7307   32.1430 H   0  0  0  0  0  0
   58.6820   46.1051   27.8651 H   0  0  0  0  0  0
   56.3592   45.5373   28.1091 H   0  0  0  0  0  0
   56.9035   45.2773   32.3682 H   0  0  0  0  0  0
   55.0914   43.7830   28.9984 H   0  0  0  0  0  0
   62.7005   48.8755   35.5655 H   0  0  0  0  0  0
   63.5302   48.7431   34.0253 H   0  0  0  0  0  0
   61.7791   48.9936   34.0749 H   0  0  0  0  0  0
   60.8378   46.8450   36.1393 H   0  0  0  0  0  0
   60.1785   47.2259   34.5690 H   0  0  0  0  0  0
   60.6850   45.5896   34.9203 H   0  0  0  0  0  0
   65.6077   43.6723   34.9348 H   0  0  0  0  0  0
   63.8872   43.6013   34.5729 H   0  0  0  0  0  0
   65.0642   43.2474   33.3262 H   0  0  0  0  0  0
   67.0743   45.7064   33.8277 H   0  0  0  0  0  0
   66.5068   45.1465   32.2769 H   0  0  0  0  0  0
   66.2376   46.8166   32.7496 H   0  0  0  0  0  0
   61.7063   48.8957   27.2494 H   0  0  0  0  0  0
   65.3648   45.8244   28.4240 H   0  0  0  0  0  0
   64.0633   49.2771   26.4675 H   0  0  0  0  0  0
   65.8078   47.7846   26.9978 H   0  0  0  0  0  0
  1  2  2  0  0  0
  1  9  1  0  0  0
  2  3  1  0  0  0
  2 15  1  0  0  0
  3  6  2  0  0  0
  3  7  1  0  0  0
  4  7  2  0  0  0
  4  5  1  0  0  0
  4 11  1  0  0  0
  5 10  1  0  0  0
  5  8  2  0  0  0
  6  8  1  0  0  0
  6 12  1  0  0  0
  7 33  1  0  0  0
  8 34  1  0  0  0
  9 14  1  0  0  0
  9 29  2  0  0  0
 10 27  1  0  0  0
 10 28  1  0  0  0
 10 18  1  0  0  0
 11 17  1  0  0  0
 11 25  1  0  0  0
 11 26  1  0  0  0
 12 14  1  0  0  0
 12 35  1  0  0  0
 12 36  1  0  0  0
 13 16  1  0  0  0
 13 19  2  0  0  0
 13 24  1  0  0  0
 14 30  2  0  0  0
 15 20  2  0  0  0
 15 21  1  0  0  0
 16 22  1  0  0  0
 16 23  2  0  0  0
 17 18  1  0  0  0
 17 37  1  0  0  0
 17 38  1  0  0  0
 18 39  1  0  0  0
 18 40  1  0  0  0
 20 23  1  0  0  0
 20 41  1  0  0  0
 21 22  2  0  0  0
 21 42  1  0  0  0
 22 43  1  0  0  0
 23 44  1  0  0  0
 24 45  1  0  0  0
 25 46  1  0  0  0
 25 47  1  0  0  0
 25 48  1  0  0  0
 26 49  1  0  0  0
 26 50  1  0  0  0
 26 51  1  0  0  0
 27 52  1  0  0  0
 27 53  1  0  0  0
 27 54  1  0  0  0
 28 55  1  0  0  0
 28 56  1  0  0  0
 28 57  1  0  0  0
 29 31  1  0  0  0
 29 58  1  0  0  0
 30 32  1  0  0  0
 30 59  1  0  0  0
 31 32  2  0  0  0
 31 60  1  0  0  0
 32 61  1  0  0  0
M  END
> <s_m_entry_id>
30805

> <s_m_entry_name>
dock_pv.18

> <s_m_Source_Path>
/home/csk/Desktop/cluster/DUD-E-result/rxra

> <s_m_Source_File>
dock_pv.maegz

> <i_m_Source_File_Index>
18

> <chembl_id>
CHEMBL134834

> <chembl_pref_name>
None

> <i_lp_mmshare_version>
53161

> <r_lp_tautomer_probability>
1

> <s_lp_Force_Field>
OPLS_2005

> <r_lp_Energy>
46.447871

> <b_lp_Chiralities_Consistent>
1

> <s_lp_Variant>
CHEMBL2061_lig566-1

> <s_i_glide_gridfile>
glide-grid_1mv9

> <i_i_glide_lignum>
697

> <i_i_glide_rotatable_bonds>
3

> <r_i_docking_score>
-11.8299966616787

> <r_i_glide_ligand_efficiency>
-0.369687395677458

> <r_i_glide_ligand_efficiency_sa>
-1.17368432023967

> <r_i_glide_ligand_efficiency_ln>
-2.64905872607962

> <r_i_glide_gscore>
-11.8299966616787

> <r_i_glide_lipo>
-7.31788125132327

> <r_i_glide_hbond>
-0.155075156357687

> <r_i_glide_metal>
0

> <r_i_glide_rewards>
-1.91814208843943

> <r_i_glide_evdw>
-37.5171012878418

> <r_i_glide_ecoul>
-5.22677850723267

> <r_i_glide_erotb>
0.220973674918717

> <r_i_glide_esite>
0

> <r_i_glide_emodel>
-76.3936624567881

> <r_i_glide_energy>
-42.7438797950745

> <r_i_glide_einternal>
12.2391471862793

> <i_i_glide_confnum>
1

> <i_i_glide_posenum>
3

> <r_i_glide_eff_state_penalty>
0

> <s_user_duplicate_titles>
CHEMBL2061_lig566

> <i_f3d_flags>
0

> <s_m_subgroup_title>
dock_pv

> <s_m_subgroupid>
dock_pv

> <b_m_subgroup_collapsed>
1

$$$$
CHEMBL2061_lig405
                    3D
 Schrodinger Suite 2021-1.
 59 61  0  0  1  0            999 V2000
   63.2505   46.4559   32.9045 C   0  0  0  0  0  0
   64.4603   45.7135   32.7894 C   0  0  0  0  0  0
   62.3683   46.8535   29.2317 C   0  0  0  0  0  0
   63.0720   46.4718   30.4603 C   0  0  0  0  0  0
   62.6066   46.8486   31.7193 C   0  0  0  0  0  0
   61.0362   46.7243   28.9854 C   0  0  0  0  0  0
   62.6433   46.8660   34.2701 C   0  0  0  0  0  0
   60.0148   46.1442   29.8400 C   0  0  0  0  0  0
   65.2432   45.1999   34.0094 C   0  0  0  0  0  0
   64.9232   45.3689   31.5110 C   0  0  0  0  0  0
   56.4533   45.2845   29.5869 C   0  0  0  0  0  0
   55.2021   44.8743   30.1779 C   0  0  0  0  0  0
   58.7332   46.0032   29.4401 C   0  0  0  0  0  0
   57.6292   45.4930   30.2389 C   0  0  0  0  0  0
   64.2412   45.7282   30.3661 C   0  0  0  0  0  0
   63.3079   46.0963   35.4371 C   0  0  0  0  0  0
   64.8098   45.9515   35.2875 C   0  0  0  0  0  0
   54.7955   45.2263   31.2799 O   0  0  0  0  0  0
   54.4757   44.0794   29.3414 O   0  0  0  0  0  0
   63.1646   47.3028   28.0264 C   0  0  0  0  0  0
   60.7847   47.1989   27.5673 C   0  0  0  0  0  0
   62.8990   48.3733   34.4843 C   0  0  0  0  0  0
   61.1376   46.5072   34.3308 C   0  0  0  0  0  0
   64.9401   43.6944   34.1385 C   0  0  0  0  0  0
   66.7588   45.4779   33.8502 C   0  0  0  0  0  0
   62.0846   47.8350   27.1623 C   0  0  0  0  0  0
   57.8306   45.2777   31.7363 C   0  0  0  0  0  0
   61.7167   47.4566   31.7786 H   0  0  0  0  0  0
   60.3042   45.8222   30.8274 H   0  0  0  0  0  0
   65.8198   44.7823   31.3907 H   0  0  0  0  0  0
   56.3947   45.4420   28.5188 H   0  0  0  0  0  0
   58.4953   46.3078   28.4304 H   0  0  0  0  0  0
   64.6349   45.4213   29.4082 H   0  0  0  0  0  0
   62.8704   45.1114   35.5735 H   0  0  0  0  0  0
   63.1279   46.6204   36.3718 H   0  0  0  0  0  0
   65.2063   45.4669   36.1797 H   0  0  0  0  0  0
   65.2159   46.9573   35.2761 H   0  0  0  0  0  0
   54.9462   43.7999   28.5483 H   0  0  0  0  0  0
   63.9673   48.0311   28.1405 H   0  0  0  0  0  0
   63.6108   46.4278   27.5499 H   0  0  0  0  0  0
   60.5650   46.3419   26.9290 H   0  0  0  0  0  0
   59.9573   47.8997   27.4743 H   0  0  0  0  0  0
   62.5537   48.6983   35.4663 H   0  0  0  0  0  0
   63.9564   48.6266   34.4091 H   0  0  0  0  0  0
   62.3757   48.9752   33.7407 H   0  0  0  0  0  0
   60.7240   46.7282   35.3155 H   0  0  0  0  0  0
   60.5490   47.0745   33.6139 H   0  0  0  0  0  0
   60.9532   45.4526   34.1290 H   0  0  0  0  0  0
   65.5376   43.2779   34.9395 H   0  0  0  0  0  0
   63.8907   43.4801   34.3481 H   0  0  0  0  0  0
   65.2099   43.1438   33.2367 H   0  0  0  0  0  0
   67.3080   45.2790   34.7715 H   0  0  0  0  0  0
   67.2079   44.8428   33.0904 H   0  0  0  0  0  0
   66.9549   46.5145   33.5723 H   0  0  0  0  0  0
   62.3368   47.6935   26.1387 H   0  0  0  0  0  0
   62.0068   48.8995   27.3297 H   0  0  0  0  0  0
   58.6172   45.9055   32.1528 H   0  0  0  0  0  0
   56.9549   45.5860   32.3044 H   0  0  0  0  0  0
   58.0244   44.2285   31.9492 H   0  0  0  0  0  0
  1  2  2  0  0  0
  1  5  1  0  0  0
  1  7  1  0  0  0
  2  9  1  0  0  0
  2 10  1  0  0  0
  3  4  1  0  0  0
  3  6  2  0  0  0
  3 20  1  0  0  0
  4  5  2  0  0  0
  4 15  1  0  0  0
  5 28  1  0  0  0
  6  8  1  0  0  0
  6 21  1  0  0  0
  7 16  1  0  0  0
  7 22  1  0  0  0
  7 23  1  0  0  0
  8 13  2  0  0  0
  8 29  1  0  0  0
  9 24  1  0  0  0
  9 25  1  0  0  0
  9 17  1  0  0  0
 10 15  2  0  0  0
 10 30  1  0  0  0
 11 14  2  0  0  0
 11 12  1  0  0  0
 11 31  1  0  0  0
 12 18  2  0  0  0
 12 19  1  0  0  0
 13 14  1  0  0  0
 13 32  1  0  0  0
 14 27  1  0  0  0
 15 33  1  0  0  0
 16 17  1  0  0  0
 16 34  1  0  0  0
 16 35  1  0  0  0
 17 36  1  0  0  0
 17 37  1  0  0  0
 19 38  1  0  0  0
 20 26  1  0  0  0
 20 39  1  0  0  0
 20 40  1  0  0  0
 21 26  1  0  0  0
 21 41  1  0  0  0
 21 42  1  0  0  0
 22 43  1  0  0  0
 22 44  1  0  0  0
 22 45  1  0  0  0
 23 46  1  0  0  0
 23 47  1  0  0  0
 23 48  1  0  0  0
 24 49  1  0  0  0
 24 50  1  0  0  0
 24 51  1  0  0  0
 25 52  1  0  0  0
 25 53  1  0  0  0
 25 54  1  0  0  0
 26 55  1  0  0  0
 26 56  1  0  0  0
 27 57  1  0  0  0
 27 58  1  0  0  0
 27 59  1  0  0  0
M  END
> <s_m_entry_id>
30806

> <s_m_entry_name>
dock_pv.19

> <s_m_Source_Path>
/home/csk/Desktop/cluster/DUD-E-result/rxra

> <s_m_Source_File>
dock_pv.maegz

> <i_m_Source_File_Index>
19

> <chembl_id>
CHEMBL79234

> <chembl_pref_name>
None

> <i_lp_mmshare_version>
53161

> <r_lp_tautomer_probability>
1

> <s_lp_Force_Field>
OPLS_2005

> <r_lp_Energy>
42.327357

> <b_lp_Chiralities_Consistent>
1

> <s_lp_Variant>
CHEMBL2061_lig405-1

> <s_i_glide_gridfile>
glide-grid_1mv9

> <i_i_glide_lignum>
476

> <i_i_glide_rotatable_bonds>
5

> <r_i_docking_score>
-11.8120056617006

> <r_i_glide_ligand_efficiency>
-0.437481691174096

> <r_i_glide_ligand_efficiency_sa>
-1.31244507208042

> <r_i_glide_ligand_efficiency_ln>
-2.74964018191111

> <r_i_glide_gscore>
-11.8120056617006

> <r_i_glide_lipo>
-6.96906172618272

> <r_i_glide_hbond>
-0.0219295072235347

> <r_i_glide_metal>
0

> <r_i_glide_rewards>
-2.16944264544968

> <r_i_glide_evdw>
-48.5922203063965

> <r_i_glide_ecoul>
-5.33814716339111

> <r_i_glide_erotb>
0.578761306983824

> <r_i_glide_esite>
0

> <r_i_glide_emodel>
-76.2701039923874

> <r_i_glide_energy>
-53.9303674697876

> <r_i_glide_einternal>
3.19582629203796

> <i_i_glide_confnum>
102

> <i_i_glide_posenum>
112

> <r_i_glide_eff_state_penalty>
0

> <s_user_duplicate_titles>
CHEMBL2061_lig405,125651

> <i_f3d_flags>
0

> <s_m_subgroup_title>
dock_pv

> <s_m_subgroupid>
dock_pv

> <b_m_subgroup_collapsed>
1

$$$$
CHEMBL2061_lig45
                    3D
 Schrodinger Suite 2021-1.
 65 68  0  0  1  0            999 V2000
   61.8737   46.5715   30.6150 C   0  0  0  0  0  0
   60.8191   46.8584   29.5920 C   0  0  0  0  0  0
   61.2139   47.5683   28.5090 C   0  0  0  0  0  0
   62.6744   46.5957   32.9565 C   0  0  0  0  0  0
   63.9193   46.0579   32.5444 C   0  0  0  0  0  0
   61.7016   46.8658   31.9722 C   0  0  0  0  0  0
   63.1282   46.0723   30.2284 C   0  0  0  0  0  0
   64.1221   45.8710   31.1750 C   0  0  0  0  0  0
   60.9364   48.0857   27.1396 C   0  0  0  0  0  0
   62.3151   48.2653   27.7529 C   0  0  0  0  0  0
   62.4096   46.9725   34.4318 C   0  0  0  0  0  0
   65.0196   45.6072   33.5396 C   0  0  0  0  0  0
   55.2293   45.2558   30.1055 C   0  0  0  0  0  0
   59.4265   46.2723   29.6893 C   0  0  0  0  0  0
   56.7069   45.4875   29.9150 C   0  0  0  0  0  0
   63.3549   46.2045   35.3876 C   0  0  0  0  0  0
   64.8087   46.2373   34.9350 C   0  0  0  0  0  0
   54.7686   44.4774   30.9377 O   0  0  0  0  0  0
   58.5466   46.3460   28.5982 C   0  0  0  0  0  0
   58.9274   45.6772   30.8583 C   0  0  0  0  0  0
   57.2112   45.9693   28.7054 C   0  0  0  0  0  0
   57.5982   45.2738   30.9687 C   0  0  0  0  0  0
   54.4458   46.0680   29.3401 O   0  0  0  0  0  0
   63.4906   45.7936   28.9303 O   0  0  0  0  0  0
   66.4081   46.0937   33.0732 C   0  0  0  0  0  0
   64.9477   44.0662   33.6705 C   0  0  0  0  0  0
   60.9693   46.6000   34.8548 C   0  0  0  0  0  0
   62.7004   48.4769   34.5681 C   0  0  0  0  0  0
   62.7015   44.9022   28.1393 C   0  0  0  0  0  0
   62.4374   43.5135   28.7262 C   0  0  0  0  0  0
   63.5916   42.8846   29.5194 C   0  0  0  0  0  0
   60.7842   47.3370   32.2749 H   0  0  0  0  0  0
   65.0651   45.4861   30.8191 H   0  0  0  0  0  0
   60.8065   47.3715   26.3296 H   0  0  0  0  0  0
   60.4078   49.0215   26.9993 H   0  0  0  0  0  0
   62.6070   49.2700   28.0484 H   0  0  0  0  0  0
   63.1412   47.6809   27.3488 H   0  0  0  0  0  0
   63.2991   46.6295   36.3897 H   0  0  0  0  0  0
   63.0427   45.1681   35.4962 H   0  0  0  0  0  0
   65.1536   47.2717   34.9388 H   0  0  0  0  0  0
   65.4323   45.7367   35.6783 H   0  0  0  0  0  0
   58.8644   46.7402   27.6483 H   0  0  0  0  0  0
   59.5227   45.6764   31.7535 H   0  0  0  0  0  0
   56.5783   46.0776   27.8359 H   0  0  0  0  0  0
   57.2532   44.8871   31.9148 H   0  0  0  0  0  0
   55.0049   46.6484   28.8208 H   0  0  0  0  0  0
   67.1737   45.8969   33.8257 H   0  0  0  0  0  0
   66.7435   45.5874   32.1692 H   0  0  0  0  0  0
   66.4157   47.1670   32.8767 H   0  0  0  0  0  0
   65.6708   43.6907   34.3957 H   0  0  0  0  0  0
   63.9614   43.7208   33.9808 H   0  0  0  0  0  0
   65.1693   43.5789   32.7209 H   0  0  0  0  0  0
   60.8342   46.6525   35.9359 H   0  0  0  0  0  0
   60.7007   45.5923   34.5401 H   0  0  0  0  0  0
   60.2299   47.2769   34.4336 H   0  0  0  0  0  0
   62.6071   48.8092   35.6028 H   0  0  0  0  0  0
   63.6988   48.7474   34.2270 H   0  0  0  0  0  0
   62.0083   49.0628   33.9647 H   0  0  0  0  0  0
   61.7400   45.2888   27.8269 H   0  0  0  0  0  0
   63.2080   44.8770   27.1884 H   0  0  0  0  0  0
   61.5432   43.5766   29.3390 H   0  0  0  0  0  0
   62.1575   42.8490   27.9109 H   0  0  0  0  0  0
   63.2088   42.0773   30.1390 H   0  0  0  0  0  0
   64.3547   42.4770   28.8602 H   0  0  0  0  0  0
   64.0884   43.5577   30.2031 H   0  0  0  0  0  0
  1  2  1  0  0  0
  1  6  2  0  0  0
  1  7  1  0  0  0
  2  3  2  0  0  0
  2 14  1  0  0  0
  3  9  1  0  0  0
  3 10  1  0  0  0
  4  6  1  0  0  0
  4 11  1  0  0  0
  4  5  2  0  0  0
  5  8  1  0  0  0
  5 12  1  0  0  0
  6 32  1  0  0  0
  7  8  2  0  0  0
  7 24  1  0  0  0
  8 33  1  0  0  0
  9 10  1  0  0  0
  9 34  1  0  0  0
  9 35  1  0  0  0
 10 36  1  0  0  0
 10 37  1  0  0  0
 11 16  1  0  0  0
 11 27  1  0  0  0
 11 28  1  0  0  0
 12 17  1  0  0  0
 12 25  1  0  0  0
 12 26  1  0  0  0
 13 15  1  0  0  0
 13 18  2  0  0  0
 13 23  1  0  0  0
 14 19  1  0  0  0
 14 20  2  0  0  0
 15 22  2  0  0  0
 15 21  1  0  0  0
 16 17  1  0  0  0
 16 38  1  0  0  0
 16 39  1  0  0  0
 17 40  1  0  0  0
 17 41  1  0  0  0
 19 21  2  0  0  0
 19 42  1  0  0  0
 20 22  1  0  0  0
 20 43  1  0  0  0
 21 44  1  0  0  0
 22 45  1  0  0  0
 23 46  1  0  0  0
 24 29  1  0  0  0
 25 47  1  0  0  0
 25 48  1  0  0  0
 25 49  1  0  0  0
 26 50  1  0  0  0
 26 51  1  0  0  0
 26 52  1  0  0  0
 27 53  1  0  0  0
 27 54  1  0  0  0
 27 55  1  0  0  0
 28 56  1  0  0  0
 28 57  1  0  0  0
 28 58  1  0  0  0
 29 30  1  0  0  0
 29 59  1  0  0  0
 29 60  1  0  0  0
 30 31  1  0  0  0
 30 61  1  0  0  0
 30 62  1  0  0  0
 31 63  1  0  0  0
 31 64  1  0  0  0
 31 65  1  0  0  0
M  END
> <s_m_entry_id>
30807

> <s_m_entry_name>
dock_pv.20

> <s_m_Source_Path>
/home/csk/Desktop/cluster/DUD-E-result/rxra

> <s_m_Source_File>
dock_pv.maegz

> <i_m_Source_File_Index>
20

> <chembl_id>
CHEMBL187021

> <chembl_pref_name>
None

> <i_lp_mmshare_version>
53161

> <r_lp_tautomer_probability>
1

> <s_lp_Force_Field>
OPLS_2005

> <r_lp_Energy>
54.994723

> <b_lp_Chiralities_Consistent>
1

> <s_lp_Variant>
CHEMBL2061_lig45-1

> <s_i_glide_gridfile>
glide-grid_1mv9

> <i_i_glide_lignum>
62

> <i_i_glide_rotatable_bonds>
7

> <r_i_docking_score>
-11.8014155259076

> <r_i_glide_ligand_efficiency>
-0.380690823416375

> <r_i_glide_ligand_efficiency_sa>
-1.19589478585425

> <r_i_glide_ligand_efficiency_ln>
-2.66158087104312

> <r_i_glide_gscore>
-11.8014155259076

> <r_i_glide_lipo>
-7.68241900198398

> <r_i_glide_hbond>
-0.128142015297998

> <r_i_glide_metal>
0

> <r_i_glide_rewards>
-1.72354594111595

> <r_i_glide_evdw>
-50.7556762695312

> <r_i_glide_ecoul>
-1.95930600166321

> <r_i_glide_erotb>
0.564371146216362

> <r_i_glide_esite>
0

> <r_i_glide_emodel>
-76.316621576911

> <r_i_glide_energy>
-52.7149822711945

> <r_i_glide_einternal>
12.979775428772

> <i_i_glide_confnum>
301

> <i_i_glide_posenum>
191

> <r_i_glide_eff_state_penalty>
0

> <s_user_duplicate_titles>
CHEMBL2061_lig45,312217

> <i_f3d_flags>
0

> <s_m_subgroup_title>
dock_pv

> <s_m_subgroupid>
dock_pv

> <b_m_subgroup_collapsed>
1

$$$$
CHEMBL2061_lig561
                    3D
 Schrodinger Suite 2021-1.
 59 63  0  0  1  0            999 V2000
   60.9827   46.8238   28.4536 N   0  0  0  0  0  0
   61.6537   46.1457   30.7421 C   0  0  0  0  0  0
   60.6488   46.3942   29.6256 C   0  0  0  0  0  0
   62.8127   45.4128   30.4608 C   0  0  0  0  0  0
   62.5595   46.4371   33.0400 C   0  0  0  0  0  0
   63.7226   45.6960   32.6953 C   0  0  0  0  0  0
   63.0751   45.0430   29.1867 O   0  0  0  0  0  0
   61.5776   46.6677   32.0429 C   0  0  0  0  0  0
   63.8032   45.1945   31.4004 C   0  0  0  0  0  0
   62.3065   46.9975   28.0292 C   0  0  0  0  0  0
   64.8765   45.3703   33.6796 C   0  0  0  0  0  0
   62.3586   46.9796   34.4708 C   0  0  0  0  0  0
   63.3496   46.1513   28.4443 C   0  0  0  0  0  0
   55.0570   44.8953   30.2845 C   0  0  0  0  0  0
   59.2003   46.0608   29.8058 C   0  0  0  0  0  0
   56.4966   45.2670   30.0802 C   0  0  0  0  0  0
   63.3063   46.2790   35.4800 C   0  0  0  0  0  0
   64.7463   46.1923   34.9811 C   0  0  0  0  0  0
   54.4119   45.2770   31.2553 O   0  0  0  0  0  0
   58.6830   45.6770   31.0430 C   0  0  0  0  0  0
   58.3091   46.0768   28.7103 C   0  0  0  0  0  0
   56.9779   45.6808   28.8403 C   0  0  0  0  0  0
   57.3612   45.2771   31.1687 C   0  0  0  0  0  0
   54.5345   44.0770   29.3390 O   0  0  0  0  0  0
   62.6871   48.4770   34.4788 C   0  0  0  0  0  0
   60.9226   46.6848   34.9495 C   0  0  0  0  0  0
   64.8073   43.8658   34.0364 C   0  0  0  0  0  0
   66.2425   45.7640   33.0607 C   0  0  0  0  0  0
   62.6289   47.9434   27.0585 C   0  0  0  0  0  0
   64.6655   46.4770   28.1841 C   0  0  0  0  0  0
   63.9536   48.1694   26.6864 C   0  0  0  0  0  0
   64.9728   47.4649   27.2744 C   0  0  0  0  0  0
   60.7268   47.2775   32.2926 H   0  0  0  0  0  0
   64.6682   44.6286   31.0905 H   0  0  0  0  0  0
   62.9490   45.2770   35.7129 H   0  0  0  0  0  0
   63.3031   46.8134   36.4303 H   0  0  0  0  0  0
   65.3805   45.7708   35.7627 H   0  0  0  0  0  0
   65.1290   47.2027   34.8358 H   0  0  0  0  0  0
   59.2760   45.6770   31.9411 H   0  0  0  0  0  0
   58.6444   46.3740   27.7277 H   0  0  0  0  0  0
   56.3351   45.7154   27.9714 H   0  0  0  0  0  0
   57.0032   45.0262   32.1390 H   0  0  0  0  0  0
   55.1835   43.7806   28.6916 H   0  0  0  0  0  0
   62.5997   48.8770   35.4890 H   0  0  0  0  0  0
   63.6972   48.6953   34.1388 H   0  0  0  0  0  0
   62.0080   49.0366   33.8346 H   0  0  0  0  0  0
   60.8081   46.9132   36.0099 H   0  0  0  0  0  0
   60.1728   47.2768   34.4334 H   0  0  0  0  0  0
   60.6521   45.6401   34.8112 H   0  0  0  0  0  0
   65.5683   43.6040   34.7719 H   0  0  0  0  0  0
   63.8389   43.5784   34.4461 H   0  0  0  0  0  0
   64.9828   43.2366   33.1629 H   0  0  0  0  0  0
   67.0547   45.6485   33.7804 H   0  0  0  0  0  0
   66.5031   45.1424   32.2045 H   0  0  0  0  0  0
   66.2502   46.8024   32.7248 H   0  0  0  0  0  0
   61.8216   48.4770   26.5946 H   0  0  0  0  0  0
   65.4517   45.8575   28.5899 H   0  0  0  0  0  0
   64.2593   48.8770   25.9550 H   0  0  0  0  0  0
   66.0065   47.6347   26.9947 H   0  0  0  0  0  0
  1  3  2  0  0  0
  1 10  1  0  0  0
  2  3  1  0  0  0
  2  4  2  0  0  0
  2  8  1  0  0  0
  3 15  1  0  0  0
  4  9  1  0  0  0
  4  7  1  0  0  0
  5  8  2  0  0  0
  5  6  1  0  0  0
  5 12  1  0  0  0
  6 11  1  0  0  0
  6  9  2  0  0  0
  7 13  1  0  0  0
  8 33  1  0  0  0
  9 34  1  0  0  0
 10 13  1  0  0  0
 10 29  2  0  0  0
 11 27  1  0  0  0
 11 28  1  0  0  0
 11 18  1  0  0  0
 12 17  1  0  0  0
 12 25  1  0  0  0
 12 26  1  0  0  0
 13 30  2  0  0  0
 14 16  1  0  0  0
 14 19  2  0  0  0
 14 24  1  0  0  0
 15 20  2  0  0  0
 15 21  1  0  0  0
 16 22  1  0  0  0
 16 23  2  0  0  0
 17 18  1  0  0  0
 17 35  1  0  0  0
 17 36  1  0  0  0
 18 37  1  0  0  0
 18 38  1  0  0  0
 20 23  1  0  0  0
 20 39  1  0  0  0
 21 22  2  0  0  0
 21 40  1  0  0  0
 22 41  1  0  0  0
 23 42  1  0  0  0
 24 43  1  0  0  0
 25 44  1  0  0  0
 25 45  1  0  0  0
 25 46  1  0  0  0
 26 47  1  0  0  0
 26 48  1  0  0  0
 26 49  1  0  0  0
 27 50  1  0  0  0
 27 51  1  0  0  0
 27 52  1  0  0  0
 28 53  1  0  0  0
 28 54  1  0  0  0
 28 55  1  0  0  0
 29 31  1  0  0  0
 29 56  1  0  0  0
 30 32  1  0  0  0
 30 57  1  0  0  0
 31 32  2  0  0  0
 31 58  1  0  0  0
 32 59  1  0  0  0
M  END
> <s_m_entry_id>
30808

> <s_m_entry_name>
dock_pv.21

> <s_m_Source_Path>
/home/csk/Desktop/cluster/DUD-E-result/rxra

> <s_m_Source_File>
dock_pv.maegz

> <i_m_Source_File_Index>
21

> <chembl_id>
CHEMBL334534

> <chembl_pref_name>
None

> <i_lp_mmshare_version>
53161

> <r_lp_tautomer_probability>
1

> <s_lp_Force_Field>
OPLS_2005

> <r_lp_Energy>
47.706375

> <b_lp_Chiralities_Consistent>
1

> <s_lp_Variant>
CHEMBL2061_lig561-1

> <s_i_glide_gridfile>
glide-grid_1mv9

> <i_i_glide_lignum>
661

> <i_i_glide_rotatable_bonds>
3

> <r_i_docking_score>
-11.7553388974526

> <r_i_glide_ligand_efficiency>
-0.367354340545395

> <r_i_glide_ligand_efficiency_sa>
-1.16627733190635

> <r_i_glide_ligand_efficiency_ln>
-2.63234081757562

> <r_i_glide_gscore>
-11.7553388974526

> <r_i_glide_lipo>
-7.14150653299278

> <r_i_glide_hbond>
-0.174644750185495

> <r_i_glide_metal>
0

> <r_i_glide_rewards>
-2.04926079956578

> <r_i_glide_evdw>
-35.7214279174805

> <r_i_glide_ecoul>
-5.48652601242065

> <r_i_glide_erotb>
0.219123483028527

> <r_i_glide_esite>
0

> <r_i_glide_emodel>
-100.601472284854

> <r_i_glide_energy>
-41.2079539299011

> <r_i_glide_einternal>
11.880464553833

> <i_i_glide_confnum>
2

> <i_i_glide_posenum>
13

> <r_i_glide_eff_state_penalty>
0

> <s_user_duplicate_titles>
CHEMBL2061_lig561

> <i_f3d_flags>
0

> <s_m_subgroup_title>
dock_pv

> <s_m_subgroupid>
dock_pv

> <b_m_subgroup_collapsed>
1

$$$$
CHEMBL2061_lig400
                    3D
 Schrodinger Suite 2021-1.
 60 63  0  0  1  0            999 V2000
   60.8750   46.1677   29.1281 C   0  0  0  0  0  0
   60.4864   46.8804   28.0192 C   0  0  0  0  0  0
   59.6919   45.6473   29.6650 C   0  0  0  0  0  0
   62.3522   46.0797   29.5026 C   0  0  2  0  0  0
   63.7810   45.8651   33.0376 C   0  0  0  0  0  0
   59.1408   46.8632   27.8850 O   0  0  0  0  0  0
   58.6310   46.1132   28.8991 C   0  0  0  0  0  0
   62.9981   46.8421   33.7125 C   0  0  0  0  0  0
   62.5905   46.3617   30.9689 C   0  0  0  0  0  0
   63.5490   45.6498   31.6741 C   0  0  0  0  0  0
   62.7642   47.1927   27.2648 N   0  0  2  0  0  0
   61.3983   47.7400   27.1712 C   0  0  0  0  0  0
   64.8264   44.9837   33.7445 C   0  0  0  0  0  0
   63.1388   47.1484   35.2168 C   0  0  0  0  0  0
   63.2036   47.0738   28.6571 C   0  0  0  0  0  0
   57.1889   45.9840   29.0018 C   0  0  0  0  0  0
   62.1186   47.6199   32.9510 C   0  0  0  0  0  0
   56.5072   45.4681   30.0501 C   0  0  0  0  0  0
   55.0664   45.4047   30.1466 C   0  0  0  0  0  0
   61.9061   47.3872   31.6078 C   0  0  0  0  0  0
   65.1002   45.5003   35.1768 C   0  0  0  0  0  0
   63.8460   45.9649   35.9253 C   0  0  0  0  0  0
   54.4721   44.6684   30.9310 O   0  0  0  0  0  0
   54.4184   46.2949   29.3395 O   0  0  0  0  0  0
   63.7112   48.0223   26.5334 C   0  0  0  0  0  0
   64.2537   43.5458   33.8139 C   0  0  0  0  0  0
   66.1853   45.0528   33.0016 C   0  0  0  0  0  0
   64.0078   48.4126   35.3323 C   0  0  0  0  0  0
   61.7519   47.3484   35.8964 C   0  0  0  0  0  0
   59.6135   45.0213   30.5387 H   0  0  0  0  0  0
   62.6852   45.0626   29.2952 H   0  0  0  0  0  0
   64.0995   44.8808   31.1551 H   0  0  0  0  0  0
   61.0575   47.7484   26.1387 H   0  0  0  0  0  0
   61.3641   48.7643   27.5480 H   0  0  0  0  0  0
   64.2398   46.7317   28.6856 H   0  0  0  0  0  0
   63.2013   48.0697   29.0999 H   0  0  0  0  0  0
   56.6721   46.3643   28.1345 H   0  0  0  0  0  0
   61.6086   48.4467   33.4067 H   0  0  0  0  0  0
   57.0303   45.0602   30.9038 H   0  0  0  0  0  0
   61.2088   48.0088   31.0670 H   0  0  0  0  0  0
   65.8132   46.3236   35.1557 H   0  0  0  0  0  0
   65.6075   44.7258   35.7388 H   0  0  0  0  0  0
   64.1213   46.2470   36.9401 H   0  0  0  0  0  0
   63.1673   45.1173   36.0264 H   0  0  0  0  0  0
   55.0404   46.8210   28.8344 H   0  0  0  0  0  0
   64.7121   47.5922   26.5714 H   0  0  0  0  0  0
   63.4333   48.0844   25.4830 H   0  0  0  0  0  0
   63.7626   49.0319   26.9403 H   0  0  0  0  0  0
   64.8082   42.9180   34.5020 H   0  0  0  0  0  0
   63.2154   43.5308   34.1390 H   0  0  0  0  0  0
   64.2814   43.0549   32.8405 H   0  0  0  0  0  0
   66.9479   44.4779   33.5264 H   0  0  0  0  0  0
   66.1314   44.6475   31.9930 H   0  0  0  0  0  0
   66.5469   46.0778   32.9133 H   0  0  0  0  0  0
   64.2763   48.6224   36.3646 H   0  0  0  0  0  0
   64.9132   48.2953   34.7419 H   0  0  0  0  0  0
   63.4904   49.2788   34.9353 H   0  0  0  0  0  0
   61.8547   47.7067   36.9230 H   0  0  0  0  0  0
   61.1371   48.1040   35.4137 H   0  0  0  0  0  0
   61.1696   46.4267   35.9105 H   0  0  0  0  0  0
  1  2  2  0  0  0
  1  3  1  0  0  0
  1  4  1  0  0  0
  2  6  1  0  0  0
  2 12  1  0  0  0
  3  7  2  0  0  0
  3 30  1  0  0  0
  4  9  1  0  0  0
  4 15  1  0  0  0
  4 31  1  0  0  0
  5 10  2  0  0  0
  5 13  1  0  0  0
  5  8  1  0  0  0
  6  7  1  0  0  0
  7 16  1  0  0  0
  8 17  2  0  0  0
  8 14  1  0  0  0
  9 10  1  0  0  0
  9 20  2  0  0  0
 10 32  1  0  0  0
 11 15  1  0  0  0
 11 25  1  0  0  0
 11 12  1  0  0  0
 12 33  1  0  0  0
 12 34  1  0  0  0
 13 21  1  0  0  0
 13 26  1  0  0  0
 13 27  1  0  0  0
 14 22  1  0  0  0
 14 28  1  0  0  0
 14 29  1  0  0  0
 15 35  1  0  0  0
 15 36  1  0  0  0
 16 18  2  0  0  0
 16 37  1  0  0  0
 17 20  1  0  0  0
 17 38  1  0  0  0
 18 19  1  0  0  0
 18 39  1  0  0  0
 19 23  2  0  0  0
 19 24  1  0  0  0
 20 40  1  0  0  0
 21 22  1  0  0  0
 21 41  1  0  0  0
 21 42  1  0  0  0
 22 43  1  0  0  0
 22 44  1  0  0  0
 24 45  1  0  0  0
 25 46  1  0  0  0
 25 47  1  0  0  0
 25 48  1  0  0  0
 26 49  1  0  0  0
 26 50  1  0  0  0
 26 51  1  0  0  0
 27 52  1  0  0  0
 27 53  1  0  0  0
 27 54  1  0  0  0
 28 55  1  0  0  0
 28 56  1  0  0  0
 28 57  1  0  0  0
 29 58  1  0  0  0
 29 59  1  0  0  0
 29 60  1  0  0  0
M  END
> <s_m_entry_id>
30809

> <s_m_entry_name>
dock_pv.22

> <s_m_Source_Path>
/home/csk/Desktop/cluster/DUD-E-result/rxra

> <s_m_Source_File>
dock_pv.maegz

> <i_m_Source_File_Index>
22

> <chembl_id>
CHEMBL2113736

> <chembl_pref_name>
None

> <i_lp_mmshare_version>
53161

> <r_lp_tautomer_probability>
1

> <s_lp_Force_Field>
OPLS_2005

> <r_lp_Energy>
31.674598

> <b_lp_Chiralities_Consistent>
1

> <s_lp_Variant>
CHEMBL2061_lig400-1

> <s_i_glide_gridfile>
glide-grid_1mv9

> <i_i_glide_lignum>
469

> <i_i_glide_rotatable_bonds>
4

> <r_i_docking_score>
-11.74805364534

> <r_i_glide_ligand_efficiency>
-0.405105298115172

> <r_i_glide_ligand_efficiency_sa>
-1.24461182217673

> <r_i_glide_ligand_efficiency_ln>
-2.69000637984635

> <r_i_glide_gscore>
-11.74805364534

> <r_i_glide_lipo>
-6.87655998772644

> <r_i_glide_hbond>
-0.266392590520308

> <r_i_glide_metal>
0

> <r_i_glide_rewards>
-2.16798099409825

> <r_i_glide_evdw>
-45.9150466918945

> <r_i_glide_ecoul>
-3.46551060676575

> <r_i_glide_erotb>
0.37845885261461

> <r_i_glide_esite>
0

> <r_i_glide_emodel>
-75.7767645305214

> <r_i_glide_energy>
-49.3805572986603

> <r_i_glide_einternal>
2.78371119499207

> <i_i_glide_confnum>
9

> <i_i_glide_posenum>
285

> <r_i_glide_eff_state_penalty>
0

> <s_user_duplicate_titles>
CHEMBL2061_lig400

> <i_f3d_flags>
0

> <s_m_subgroup_title>
dock_pv

> <s_m_subgroupid>
dock_pv

> <b_m_subgroup_collapsed>
1

$$$$
CHEMBL2061_lig568
                    3D
 Schrodinger Suite 2021-1.
 60 62  0  0  1  0            999 V2000
   61.3275   46.4665   29.5842 N   0  0  0  0  0  0
   62.6403   46.5966   29.9670 C   0  0  0  0  0  0
   63.1341   46.4206   31.3586 C   0  0  0  0  0  0
   60.2049   46.0771   30.2660 C   0  0  0  0  0  0
   61.2967   46.8152   28.2290 C   0  0  0  0  0  0
   62.5366   47.0699   27.7449 N   0  0  0  0  0  0
   64.2532   45.6220   31.6334 C   0  0  0  0  0  0
   63.3197   46.8756   28.7787 C   0  0  0  0  0  0
   58.9492   46.0750   29.6414 C   0  0  0  0  0  0
   64.7331   45.5391   32.9506 C   0  0  0  0  0  0
   62.4742   47.0845   32.3988 C   0  0  0  0  0  0
   64.0565   46.2045   33.9768 C   0  0  0  0  0  0
   57.7077   45.6723   30.3889 C   0  0  0  0  0  0
   62.9300   46.9813   33.7141 C   0  0  0  0  0  0
   56.5344   45.4508   29.7303 C   0  0  0  0  0  0
   60.0603   46.8393   27.5878 C   0  0  0  0  0  0
   58.9164   46.4688   28.2938 C   0  0  0  0  0  0
   55.2579   45.1418   30.3278 C   0  0  0  0  0  0
   54.8077   45.6690   31.3396 O   0  0  0  0  0  0
   65.9634   44.7070   33.2925 C   0  0  0  0  0  0
   64.8653   44.9230   30.6145 O   0  0  0  0  0  0
   62.1952   47.6955   34.8472 C   0  0  0  0  0  0
   54.5527   44.2439   29.5876 O   0  0  0  0  0  0
   57.8465   45.5174   31.9136 C   0  0  0  0  0  0
   65.5456   43.3953   33.9719 C   0  0  0  0  0  0
   66.9846   45.4806   34.1421 C   0  0  0  0  0  0
   64.4021   43.5834   30.4292 C   0  0  0  0  0  0
   63.1360   48.3969   35.8439 C   0  0  0  0  0  0
   61.2350   46.7399   35.5733 C   0  0  0  0  0  0
   63.3405   43.5049   29.3284 C   0  0  0  0  0  0
   60.3736   45.7825   31.2890 H   0  0  0  0  0  0
   64.3932   46.9671   28.6820 H   0  0  0  0  0  0
   61.6154   47.7034   32.1821 H   0  0  0  0  0  0
   64.4027   46.1057   34.9941 H   0  0  0  0  0  0
   56.4720   45.4984   28.6564 H   0  0  0  0  0  0
   60.0105   47.1202   26.5524 H   0  0  0  0  0  0
   57.9939   46.4770   27.7398 H   0  0  0  0  0  0
   66.4885   44.4771   32.3653 H   0  0  0  0  0  0
   61.6080   48.4967   34.3986 H   0  0  0  0  0  0
   55.0465   43.8985   28.8364 H   0  0  0  0  0  0
   58.5592   46.2097   32.3587 H   0  0  0  0  0  0
   56.9228   45.6763   32.4643 H   0  0  0  0  0  0
   58.1954   44.5097   32.1417 H   0  0  0  0  0  0
   64.8374   42.8235   33.3758 H   0  0  0  0  0  0
   66.4068   42.7599   34.1388 H   0  0  0  0  0  0
   65.0795   43.5822   34.9397 H   0  0  0  0  0  0
   67.2987   46.3947   33.6393 H   0  0  0  0  0  0
   66.5787   45.7679   35.1093 H   0  0  0  0  0  0
   67.8715   44.8773   34.3303 H   0  0  0  0  0  0
   65.2604   42.9774   30.1392 H   0  0  0  0  0  0
   64.0084   43.1373   31.3425 H   0  0  0  0  0  0
   63.8309   49.0631   35.3323 H   0  0  0  0  0  0
   62.5510   48.9991   36.5382 H   0  0  0  0  0  0
   63.7170   47.6915   36.4390 H   0  0  0  0  0  0
   60.4142   46.4271   34.9260 H   0  0  0  0  0  0
   61.7472   45.8416   35.9220 H   0  0  0  0  0  0
   60.8080   47.2245   36.4498 H   0  0  0  0  0  0
   63.1448   42.4768   29.0359 H   0  0  0  0  0  0
   62.3973   43.9289   29.6663 H   0  0  0  0  0  0
   63.6480   44.0518   28.4404 H   0  0  0  0  0  0
  1  2  1  0  0  0
  1  4  1  0  0  0
  1  5  1  0  0  0
  2  3  1  0  0  0
  2  8  2  0  0  0
  3  7  1  0  0  0
  3 11  2  0  0  0
  4  9  2  0  0  0
  4 31  1  0  0  0
  5  6  2  0  0  0
  5 16  1  0  0  0
  6  8  1  0  0  0
  7 10  2  0  0  0
  7 21  1  0  0  0
  8 32  1  0  0  0
  9 13  1  0  0  0
  9 17  1  0  0  0
 10 20  1  0  0  0
 10 12  1  0  0  0
 11 14  1  0  0  0
 11 33  1  0  0  0
 12 14  2  0  0  0
 12 34  1  0  0  0
 13 15  2  0  0  0
 13 24  1  0  0  0
 14 22  1  0  0  0
 15 18  1  0  0  0
 15 35  1  0  0  0
 16 17  2  0  0  0
 16 36  1  0  0  0
 17 37  1  0  0  0
 18 19  2  0  0  0
 18 23  1  0  0  0
 20 25  1  0  0  0
 20 26  1  0  0  0
 20 38  1  0  0  0
 21 27  1  0  0  0
 22 28  1  0  0  0
 22 29  1  0  0  0
 22 39  1  0  0  0
 23 40  1  0  0  0
 24 41  1  0  0  0
 24 42  1  0  0  0
 24 43  1  0  0  0
 25 44  1  0  0  0
 25 45  1  0  0  0
 25 46  1  0  0  0
 26 47  1  0  0  0
 26 48  1  0  0  0
 26 49  1  0  0  0
 27 30  1  0  0  0
 27 50  1  0  0  0
 27 51  1  0  0  0
 28 52  1  0  0  0
 28 53  1  0  0  0
 28 54  1  0  0  0
 29 55  1  0  0  0
 29 56  1  0  0  0
 29 57  1  0  0  0
 30 58  1  0  0  0
 30 59  1  0  0  0
 30 60  1  0  0  0
M  END
> <s_m_entry_id>
30810

> <s_m_entry_name>
dock_pv.23

> <s_m_Source_Path>
/home/csk/Desktop/cluster/DUD-E-result/rxra

> <s_m_Source_File>
dock_pv.maegz

> <i_m_Source_File_Index>
23

> <chembl_id>
CHEMBL328072

> <chembl_pref_name>
None

> <i_lp_mmshare_version>
53161

> <r_lp_tautomer_probability>
1

> <s_lp_Force_Field>
OPLS_2005

> <r_lp_Energy>
31.017962

> <b_lp_Chiralities_Consistent>
1

> <s_lp_Variant>
CHEMBL2061_lig568-1

> <s_i_glide_gridfile>
glide-grid_1mv9

> <i_i_glide_lignum>
699

> <i_i_glide_rotatable_bonds>
8

> <r_i_docking_score>
-11.7151533385245

> <r_i_glide_ligand_efficiency>
-0.390505111284148

> <r_i_glide_ligand_efficiency_sa>
-1.21339017414758

> <r_i_glide_ligand_efficiency_ln>
-2.66181048533209

> <r_i_glide_gscore>
-11.7151533385245

> <r_i_glide_lipo>
-6.36195529011472

> <r_i_glide_hbond>
-0.103531617156772

> <r_i_glide_metal>
0

> <r_i_glide_rewards>
-2.51557972493151

> <r_i_glide_evdw>
-51.5623779296875

> <r_i_glide_ecoul>
-4.21272277832031

> <r_i_glide_erotb>
0.475940606910962

> <r_i_glide_esite>
0

> <r_i_glide_emodel>
-87.9676432509943

> <r_i_glide_energy>
-55.7751007080078

> <r_i_glide_einternal>
6.59088611602783

> <i_i_glide_confnum>
34

> <i_i_glide_posenum>
179

> <r_i_glide_eff_state_penalty>
0

> <s_user_duplicate_titles>
CHEMBL2061_lig568

> <i_f3d_flags>
0

> <s_m_subgroup_title>
dock_pv

> <s_m_subgroupid>
dock_pv

> <b_m_subgroup_collapsed>
1

$$$$
CHEMBL2061_lig442
                    3D
 Schrodinger Suite 2021-1.
 58 60  0  0  1  0            999 V2000
   64.0770   46.7301   35.3995 C   0  0  0  0  0  0
   65.4383   46.3489   34.7983 C   0  0  0  0  0  0
   65.4070   45.2116   33.7382 C   0  0  0  0  0  0
   63.0339   46.5520   34.5444 N   0  0  0  0  0  0
   64.0072   47.1792   36.5392 O   0  0  0  0  0  0
   65.1303   43.8368   34.3807 C   0  0  0  0  0  0
   66.7824   45.2757   33.0557 C   0  0  0  0  0  0
   63.1614   46.2246   33.1667 C   0  0  0  0  0  0
   64.2918   45.5058   32.7335 C   0  0  0  0  0  0
   64.3403   45.0427   31.4148 C   0  0  0  0  0  0
   63.3256   45.3122   30.5090 C   0  0  0  0  0  0
   62.2465   46.1163   30.9075 C   0  0  0  0  0  0
   62.1639   46.5429   32.2343 C   0  0  0  0  0  0
   61.1603   46.4576   29.9705 C   0  0  0  0  0  0
   59.9046   45.8756   30.1525 C   0  0  0  0  0  0
   58.8811   46.0507   29.2360 C   0  0  0  0  0  0
   59.1569   46.7980   28.0986 C   0  0  0  0  0  0
   60.3637   47.4701   27.9358 C   0  0  0  0  0  0
   61.3766   47.3166   28.8837 C   0  0  0  0  0  0
   57.5197   45.3987   29.4895 C   0  0  0  0  0  0
   56.3230   46.1129   28.8078 C   0  0  0  0  0  0
   54.9315   45.7676   29.3409 C   0  0  0  0  0  0
   54.8231   44.4771   29.7589 O   0  0  0  0  0  0
   54.0064   46.5749   29.3392 O   0  0  0  0  0  0
   62.5246   48.0764   28.8576 O   0  0  0  0  0  0
   63.3575   48.1172   27.7010 C   0  0  0  0  0  0
   64.2567   47.1419   27.7423 F   0  0  0  0  0  0
   62.7142   48.0767   26.5393 F   0  0  0  0  0  0
   64.0075   49.2752   27.7388 F   0  0  0  0  0  0
   61.6885   46.8381   35.0955 C   0  0  0  0  0  0
   61.3924   48.3317   35.2969 C   0  0  0  0  0  0
   63.4283   44.6594   29.1345 C   0  0  0  0  0  0
   65.8231   47.2743   34.3666 H   0  0  0  0  0  0
   66.0977   46.0770   35.6194 H   0  0  0  0  0  0
   65.9754   43.5380   34.9918 H   0  0  0  0  0  0
   64.2372   43.8361   35.0065 H   0  0  0  0  0  0
   65.0023   43.0607   33.6252 H   0  0  0  0  0  0
   67.5988   45.1736   33.7741 H   0  0  0  0  0  0
   66.8973   44.4782   32.3297 H   0  0  0  0  0  0
   66.9072   46.2271   32.5391 H   0  0  0  0  0  0
   65.1641   44.4296   31.0835 H   0  0  0  0  0  0
   61.3070   47.1325   32.5248 H   0  0  0  0  0  0
   59.7103   45.2772   31.0188 H   0  0  0  0  0  0
   58.4081   46.8766   27.3393 H   0  0  0  0  0  0
   60.4791   48.1281   27.0879 H   0  0  0  0  0  0
   57.3563   45.3747   30.5700 H   0  0  0  0  0  0
   57.5873   44.3616   29.1593 H   0  0  0  0  0  0
   56.3286   45.9266   27.7351 H   0  0  0  0  0  0
   56.4319   47.1896   28.9387 H   0  0  0  0  0  0
   55.6245   43.9833   29.5753 H   0  0  0  0  0  0
   60.9113   46.3947   34.4723 H   0  0  0  0  0  0
   61.5798   46.3190   36.0502 H   0  0  0  0  0  0
   60.3478   48.4783   35.5642 H   0  0  0  0  0  0
   61.9820   48.7794   36.1001 H   0  0  0  0  0  0
   61.6086   48.8767   34.3803 H   0  0  0  0  0  0
   64.4055   44.8712   28.7010 H   0  0  0  0  0  0
   63.3541   43.5748   29.2319 H   0  0  0  0  0  0
   62.6731   44.9885   28.4228 H   0  0  0  0  0  0
  1  5  2  0  0  0
  1  2  1  0  0  0
  1  4  1  0  0  0
  2  3  1  0  0  0
  2 33  1  0  0  0
  2 34  1  0  0  0
  3  9  1  0  0  0
  3  6  1  0  0  0
  3  7  1  0  0  0
  4  8  1  0  0  0
  4 30  1  0  0  0
  6 35  1  0  0  0
  6 36  1  0  0  0
  6 37  1  0  0  0
  7 38  1  0  0  0
  7 39  1  0  0  0
  7 40  1  0  0  0
  8  9  2  0  0  0
  8 13  1  0  0  0
  9 10  1  0  0  0
 10 11  2  0  0  0
 10 41  1  0  0  0
 11 12  1  0  0  0
 11 32  1  0  0  0
 12 14  1  0  0  0
 12 13  2  0  0  0
 13 42  1  0  0  0
 14 19  1  0  0  0
 14 15  2  0  0  0
 15 16  1  0  0  0
 15 43  1  0  0  0
 16 17  2  0  0  0
 16 20  1  0  0  0
 17 18  1  0  0  0
 17 44  1  0  0  0
 18 19  2  0  0  0
 18 45  1  0  0  0
 19 25  1  0  0  0
 20 21  1  0  0  0
 20 46  1  0  0  0
 20 47  1  0  0  0
 21 22  1  0  0  0
 21 48  1  0  0  0
 21 49  1  0  0  0
 22 23  1  0  0  0
 22 24  2  0  0  0
 23 50  1  0  0  0
 25 26  1  0  0  0
 26 27  1  0  0  0
 26 28  1  0  0  0
 26 29  1  0  0  0
 30 31  1  0  0  0
 30 51  1  0  0  0
 30 52  1  0  0  0
 31 53  1  0  0  0
 31 54  1  0  0  0
 31 55  1  0  0  0
 32 56  1  0  0  0
 32 57  1  0  0  0
 32 58  1  0  0  0
M  END
> <s_m_entry_id>
30811

> <s_m_entry_name>
dock_pv.24

> <s_m_Source_Path>
/home/csk/Desktop/cluster/DUD-E-result/rxra

> <s_m_Source_File>
dock_pv.maegz

> <i_m_Source_File_Index>
24

> <chembl_id>
CHEMBL246825

> <chembl_pref_name>
None

> <i_lp_mmshare_version>
53161

> <r_lp_tautomer_probability>
1

> <s_lp_Force_Field>
OPLS_2005

> <r_lp_Energy>
36.961631

> <b_lp_Chiralities_Consistent>
1

> <s_lp_Variant>
CHEMBL2061_lig442-1

> <s_i_glide_gridfile>
glide-grid_1mv9

> <i_i_glide_lignum>
515

> <i_i_glide_rotatable_bonds>
8

> <r_i_docking_score>
-11.7126885420723

> <r_i_glide_ligand_efficiency>
-0.36602151693976

> <r_i_glide_ligand_efficiency_sa>
-1.16204588072389

> <r_i_glide_ligand_efficiency_ln>
-2.62279024040119

> <r_i_glide_gscore>
-11.7126885420723

> <r_i_glide_lipo>
-6.09641796049597

> <r_i_glide_hbond>
-0.0895685787067003

> <r_i_glide_metal>
0

> <r_i_glide_rewards>
-3.04457216590909

> <r_i_glide_evdw>
-49.4775581359863

> <r_i_glide_ecoul>
-3.36185050010681

> <r_i_glide_erotb>
0.496025644854779

> <r_i_glide_esite>
0

> <r_i_glide_emodel>
-81.0899474209518

> <r_i_glide_energy>
-52.8394086360931

> <r_i_glide_einternal>
9.8430871963501

> <i_i_glide_confnum>
267

> <i_i_glide_posenum>
258

> <r_i_glide_eff_state_penalty>
0

> <s_user_duplicate_titles>
CHEMBL2061_lig442,414614

> <i_f3d_flags>
0

> <s_m_subgroup_title>
dock_pv

> <s_m_subgroupid>
dock_pv

> <b_m_subgroup_collapsed>
1

$$$$
CHEMBL2061_lig458
                    3D
 Schrodinger Suite 2021-1.
 62 65  0  0  1  0            999 V2000
   64.1055   46.7513   35.4100 C   0  0  0  0  0  0
   65.4821   46.3446   34.8861 C   0  0  0  0  0  0
   65.4782   45.2206   33.8202 C   0  0  0  0  0  0
   63.0993   46.5750   34.5056 N   0  0  0  0  0  0
   64.0045   47.2192   36.5393 O   0  0  0  0  0  0
   66.9190   45.2125   33.3102 C   0  0  0  0  0  0
   65.0578   43.8452   34.3817 C   0  0  0  0  0  0
   63.3340   46.3332   33.1157 C   0  0  0  0  0  0
   64.4821   45.6151   32.7310 C   0  0  0  0  0  0
   64.6397   45.2387   31.3939 C   0  0  0  0  0  0
   63.6799   45.5333   30.4345 C   0  0  0  0  0  0
   62.5571   46.2946   30.7991 C   0  0  0  0  0  0
   62.4315   46.7262   32.1228 C   0  0  0  0  0  0
   61.4230   46.5380   29.8780 C   0  0  0  0  0  0
   60.1642   46.0780   30.2718 C   0  0  0  0  0  0
   59.0555   46.1917   29.4479 C   0  0  0  0  0  0
   59.2232   46.7764   28.1926 C   0  0  0  0  0  0
   60.4563   47.2963   27.8025 C   0  0  0  0  0  0
   61.5701   47.1970   28.6486 C   0  0  0  0  0  0
   57.7120   45.7122   29.9887 C   0  0  2  0  0  0
   62.8185   47.7075   28.3446 O   0  0  0  0  0  0
   62.9755   48.5620   27.2235 C   0  0  0  0  0  0
   61.7418   46.9438   35.0059 C   0  0  0  0  0  0
   60.5378   46.1168   34.5037 C   0  0  0  0  0  0
   63.8817   44.9287   29.0489 C   0  0  0  0  0  0
   57.2891   44.2874   29.8429 C   0  0  0  0  0  0
   56.5164   45.3813   29.1027 C   0  0  1  0  0  0
   55.1525   45.8327   29.6535 C   0  0  0  0  0  0
   54.9167   45.4460   30.9410 O   0  0  0  0  0  0
   54.3558   46.4775   28.9768 O   0  0  0  0  0  0
   61.4998   48.4561   35.0733 C   0  0  0  0  0  0
   66.0957   46.0771   35.7376 H   0  0  0  0  0  0
   65.8974   47.2657   34.4746 H   0  0  0  0  0  0
   67.6147   44.9620   34.1122 H   0  0  0  0  0  0
   67.2081   46.1875   32.9179 H   0  0  0  0  0  0
   67.0625   44.4770   32.5290 H   0  0  0  0  0  0
   65.8682   43.4166   34.9611 H   0  0  0  0  0  0
   64.1694   43.8948   35.0126 H   0  0  0  0  0  0
   64.8509   43.1322   33.5813 H   0  0  0  0  0  0
   65.4902   44.6462   31.0936 H   0  0  0  0  0  0
   61.5706   47.3215   32.3840 H   0  0  0  0  0  0
   60.0365   45.6769   31.2620 H   0  0  0  0  0  0
   58.4080   46.8669   27.5073 H   0  0  0  0  0  0
   60.5285   47.7717   26.8364 H   0  0  0  0  0  0
   57.5286   46.0772   30.9997 H   0  0  0  0  0  0
   64.0170   48.8778   27.1610 H   0  0  0  0  0  0
   62.7249   48.0670   26.2849 H   0  0  0  0  0  0
   62.3652   49.4583   27.3393 H   0  0  0  0  0  0
   61.7368   46.6836   36.0677 H   0  0  0  0  0  0
   59.6082   46.6816   34.5383 H   0  0  0  0  0  0
   60.6343   45.6770   33.5173 H   0  0  0  0  0  0
   60.4081   45.2772   35.1774 H   0  0  0  0  0  0
   64.7885   45.3346   28.5922 H   0  0  0  0  0  0
   64.0135   43.8494   29.1426 H   0  0  0  0  0  0
   63.0463   45.0697   28.3675 H   0  0  0  0  0  0
   58.0076   43.6571   29.3366 H   0  0  0  0  0  0
   56.8569   43.7620   30.6947 H   0  0  0  0  0  0
   56.6167   45.4910   28.0251 H   0  0  0  0  0  0
   55.6758   44.9766   31.2910 H   0  0  0  0  0  0
   60.4682   48.6855   35.3394 H   0  0  0  0  0  0
   62.1039   48.8770   35.8772 H   0  0  0  0  0  0
   61.7538   48.9529   34.1378 H   0  0  0  0  0  0
  1  5  2  0  0  0
  1  2  1  0  0  0
  1  4  1  0  0  0
  2  3  1  0  0  0
  2 32  1  0  0  0
  2 33  1  0  0  0
  3  7  1  0  0  0
  3  9  1  0  0  0
  3  6  1  0  0  0
  4  8  1  0  0  0
  4 23  1  0  0  0
  6 34  1  0  0  0
  6 35  1  0  0  0
  6 36  1  0  0  0
  7 37  1  0  0  0
  7 38  1  0  0  0
  7 39  1  0  0  0
  8  9  2  0  0  0
  8 13  1  0  0  0
  9 10  1  0  0  0
 10 11  2  0  0  0
 10 40  1  0  0  0
 11 12  1  0  0  0
 11 25  1  0  0  0
 12 14  1  0  0  0
 12 13  2  0  0  0
 13 41  1  0  0  0
 14 19  1  0  0  0
 14 15  2  0  0  0
 15 16  1  0  0  0
 15 42  1  0  0  0
 16 17  2  0  0  0
 16 20  1  0  0  0
 17 18  1  0  0  0
 17 43  1  0  0  0
 18 19  2  0  0  0
 18 44  1  0  0  0
 19 21  1  0  0  0
 20 26  1  0  0  0
 20 27  1  0  0  0
 20 45  1  0  0  0
 21 22  1  0  0  0
 22 46  1  0  0  0
 22 47  1  0  0  0
 22 48  1  0  0  0
 23 24  1  0  0  0
 23 31  1  0  0  0
 23 49  1  0  0  0
 24 50  1  0  0  0
 24 51  1  0  0  0
 24 52  1  0  0  0
 25 53  1  0  0  0
 25 54  1  0  0  0
 25 55  1  0  0  0
 26 27  1  0  0  0
 26 56  1  0  0  0
 26 57  1  0  0  0
 27 28  1  0  0  0
 27 58  1  0  0  0
 28 29  1  0  0  0
 28 30  2  0  0  0
 29 59  1  0  0  0
 31 60  1  0  0  0
 31 61  1  0  0  0
 31 62  1  0  0  0
M  END
> <s_m_entry_id>
30812

> <s_m_entry_name>
dock_pv.25

> <s_m_Source_Path>
/home/csk/Desktop/cluster/DUD-E-result/rxra

> <s_m_Source_File>
dock_pv.maegz

> <i_m_Source_File_Index>
25

> <chembl_id>
CHEMBL246211

> <chembl_pref_name>
None

> <i_lp_mmshare_version>
53161

> <r_lp_tautomer_probability>
1

> <s_lp_Force_Field>
OPLS_2005

> <r_lp_Energy>
47.306835

> <b_lp_Chiralities_Consistent>
1

> <s_lp_Variant>
CHEMBL2061_lig458-1

> <s_i_glide_gridfile>
glide-grid_1mv9

> <i_i_glide_lignum>
537

> <i_i_glide_rotatable_bonds>
6

> <r_i_docking_score>
-11.7059000796232

> <r_i_glide_ligand_efficiency>
-0.377609679987844

> <r_i_glide_ligand_efficiency_sa>
-1.1862157415117

> <r_i_glide_ligand_efficiency_ln>
-2.64003921070909

> <r_i_glide_gscore>
-11.7059000796232

> <r_i_glide_lipo>
-6.63815685777118

> <r_i_glide_hbond>
0

> <r_i_glide_metal>
0

> <r_i_glide_rewards>
-2.40422351055189

> <r_i_glide_evdw>
-52.829174041748

> <r_i_glide_ecoul>
-2.37597465515137

> <r_i_glide_erotb>
0.334335189060011

> <r_i_glide_esite>
0

> <r_i_glide_emodel>
-78.1227402656447

> <r_i_glide_energy>
-55.2051486968994

> <r_i_glide_einternal>
10.5579404830933

> <i_i_glide_confnum>
45

> <i_i_glide_posenum>
361

> <r_i_glide_eff_state_penalty>
0

> <s_user_duplicate_titles>
CHEMBL2061_lig458,414668

> <i_f3d_flags>
0

> <s_m_subgroup_title>
dock_pv

> <s_m_subgroupid>
dock_pv

> <b_m_subgroup_collapsed>
1

$$$$
CHEMBL2061_lig440
                    3D
 Schrodinger Suite 2021-1.
 61 63  0  0  1  0            999 V2000
   63.9455   46.7579   35.4830 C   0  0  0  0  0  0
   64.5635   45.3663   35.3808 C   0  0  0  0  0  0
   65.3060   45.1108   34.0389 C   0  0  0  0  0  0
   63.3300   47.1429   34.3291 N   0  0  0  0  0  0
   63.9825   47.3890   36.5388 O   0  0  0  0  0  0
   65.6245   43.6044   34.0427 C   0  0  0  0  0  0
   66.5681   46.0000   33.9436 C   0  0  0  0  0  0
   63.3612   46.4402   33.0868 C   0  0  0  0  0  0
   64.3557   45.4608   32.8797 C   0  0  0  0  0  0
   64.4335   44.8270   31.6327 C   0  0  0  0  0  0
   63.5399   45.1126   30.6039 C   0  0  0  0  0  0
   62.5464   46.0833   30.8010 C   0  0  0  0  0  0
   62.4705   46.7298   32.0390 C   0  0  0  0  0  0
   61.5576   46.4327   29.7465 C   0  0  0  0  0  0
   60.1998   46.1688   29.9895 C   0  0  0  0  0  0
   59.2263   46.4345   29.0216 C   0  0  0  0  0  0
   59.6359   47.0354   27.8419 C   0  0  0  0  0  0
   60.9645   47.3369   27.5902 C   0  0  0  0  0  0
   61.9576   47.0110   28.5229 C   0  0  0  0  0  0
   57.7304   46.1170   29.1557 C   0  0  0  0  0  0
   57.2235   45.3358   30.4020 C   0  0  1  0  0  0
   55.6817   45.2493   30.4358 C   0  0  0  0  0  0
   55.1594   44.6335   29.3379 O   0  0  0  0  0  0
   55.0007   45.6768   31.3614 O   0  0  0  0  0  0
   63.3167   47.1637   28.2873 O   0  0  0  0  0  0
   63.8569   48.0572   27.3064 C   0  0  0  0  0  0
   63.8721   49.3020   27.7390 F   0  0  0  0  0  0
   65.1099   47.6827   27.0683 F   0  0  0  0  0  0
   63.2532   48.0625   26.1389 F   0  0  0  0  0  0
   62.4790   48.3387   34.4777 C   0  0  0  0  0  0
   61.1495   48.0004   35.1908 C   0  0  0  0  0  0
   63.6260   44.2944   29.3218 C   0  0  0  0  0  0
   57.8294   43.9280   30.5186 C   0  0  0  0  0  0
   65.2085   45.2616   36.2468 H   0  0  0  0  0  0
   63.7439   44.6583   35.5202 H   0  0  0  0  0  0
   66.0080   43.2794   34.9991 H   0  0  0  0  0  0
   64.7536   42.9866   33.8159 H   0  0  0  0  0  0
   66.4080   43.3696   33.3390 H   0  0  0  0  0  0
   67.1999   45.8903   34.8246 H   0  0  0  0  0  0
   67.1784   45.7270   33.0855 H   0  0  0  0  0  0
   66.3223   47.0575   33.8372 H   0  0  0  0  0  0
   65.1921   44.0777   31.4639 H   0  0  0  0  0  0
   61.6874   47.4603   32.1642 H   0  0  0  0  0  0
   59.9191   45.7468   30.9417 H   0  0  0  0  0  0
   58.9031   47.2737   27.0989 H   0  0  0  0  0  0
   61.1668   47.7885   26.6364 H   0  0  0  0  0  0
   57.4475   45.5728   28.2547 H   0  0  0  0  0  0
   57.2059   47.0673   29.0786 H   0  0  0  0  0  0
   57.5177   45.9041   31.2859 H   0  0  0  0  0  0
   55.8312   44.2964   28.7411 H   0  0  0  0  0  0
   63.0341   49.0870   35.0462 H   0  0  0  0  0  0
   62.2913   48.8300   33.5245 H   0  0  0  0  0  0
   60.5315   48.8793   35.3389 H   0  0  0  0  0  0
   60.5666   47.2764   34.6195 H   0  0  0  0  0  0
   61.3137   47.5839   36.1847 H   0  0  0  0  0  0
   64.0166   43.2947   29.5165 H   0  0  0  0  0  0
   62.6438   44.1443   28.8724 H   0  0  0  0  0  0
   64.2721   44.7908   28.5987 H   0  0  0  0  0  0
   57.6079   43.4522   31.4706 H   0  0  0  0  0  0
   57.4576   43.2766   29.7368 H   0  0  0  0  0  0
   58.9067   43.9306   30.4127 H   0  0  0  0  0  0
  1  5  2  0  0  0
  1  2  1  0  0  0
  1  4  1  0  0  0
  2  3  1  0  0  0
  2 34  1  0  0  0
  2 35  1  0  0  0
  3  9  1  0  0  0
  3  6  1  0  0  0
  3  7  1  0  0  0
  4  8  1  0  0  0
  4 30  1  0  0  0
  6 36  1  0  0  0
  6 37  1  0  0  0
  6 38  1  0  0  0
  7 39  1  0  0  0
  7 40  1  0  0  0
  7 41  1  0  0  0
  8  9  2  0  0  0
  8 13  1  0  0  0
  9 10  1  0  0  0
 10 11  2  0  0  0
 10 42  1  0  0  0
 11 12  1  0  0  0
 11 32  1  0  0  0
 12 14  1  0  0  0
 12 13  2  0  0  0
 13 43  1  0  0  0
 14 19  1  0  0  0
 14 15  2  0  0  0
 15 16  1  0  0  0
 15 44  1  0  0  0
 16 17  2  0  0  0
 16 20  1  0  0  0
 17 18  1  0  0  0
 17 45  1  0  0  0
 18 19  2  0  0  0
 18 46  1  0  0  0
 19 25  1  0  0  0
 20 21  1  0  0  0
 20 47  1  0  0  0
 20 48  1  0  0  0
 21 22  1  0  0  0
 21 33  1  0  0  0
 21 49  1  0  0  0
 22 23  1  0  0  0
 22 24  2  0  0  0
 23 50  1  0  0  0
 25 26  1  0  0  0
 26 27  1  0  0  0
 26 28  1  0  0  0
 26 29  1  0  0  0
 30 31  1  0  0  0
 30 51  1  0  0  0
 30 52  1  0  0  0
 31 53  1  0  0  0
 31 54  1  0  0  0
 31 55  1  0  0  0
 32 56  1  0  0  0
 32 57  1  0  0  0
 32 58  1  0  0  0
 33 59  1  0  0  0
 33 60  1  0  0  0
 33 61  1  0  0  0
M  END
> <s_m_entry_id>
30813

> <s_m_entry_name>
dock_pv.26

> <s_m_Source_Path>
/home/csk/Desktop/cluster/DUD-E-result/rxra

> <s_m_Source_File>
dock_pv.maegz

> <i_m_Source_File_Index>
26

> <chembl_id>
CHEMBL246827

> <chembl_pref_name>
None

> <i_lp_mmshare_version>
53161

> <r_lp_tautomer_probability>
1

> <s_lp_Force_Field>
OPLS_2005

> <r_lp_Energy>
39.21653

> <b_lp_Chiralities_Consistent>
1

> <s_lp_Variant>
CHEMBL2061_lig440-2

> <s_i_glide_gridfile>
glide-grid_1mv9

> <i_i_glide_lignum>
513

> <i_i_glide_rotatable_bonds>
8

> <r_i_docking_score>
-11.6893602876734

> <r_i_glide_ligand_efficiency>
-0.354223039020407

> <r_i_glide_ligand_efficiency_sa>
-1.13618255680918

> <r_i_glide_ligand_efficiency_ln>
-2.59965320371019

> <r_i_glide_gscore>
-11.6893602876734

> <r_i_glide_lipo>
-6.25501726913107

> <r_i_glide_hbond>
-0.0333629170749669

> <r_i_glide_metal>
0

> <r_i_glide_rewards>
-2.93176606592403

> <r_i_glide_evdw>
-49.0924415588379

> <r_i_glide_ecoul>
-3.22421860694885

> <r_i_glide_erotb>
0.46904083344087

> <r_i_glide_esite>
0

> <r_i_glide_emodel>
-80.2549343105782

> <r_i_glide_energy>
-52.3166601657867

> <r_i_glide_einternal>
9.53768157958984

> <i_i_glide_confnum>
45

> <i_i_glide_posenum>
196

> <r_i_glide_eff_state_penalty>
0

> <s_user_duplicate_titles>
CHEMBL2061_lig440,414624

> <i_f3d_flags>
0

> <s_m_subgroup_title>
dock_pv

> <s_m_subgroupid>
dock_pv

> <b_m_subgroup_collapsed>
1

$$$$
CHEMBL2061_lig441
                    3D
 Schrodinger Suite 2021-1.
 61 63  0  0  1  0            999 V2000
   64.1001   46.8750   35.3913 C   0  0  0  0  0  0
   65.1591   45.8158   35.0535 C   0  0  0  0  0  0
   65.6197   45.7720   33.5728 C   0  0  0  0  0  0
   63.3180   47.2469   34.3395 N   0  0  0  0  0  0
   64.0079   47.3024   36.5390 O   0  0  0  0  0  0
   66.4064   44.4753   33.4018 C   0  0  0  0  0  0
   66.5324   46.9509   33.2089 C   0  0  0  0  0  0
   63.3042   46.6289   33.0596 C   0  0  0  0  0  0
   64.3970   45.8369   32.6570 C   0  0  0  0  0  0
   64.3476   45.1844   31.4199 C   0  0  0  0  0  0
   63.2692   45.3360   30.5602 C   0  0  0  0  0  0
   62.2366   46.2186   30.9091 C   0  0  0  0  0  0
   62.2549   46.8377   32.1536 C   0  0  0  0  0  0
   61.0977   46.4558   30.0084 C   0  0  0  0  0  0
   59.9076   45.7993   30.2626 C   0  0  0  0  0  0
   58.8818   45.7560   29.3406 C   0  0  0  0  0  0
   59.0320   46.4761   28.1420 C   0  0  0  0  0  0
   60.1706   47.2641   27.9349 C   0  0  0  0  0  0
   61.2147   47.2530   28.8712 C   0  0  0  0  0  0
   57.7092   44.8337   29.6883 C   0  0  0  0  0  0
   56.3846   45.5143   30.0252 C   0  0  0  0  0  0
   55.8574   46.4256   28.8999 C   0  0  0  0  0  0
   62.3126   48.0777   28.7954 O   0  0  0  0  0  0
   63.1782   47.9882   27.6798 C   0  0  0  0  0  0
   62.5215   48.0768   26.5388 F   0  0  0  0  0  0
   64.0076   49.0251   27.7374 F   0  0  0  0  0  0
   63.9042   46.8775   27.7124 F   0  0  0  0  0  0
   62.2493   48.2120   34.6713 C   0  0  0  0  0  0
   60.9521   47.5502   35.1652 C   0  0  0  0  0  0
   63.2579   44.4943   29.2882 C   0  0  0  0  0  0
   54.3674   46.7059   28.9988 C   0  0  0  0  0  0
   53.9826   47.7168   28.1762 O   0  0  0  0  0  0
   53.6080   46.0816   29.7389 O   0  0  0  0  0  0
   66.0081   46.0042   35.7054 H   0  0  0  0  0  0
   64.7280   44.8607   35.3580 H   0  0  0  0  0  0
   67.2077   44.4337   34.1382 H   0  0  0  0  0  0
   65.7888   43.5817   33.5073 H   0  0  0  0  0  0
   66.8786   44.4769   32.4231 H   0  0  0  0  0  0
   67.4795   46.8834   33.7387 H   0  0  0  0  0  0
   66.7792   46.8774   32.1491 H   0  0  0  0  0  0
   66.0811   47.9242   33.4011 H   0  0  0  0  0  0
   65.1572   44.5452   31.1033 H   0  0  0  0  0  0
   61.4189   47.4738   32.3957 H   0  0  0  0  0  0
   59.7829   45.2771   31.1863 H   0  0  0  0  0  0
   58.2699   46.4454   27.3873 H   0  0  0  0  0  0
   60.2306   47.8768   27.0486 H   0  0  0  0  0  0
   57.9756   44.2226   30.5525 H   0  0  0  0  0  0
   57.5644   44.0772   28.9379 H   0  0  0  0  0  0
   56.4887   46.0766   30.9535 H   0  0  0  0  0  0
   55.6738   44.7140   30.2450 H   0  0  0  0  0  0
   56.0283   45.9633   27.9260 H   0  0  0  0  0  0
   56.4049   47.3628   28.9390 H   0  0  0  0  0  0
   62.5939   48.8769   35.4609 H   0  0  0  0  0  0
   62.0602   48.8760   33.8277 H   0  0  0  0  0  0
   60.1940   48.3103   35.3399 H   0  0  0  0  0  0
   60.5435   46.8379   34.4492 H   0  0  0  0  0  0
   61.1131   47.0312   36.1097 H   0  0  0  0  0  0
   64.1891   44.6399   28.7428 H   0  0  0  0  0  0
   63.2064   43.4361   29.5456 H   0  0  0  0  0  0
   62.4364   44.7197   28.6093 H   0  0  0  0  0  0
   54.7305   48.0973   27.7122 H   0  0  0  0  0  0
  1  5  2  0  0  0
  1  2  1  0  0  0
  1  4  1  0  0  0
  2  3  1  0  0  0
  2 34  1  0  0  0
  2 35  1  0  0  0
  3  9  1  0  0  0
  3  6  1  0  0  0
  3  7  1  0  0  0
  4  8  1  0  0  0
  4 28  1  0  0  0
  6 36  1  0  0  0
  6 37  1  0  0  0
  6 38  1  0  0  0
  7 39  1  0  0  0
  7 40  1  0  0  0
  7 41  1  0  0  0
  8  9  2  0  0  0
  8 13  1  0  0  0
  9 10  1  0  0  0
 10 11  2  0  0  0
 10 42  1  0  0  0
 11 12  1  0  0  0
 11 30  1  0  0  0
 12 14  1  0  0  0
 12 13  2  0  0  0
 13 43  1  0  0  0
 14 19  1  0  0  0
 14 15  2  0  0  0
 15 16  1  0  0  0
 15 44  1  0  0  0
 16 17  2  0  0  0
 16 20  1  0  0  0
 17 18  1  0  0  0
 17 45  1  0  0  0
 18 19  2  0  0  0
 18 46  1  0  0  0
 19 23  1  0  0  0
 20 21  1  0  0  0
 20 47  1  0  0  0
 20 48  1  0  0  0
 21 22  1  0  0  0
 21 49  1  0  0  0
 21 50  1  0  0  0
 22 31  1  0  0  0
 22 51  1  0  0  0
 22 52  1  0  0  0
 23 24  1  0  0  0
 24 25  1  0  0  0
 24 26  1  0  0  0
 24 27  1  0  0  0
 28 29  1  0  0  0
 28 53  1  0  0  0
 28 54  1  0  0  0
 29 55  1  0  0  0
 29 56  1  0  0  0
 29 57  1  0  0  0
 30 58  1  0  0  0
 30 59  1  0  0  0
 30 60  1  0  0  0
 31 32  1  0  0  0
 31 33  2  0  0  0
 32 61  1  0  0  0
M  END
> <s_m_entry_id>
30814

> <s_m_entry_name>
dock_pv.27

> <s_m_Source_Path>
/home/csk/Desktop/cluster/DUD-E-result/rxra

> <s_m_Source_File>
dock_pv.maegz

> <i_m_Source_File_Index>
27

> <chembl_id>
CHEMBL247849

> <chembl_pref_name>
None

> <i_lp_mmshare_version>
53161

> <r_lp_tautomer_probability>
1

> <s_lp_Force_Field>
OPLS_2005

> <r_lp_Energy>
34.764351

> <b_lp_Chiralities_Consistent>
1

> <s_lp_Variant>
CHEMBL2061_lig441-1

> <s_i_glide_gridfile>
glide-grid_1mv9

> <i_i_glide_lignum>
514

> <i_i_glide_rotatable_bonds>
9

> <r_i_docking_score>
-11.6771732562081

> <r_i_glide_ligand_efficiency>
-0.35385373503661

> <r_i_glide_ligand_efficiency_sa>
-1.13499800160433

> <r_i_glide_ligand_efficiency_ln>
-2.59694287101338

> <r_i_glide_gscore>
-11.6771732562081

> <r_i_glide_lipo>
-6.20683659528677

> <r_i_glide_hbond>
-0.214424403418737

> <r_i_glide_metal>
0

> <r_i_glide_rewards>
-2.84418268173438

> <r_i_glide_evdw>
-47.5718879699707

> <r_i_glide_ecoul>
-3.96851992607117

> <r_i_glide_erotb>
0.562849000129044

> <r_i_glide_esite>
-0.000706188488082671

> <r_i_glide_emodel>
-76.1514582066799

> <r_i_glide_energy>
-51.5404078960419

> <r_i_glide_einternal>
8.00970935821533

> <i_i_glide_confnum>
208

> <i_i_glide_posenum>
65

> <r_i_glide_eff_state_penalty>
0

> <s_user_duplicate_titles>
CHEMBL2061_lig441,414616

> <i_f3d_flags>
0

> <s_m_subgroup_title>
dock_pv

> <s_m_subgroupid>
dock_pv

> <b_m_subgroup_collapsed>
1

$$$$
CHEMBL2061_lig404
                    3D
 Schrodinger Suite 2021-1.
 62 64  0  0  1  0            999 V2000
   63.1287   46.4935   33.2971 C   0  0  0  0  0  0
   64.3081   45.7678   32.9599 C   0  0  0  0  0  0
   62.2338   46.8033   32.2707 C   0  0  0  0  0  0
   62.4445   46.4106   30.9552 C   0  0  0  0  0  0
   61.4351   46.8160   29.8980 C   0  0  2  0  0  0
   60.8810   45.6808   29.0553 C   0  0  1  0  0  0
   62.8424   47.0513   34.7137 C   0  0  0  0  0  0
   59.3945   45.8929   28.8511 C   0  0  0  0  0  0
   65.3760   45.4017   34.0084 C   0  0  0  0  0  0
   62.4640   47.0361   27.7355 C   0  0  0  0  0  0
   64.4873   45.3559   31.6288 C   0  0  0  0  0  0
   56.1378   44.9779   30.2543 C   0  0  0  0  0  0
   54.7009   45.0113   30.1852 C   0  0  0  0  0  0
   58.4166   45.2718   29.5400 C   0  0  0  0  0  0
   61.9318   47.8460   28.8953 C   0  0  0  0  0  0
   61.6653   45.7302   27.7245 C   0  0  0  0  0  0
   56.9854   45.4379   29.3086 C   0  0  0  0  0  0
   63.5772   45.6734   30.6350 C   0  0  0  0  0  0
   63.7800   46.4001   35.7538 C   0  0  0  0  0  0
   65.2112   46.3248   35.2351 C   0  0  0  0  0  0
   54.0081   44.0769   30.5389 O   0  0  0  0  0  0
   63.4828   47.3971   26.9408 C   0  0  0  0  0  0
   54.1770   46.1863   29.7403 O   0  0  0  0  0  0
   63.1336   48.5686   34.6746 C   0  0  0  0  0  0
   61.3899   46.7404   35.1618 C   0  0  0  0  0  0
   65.1888   43.9157   34.3813 C   0  0  0  0  0  0
   66.8007   45.6722   33.4684 C   0  0  0  0  0  0
   56.4874   46.0741   28.0219 C   0  0  0  0  0  0
   61.3607   47.3939   32.4996 H   0  0  0  0  0  0
   60.6196   47.2770   30.4500 H   0  0  0  0  0  0
   61.0466   44.7212   29.5505 H   0  0  0  0  0  0
   59.1839   46.6204   28.0857 H   0  0  0  0  0  0
   65.3527   44.7784   31.3441 H   0  0  0  0  0  0
   56.5157   44.4986   31.1455 H   0  0  0  0  0  0
   58.7277   44.5891   30.3189 H   0  0  0  0  0  0
   61.1091   48.4759   28.5586 H   0  0  0  0  0  0
   62.6952   48.4772   29.3410 H   0  0  0  0  0  0
   62.3336   44.8720   27.6372 H   0  0  0  0  0  0
   60.9872   45.6817   26.8736 H   0  0  0  0  0  0
   63.7643   45.3516   29.6216 H   0  0  0  0  0  0
   63.4339   45.4031   36.0261 H   0  0  0  0  0  0
   63.7680   46.9694   36.6840 H   0  0  0  0  0  0
   65.8840   46.0769   36.0467 H   0  0  0  0  0  0
   65.5158   47.3258   34.9376 H   0  0  0  0  0  0
   63.8319   46.7709   26.1409 H   0  0  0  0  0  0
   63.9853   48.3433   27.0806 H   0  0  0  0  0  0
   54.8886   46.7892   29.5186 H   0  0  0  0  0  0
   63.2069   48.9980   35.6747 H   0  0  0  0  0  0
   64.0636   48.7989   34.1577 H   0  0  0  0  0  0
   62.3492   49.0978   34.1344 H   0  0  0  0  0  0
   61.2217   47.0465   36.1942 H   0  0  0  0  0  0
   60.6479   47.2718   34.5669 H   0  0  0  0  0  0
   61.1608   45.6769   35.0937 H   0  0  0  0  0  0
   66.0060   43.5840   35.0116 H   0  0  0  0  0  0
   64.2505   43.7094   34.8944 H   0  0  0  0  0  0
   65.2135   43.2761   33.4974 H   0  0  0  0  0  0
   67.5536   45.5622   34.2507 H   0  0  0  0  0  0
   67.0611   44.9609   32.6894 H   0  0  0  0  0  0
   66.8982   46.6771   33.0542 H   0  0  0  0  0  0
   57.3082   46.4765   27.4669 H   0  0  0  0  0  0
   55.9848   45.3194   27.4183 H   0  0  0  0  0  0
   55.7918   46.8921   28.1731 H   0  0  0  0  0  0
  1  2  2  0  0  0
  1  3  1  0  0  0
  1  7  1  0  0  0
  2  9  1  0  0  0
  2 11  1  0  0  0
  3  4  2  0  0  0
  3 29  1  0  0  0
  4  5  1  0  0  0
  4 18  1  0  0  0
  5  6  1  0  0  0
  5 15  1  0  0  0
  5 30  1  0  0  0
  6  8  1  0  0  0
  6 16  1  0  0  0
  6 31  1  0  0  0
  7 19  1  0  0  0
  7 24  1  0  0  0
  7 25  1  0  0  0
  8 14  2  0  0  0
  8 32  1  0  0  0
  9 26  1  0  0  0
  9 27  1  0  0  0
  9 20  1  0  0  0
 10 15  1  0  0  0
 10 22  2  0  0  0
 10 16  1  0  0  0
 11 18  2  0  0  0
 11 33  1  0  0  0
 12 17  2  0  0  0
 12 13  1  0  0  0
 12 34  1  0  0  0
 13 21  2  0  0  0
 13 23  1  0  0  0
 14 17  1  0  0  0
 14 35  1  0  0  0
 15 36  1  0  0  0
 15 37  1  0  0  0
 16 38  1  0  0  0
 16 39  1  0  0  0
 17 28  1  0  0  0
 18 40  1  0  0  0
 19 20  1  0  0  0
 19 41  1  0  0  0
 19 42  1  0  0  0
 20 43  1  0  0  0
 20 44  1  0  0  0
 22 45  1  0  0  0
 22 46  1  0  0  0
 23 47  1  0  0  0
 24 48  1  0  0  0
 24 49  1  0  0  0
 24 50  1  0  0  0
 25 51  1  0  0  0
 25 52  1  0  0  0
 25 53  1  0  0  0
 26 54  1  0  0  0
 26 55  1  0  0  0
 26 56  1  0  0  0
 27 57  1  0  0  0
 27 58  1  0  0  0
 27 59  1  0  0  0
 28 60  1  0  0  0
 28 61  1  0  0  0
 28 62  1  0  0  0
M  END
> <s_m_entry_id>
30815

> <s_m_entry_name>
dock_pv.28

> <s_m_Source_Path>
/home/csk/Desktop/cluster/DUD-E-result/rxra

> <s_m_Source_File>
dock_pv.maegz

> <i_m_Source_File_Index>
28

> <chembl_id>
CHEMBL312233

> <chembl_pref_name>
None

> <i_lp_mmshare_version>
53161

> <r_lp_tautomer_probability>
1

> <s_lp_Force_Field>
OPLS_2005

> <r_lp_Energy>
37.497551

> <b_lp_Chiralities_Consistent>
1

> <s_lp_Variant>
CHEMBL2061_lig404-1

> <s_i_glide_gridfile>
glide-grid_1mv9

> <i_i_glide_lignum>
475

> <i_i_glide_rotatable_bonds>
5

> <r_i_docking_score>
-11.662865909817

> <r_i_glide_ligand_efficiency>
-0.416530925350607

> <r_i_glide_ligand_efficiency_sa>
-1.26483321295992

> <r_i_glide_ligand_efficiency_ln>
-2.69213188860868

> <r_i_glide_gscore>
-11.662865909817

> <r_i_glide_lipo>
-6.93118996983745

> <r_i_glide_hbond>
-0.32

> <r_i_glide_metal>
0

> <r_i_glide_rewards>
-2.2809550641395

> <r_i_glide_evdw>
-37.0321884155273

> <r_i_glide_ecoul>
-5.46728086471558

> <r_i_glide_erotb>
0.540980674643655

> <r_i_glide_esite>
0

> <r_i_glide_emodel>
-53.9551585780461

> <r_i_glide_energy>
-42.4994692802429

> <r_i_glide_einternal>
5.93213844299316

> <i_i_glide_confnum>
195

> <i_i_glide_posenum>
333

> <r_i_glide_eff_state_penalty>
0

> <s_user_duplicate_titles>
CHEMBL2061_lig404,125767

> <i_f3d_flags>
0

> <s_m_subgroup_title>
dock_pv

> <s_m_subgroupid>
dock_pv

> <b_m_subgroup_collapsed>
1

$$$$
CHEMBL2061_lig510
                    3D
 Schrodinger Suite 2021-1.
 62 66  0  0  1  0            999 V2000
   65.0076   45.9414   34.9624 C   0  0  0  0  0  0
   63.5967   46.1964   35.4852 C   0  0  0  0  0  0
   62.7366   47.0155   34.4882 C   0  0  0  0  0  0
   65.0171   45.0861   33.6756 C   0  0  0  0  0  0
   63.9320   45.5535   32.6823 C   0  0  0  0  0  0
   62.9000   46.4740   33.0381 C   0  0  0  0  0  0
   62.0010   46.8808   32.0279 C   0  0  0  0  0  0
   63.9248   44.9921   31.3924 C   0  0  0  0  0  0
   66.4080   45.2793   33.0430 C   0  0  0  0  0  0
   64.7417   43.6160   34.0524 C   0  0  0  0  0  0
   61.2732   46.8644   34.9732 C   0  0  0  0  0  0
   63.2116   48.4784   34.5387 C   0  0  0  0  0  0
   62.9633   45.3621   30.4720 C   0  0  0  0  0  0
   62.0113   46.3120   30.7484 C   0  0  0  0  0  0
   62.8346   44.7878   29.2417 O   0  0  0  0  0  0
   59.6401   46.0711   29.7130 C   0  0  0  0  0  0
   58.7374   46.0762   28.6378 C   0  0  0  0  0  0
   57.4034   45.6785   28.8074 C   0  0  0  0  0  0
   56.9331   45.2744   30.0630 C   0  0  0  0  0  0
   57.8214   45.2783   31.1366 C   0  0  0  0  0  0
   59.1409   45.6770   30.9563 C   0  0  0  0  0  0
   55.4853   44.9203   30.2983 C   0  0  0  0  0  0
   54.9074   44.1500   29.3388 O   0  0  0  0  0  0
   54.8745   45.2779   31.3024 O   0  0  0  0  0  0
   61.8911   45.5641   28.5106 C   0  0  1  0  0  0
   61.1302   46.5076   29.5177 C   0  0  2  0  0  0
   61.1374   48.0091   29.0973 C   0  0  0  0  0  0
   62.2387   48.4762   28.1362 C   0  0  0  0  0  0
   62.3182   47.5634   26.9401 C   0  0  0  0  0  0
   62.7762   46.1863   27.3997 C   0  0  0  0  0  0
   61.2155   44.8597   28.0385 H   0  0  0  0  0  0
   65.6049   45.4651   35.7396 H   0  0  0  0  0  0
   65.4989   46.8973   34.7838 H   0  0  0  0  0  0
   63.6587   46.7064   36.4489 H   0  0  0  0  0  0
   63.1235   45.2397   35.7027 H   0  0  0  0  0  0
   61.2435   47.6107   32.2669 H   0  0  0  0  0  0
   64.6513   44.2427   31.1175 H   0  0  0  0  0  0
   67.2012   45.0932   33.7673 H   0  0  0  0  0  0
   66.5813   44.5850   32.2206 H   0  0  0  0  0  0
   66.5457   46.2912   32.6600 H   0  0  0  0  0  0
   65.4481   43.2779   34.8075 H   0  0  0  0  0  0
   63.7368   43.4619   34.4458 H   0  0  0  0  0  0
   64.8516   42.9493   33.1948 H   0  0  0  0  0  0
   61.1968   46.9999   36.0541 H   0  0  0  0  0  0
   60.6183   47.6151   34.5387 H   0  0  0  0  0  0
   60.8627   45.8816   34.7378 H   0  0  0  0  0  0
   63.1830   48.8763   35.5532 H   0  0  0  0  0  0
   64.2292   48.5877   34.1694 H   0  0  0  0  0  0
   62.5835   49.1184   33.9178 H   0  0  0  0  0  0
   59.0744   46.3848   27.6595 H   0  0  0  0  0  0
   56.7412   45.7152   27.9541 H   0  0  0  0  0  0
   57.5035   45.0067   32.1317 H   0  0  0  0  0  0
   59.7636   45.6781   31.8345 H   0  0  0  0  0  0
   55.5263   43.8589   28.6616 H   0  0  0  0  0  0
   61.2035   48.6083   30.0017 H   0  0  0  0  0  0
   60.1885   48.2890   28.6375 H   0  0  0  0  0  0
   63.2062   48.5124   28.6371 H   0  0  0  0  0  0
   62.0228   49.4819   27.7664 H   0  0  0  0  0  0
   63.0089   47.9660   26.1977 H   0  0  0  0  0  0
   61.3355   47.5048   26.4694 H   0  0  0  0  0  0
   62.8038   45.5166   26.5400 H   0  0  0  0  0  0
   63.8093   46.2833   27.7417 H   0  0  0  0  0  0
  1  2  1  0  0  0
  1  4  1  0  0  0
  1 32  1  0  0  0
  1 33  1  0  0  0
  2  3  1  0  0  0
  2 34  1  0  0  0
  2 35  1  0  0  0
  3  6  1  0  0  0
  3 11  1  0  0  0
  3 12  1  0  0  0
  4  5  1  0  0  0
  4  9  1  0  0  0
  4 10  1  0  0  0
  5  6  2  0  0  0
  5  8  1  0  0  0
  6  7  1  0  0  0
  7 14  2  0  0  0
  7 36  1  0  0  0
  8 13  2  0  0  0
  8 37  1  0  0  0
  9 38  1  0  0  0
  9 39  1  0  0  0
  9 40  1  0  0  0
 10 41  1  0  0  0
 10 42  1  0  0  0
 10 43  1  0  0  0
 11 44  1  0  0  0
 11 45  1  0  0  0
 11 46  1  0  0  0
 12 47  1  0  0  0
 12 48  1  0  0  0
 12 49  1  0  0  0
 13 14  1  0  0  0
 13 15  1  0  0  0
 14 26  1  0  0  0
 15 25  1  0  0  0
 16 26  1  0  0  0
 16 17  2  0  0  0
 16 21  1  0  0  0
 17 18  1  0  0  0
 17 50  1  0  0  0
 18 19  2  0  0  0
 18 51  1  0  0  0
 19 20  1  0  0  0
 19 22  1  0  0  0
 20 21  2  0  0  0
 20 52  1  0  0  0
 21 53  1  0  0  0
 22 23  1  0  0  0
 22 24  2  0  0  0
 23 54  1  0  0  0
 25 26  1  0  0  0
 25 30  1  0  0  0
 25 31  1  0  0  0
 26 27  1  0  0  0
 27 28  1  0  0  0
 27 55  1  0  0  0
 27 56  1  0  0  0
 28 29  1  0  0  0
 28 57  1  0  0  0
 28 58  1  0  0  0
 29 30  1  0  0  0
 29 59  1  0  0  0
 29 60  1  0  0  0
 30 61  1  0  0  0
 30 62  1  0  0  0
M  END
> <s_m_entry_id>
30816

> <s_m_entry_name>
dock_pv.29

> <s_m_Source_Path>
/home/csk/Desktop/cluster/DUD-E-result/rxra

> <s_m_Source_File>
dock_pv.maegz

> <i_m_Source_File_Index>
29

> <chembl_id>
CHEMBL3780763

> <chembl_pref_name>
None

> <i_lp_mmshare_version>
53161

> <r_lp_tautomer_probability>
1

> <s_lp_Force_Field>
OPLS_2005

> <r_lp_Energy>
49.695788

> <b_lp_Chiralities_Consistent>
1

> <s_lp_Variant>
CHEMBL2061_lig510-1

> <s_i_glide_gridfile>
glide-grid_1mv9

> <i_i_glide_lignum>
603

> <i_i_glide_rotatable_bonds>
3

> <r_i_docking_score>
-11.6469453801994

> <r_i_glide_ligand_efficiency>
-0.388231512673312

> <r_i_glide_ligand_efficiency_sa>
-1.2063255746465

> <r_i_glide_ligand_efficiency_ln>
-2.64631289401539

> <r_i_glide_gscore>
-11.6469453801994

> <r_i_glide_lipo>
-7.11763289080096

> <r_i_glide_hbond>
-0.00768454675013568

> <r_i_glide_metal>
0

> <r_i_glide_rewards>
-1.9337359594732

> <r_i_glide_evdw>
-47.229175567627

> <r_i_glide_ecoul>
-3.11001706123352

> <r_i_glide_erotb>
0.240069354391321

> <r_i_glide_esite>
0

> <r_i_glide_emodel>
-108.771149890167

> <r_i_glide_energy>
-50.3391926288605

> <r_i_glide_einternal>
4.26763010025024

> <i_i_glide_confnum>
3

> <i_i_glide_posenum>
179

> <r_i_glide_eff_state_penalty>
0

> <s_user_duplicate_titles>
CHEMBL2061_lig510,CHEMBL2061_lig515

> <i_f3d_flags>
0

> <s_m_subgroup_title>
dock_pv

> <s_m_subgroupid>
dock_pv

> <b_m_subgroup_collapsed>
1

$$$$
CHEMBL2061_lig248
                    3D
 Schrodinger Suite 2021-1.
 57 60  0  0  1  0            999 V2000
   63.8023   45.8021   32.8135 C   0  0  0  0  0  0
   62.9893   46.6733   33.5832 C   0  0  0  0  0  0
   63.5879   45.7563   31.4266 C   0  0  0  0  0  0
   62.6865   46.6066   30.7830 C   0  0  0  0  0  0
   62.5668   46.6667   29.3121 C   0  0  0  0  0  0
   61.3359   46.7798   28.5969 C   0  0  0  0  0  0
   64.9118   44.9310   33.4405 C   0  0  0  0  0  0
   62.9515   46.6669   35.1212 C   0  0  0  0  0  0
   55.9564   45.2646   30.4611 C   0  0  0  0  0  0
   62.1548   47.5707   32.9121 C   0  0  0  0  0  0
   59.9585   46.3302   29.0932 C   0  0  0  0  0  0
   57.3502   45.5475   29.9758 C   0  0  0  0  0  0
   62.0075   47.5497   31.5406 C   0  0  0  0  0  0
   65.0993   45.2773   34.9381 C   0  0  0  0  0  0
   63.7755   45.4755   35.6849 C   0  0  0  0  0  0
   55.0727   44.8051   29.7398 O   0  0  0  0  0  0
   58.8084   46.4771   28.3008 C   0  0  0  0  0  0
   59.7469   45.6770   30.3146 C   0  0  0  0  0  0
   58.4735   45.3117   30.7701 C   0  0  0  0  0  0
   57.5392   46.0769   28.7082 C   0  0  0  0  0  0
   55.7371   45.6766   31.7389 O   0  0  0  0  0  0
   63.7904   46.8397   28.6490 C   0  0  0  0  0  0
   61.4461   47.3611   27.3211 C   0  0  0  0  0  0
   64.5353   43.4348   33.3167 C   0  0  0  0  0  0
   66.2582   45.2703   32.7582 C   0  0  0  0  0  0
   63.5789   47.9800   35.6484 C   0  0  0  0  0  0
   61.4603   46.4752   35.5194 C   0  0  0  0  0  0
   62.6721   47.6773   26.7455 C   0  0  0  0  0  0
   63.8531   47.3575   27.3734 C   0  0  0  0  0  0
   64.1672   45.0688   30.8274 H   0  0  0  0  0  0
   61.6082   48.3043   33.4783 H   0  0  0  0  0  0
   61.3598   48.2710   31.0641 H   0  0  0  0  0  0
   65.6941   46.1845   35.0528 H   0  0  0  0  0  0
   65.6880   44.4925   35.4075 H   0  0  0  0  0  0
   63.9768   45.6139   36.7487 H   0  0  0  0  0  0
   63.2081   44.5494   35.6296 H   0  0  0  0  0  0
   58.8465   46.9262   27.3346 H   0  0  0  0  0  0
   60.5799   45.4258   30.9394 H   0  0  0  0  0  0
   58.3905   44.8468   31.7425 H   0  0  0  0  0  0
   56.6973   46.2357   28.0484 H   0  0  0  0  0  0
   56.5151   46.1196   32.0859 H   0  0  0  0  0  0
   64.7275   46.6956   29.1696 H   0  0  0  0  0  0
   60.5935   47.5763   26.7024 H   0  0  0  0  0  0
   65.3143   42.7991   33.7378 H   0  0  0  0  0  0
   63.6082   43.1953   33.8338 H   0  0  0  0  0  0
   64.4130   43.1341   32.2757 H   0  0  0  0  0  0
   67.0900   44.7851   33.2695 H   0  0  0  0  0  0
   66.2905   44.9378   31.7210 H   0  0  0  0  0  0
   66.4578   46.3435   32.7605 H   0  0  0  0  0  0
   63.6884   47.9606   36.7313 H   0  0  0  0  0  0
   64.5665   48.1514   35.2223 H   0  0  0  0  0  0
   62.9767   48.8555   35.4027 H   0  0  0  0  0  0
   61.3120   46.1487   36.5388 H   0  0  0  0  0  0
   60.8857   47.3949   35.4063 H   0  0  0  0  0  0
   60.9746   45.7163   34.9019 H   0  0  0  0  0  0
   62.7074   48.0849   25.7492 H   0  0  0  0  0  0
   64.8044   47.5492   26.8985 H   0  0  0  0  0  0
  1  2  2  0  0  0
  1  3  1  0  0  0
  1  7  1  0  0  0
  2  8  1  0  0  0
  2 10  1  0  0  0
  3  4  2  0  0  0
  3 30  1  0  0  0
  4  5  1  0  0  0
  4 13  1  0  0  0
  5  6  2  0  0  0
  5 22  1  0  0  0
  6 11  1  0  0  0
  6 23  1  0  0  0
  7 14  1  0  0  0
  7 24  1  0  0  0
  7 25  1  0  0  0
  8 26  1  0  0  0
  8 27  1  0  0  0
  8 15  1  0  0  0
  9 12  1  0  0  0
  9 16  2  0  0  0
  9 21  1  0  0  0
 10 13  2  0  0  0
 10 31  1  0  0  0
 11 17  2  0  0  0
 11 18  1  0  0  0
 12 19  1  0  0  0
 12 20  2  0  0  0
 13 32  1  0  0  0
 14 15  1  0  0  0
 14 33  1  0  0  0
 14 34  1  0  0  0
 15 35  1  0  0  0
 15 36  1  0  0  0
 17 20  1  0  0  0
 17 37  1  0  0  0
 18 19  2  0  0  0
 18 38  1  0  0  0
 19 39  1  0  0  0
 20 40  1  0  0  0
 21 41  1  0  0  0
 22 29  2  0  0  0
 22 42  1  0  0  0
 23 28  2  0  0  0
 23 43  1  0  0  0
 24 44  1  0  0  0
 24 45  1  0  0  0
 24 46  1  0  0  0
 25 47  1  0  0  0
 25 48  1  0  0  0
 25 49  1  0  0  0
 26 50  1  0  0  0
 26 51  1  0  0  0
 26 52  1  0  0  0
 27 53  1  0  0  0
 27 54  1  0  0  0
 27 55  1  0  0  0
 28 29  1  0  0  0
 28 56  1  0  0  0
 29 57  1  0  0  0
M  END
> <s_m_entry_id>
30818

> <s_m_entry_name>
dock_pv.31

> <s_m_Source_Path>
/home/csk/Desktop/cluster/DUD-E-result/rxra

> <s_m_Source_File>
dock_pv.maegz

> <i_m_Source_File_Index>
31

> <chembl_id>
CHEMBL89253

> <chembl_pref_name>
None

> <i_lp_mmshare_version>
53161

> <r_lp_tautomer_probability>
1

> <s_lp_Force_Field>
OPLS_2005

> <r_lp_Energy>
34.646812

> <b_lp_Chiralities_Consistent>
1

> <s_lp_Variant>
CHEMBL2061_lig248-1

> <s_i_glide_gridfile>
glide-grid_1mv9

> <i_i_glide_lignum>
290

> <i_i_glide_rotatable_bonds>
4

> <r_i_docking_score>
-11.6388010221867

> <r_i_glide_ligand_efficiency>
-0.401337966282301

> <r_i_glide_ligand_efficiency_sa>
-1.23303738521165

> <r_i_glide_ligand_efficiency_ln>
-2.66499029955174

> <r_i_glide_gscore>
-11.6388010221867

> <r_i_glide_lipo>
-7.29675470591174

> <r_i_glide_hbond>
0

> <r_i_glide_metal>
0

> <r_i_glide_rewards>
-2.13188033323886

> <r_i_glide_evdw>
-47.8232269287109

> <r_i_glide_ecoul>
-1.42354536056519

> <r_i_glide_erotb>
0.39452716748419

> <r_i_glide_esite>
0

> <r_i_glide_emodel>
-45.9699686937661

> <r_i_glide_energy>
-49.2467722892761

> <r_i_glide_einternal>
9.78429985046387

> <i_i_glide_confnum>
48

> <i_i_glide_posenum>
98

> <r_i_glide_eff_state_penalty>
0

> <s_user_duplicate_titles>
CHEMBL2061_lig248

> <i_f3d_flags>
0

> <s_m_subgroup_title>
dock_pv

> <s_m_subgroupid>
dock_pv

> <b_m_subgroup_collapsed>
1

$$$$
CHEMBL2061_lig408
                    3D
 Schrodinger Suite 2021-1.
 64 66  0  0  1  0            999 V2000
   63.2086   46.4509   33.0119 C   0  0  0  0  0  0
   64.4347   45.7514   32.8290 C   0  0  0  0  0  0
   62.5147   46.8764   31.8682 C   0  0  0  0  0  0
   62.9884   46.6447   30.5808 C   0  0  0  0  0  0
   62.6584   46.8243   34.4086 C   0  0  0  0  0  0
   61.2923   46.1026   28.6510 C   0  0  2  0  0  0
   60.0525   45.7524   29.4903 C   0  0  0  0  0  0
   65.2477   45.1844   34.0097 C   0  0  0  0  0  0
   62.1939   47.1431   29.3729 C   0  0  2  0  0  0
   64.8898   45.5153   31.5236 C   0  0  0  0  0  0
   56.3652   45.7096   29.4088 C   0  0  0  0  0  0
   55.0758   45.4719   30.0216 C   0  0  0  0  0  0
   58.7551   45.8946   29.1355 C   0  0  0  0  0  0
   57.5964   45.6040   29.9828 C   0  0  0  0  0  0
   64.1868   45.9576   30.4177 C   0  0  0  0  0  0
   63.3571   46.0209   35.5307 C   0  0  0  0  0  0
   64.8513   45.8814   35.3257 C   0  0  0  0  0  0
   54.0498   46.0782   29.7218 O   0  0  0  0  0  0
   55.0864   44.4740   30.9389 O   0  0  0  0  0  0
   60.9675   46.8786   27.3571 C   0  0  0  0  0  0
   63.0231   47.8178   28.2602 C   0  0  0  0  0  0
   62.9478   48.3234   34.6396 C   0  0  0  0  0  0
   61.1520   46.4816   34.5124 C   0  0  0  0  0  0
   62.0800   44.8001   28.3356 C   0  0  0  0  0  0
   64.9324   43.6836   34.1159 C   0  0  0  0  0  0
   66.7630   45.4531   33.8233 C   0  0  0  0  0  0
   62.2793   47.5621   26.9655 C   0  0  0  0  0  0
   57.8114   45.2767   31.4622 C   0  0  0  0  0  0
   61.5936   47.4287   31.9834 H   0  0  0  0  0  0
   60.2899   45.3566   30.4664 H   0  0  0  0  0  0
   61.5223   47.9252   29.7404 H   0  0  0  0  0  0
   65.8014   44.9668   31.3501 H   0  0  0  0  0  0
   56.2748   46.0096   28.3743 H   0  0  0  0  0  0
   58.5494   46.2610   28.1395 H   0  0  0  0  0  0
   64.5910   45.7427   29.4399 H   0  0  0  0  0  0
   62.9286   45.0271   35.6482 H   0  0  0  0  0  0
   63.2075   46.5137   36.4902 H   0  0  0  0  0  0
   65.2646   45.3581   36.1840 H   0  0  0  0  0  0
   65.2752   46.8772   35.3384 H   0  0  0  0  0  0
   55.9642   44.0927   30.9941 H   0  0  0  0  0  0
   60.5641   46.2400   26.5709 H   0  0  0  0  0  0
   60.2248   47.6583   27.5423 H   0  0  0  0  0  0
   63.1826   48.8755   28.4536 H   0  0  0  0  0  0
   64.0126   47.3749   28.1514 H   0  0  0  0  0  0
   62.6408   48.6414   35.6360 H   0  0  0  0  0  0
   64.0052   48.5655   34.5319 H   0  0  0  0  0  0
   62.4085   48.9411   33.9202 H   0  0  0  0  0  0
   60.8075   46.5419   35.5446 H   0  0  0  0  0  0
   60.5377   47.1746   33.9431 H   0  0  0  0  0  0
   60.9298   45.4809   34.1419 H   0  0  0  0  0  0
   63.0716   45.0124   27.9375 H   0  0  0  0  0  0
   62.2157   44.1778   29.2220 H   0  0  0  0  0  0
   61.6096   44.1853   27.5743 H   0  0  0  0  0  0
   65.5012   43.2770   34.9390 H   0  0  0  0  0  0
   63.8754   43.4753   34.2886 H   0  0  0  0  0  0
   65.2248   43.1386   33.2167 H   0  0  0  0  0  0
   67.3294   45.2142   34.7235 H   0  0  0  0  0  0
   67.1925   44.8452   33.0300 H   0  0  0  0  0  0
   66.9625   46.4970   33.5850 H   0  0  0  0  0  0
   62.1224   48.4754   26.4078 H   0  0  0  0  0  0
   62.8881   46.9021   26.3493 H   0  0  0  0  0  0
   58.6512   45.8463   31.8583 H   0  0  0  0  0  0
   56.9807   45.6058   32.0897 H   0  0  0  0  0  0
   58.0109   44.2144   31.6125 H   0  0  0  0  0  0
  1  2  2  0  0  0
  1  3  1  0  0  0
  1  5  1  0  0  0
  2  8  1  0  0  0
  2 10  1  0  0  0
  3  4  2  0  0  0
  3 29  1  0  0  0
  4  9  1  0  0  0
  4 15  1  0  0  0
  5 16  1  0  0  0
  5 22  1  0  0  0
  5 23  1  0  0  0
  6  9  1  0  0  0
  6  7  1  0  0  0
  6 20  1  0  0  0
  6 24  1  0  0  0
  7 13  2  0  0  0
  7 30  1  0  0  0
  8 25  1  0  0  0
  8 26  1  0  0  0
  8 17  1  0  0  0
  9 21  1  0  0  0
  9 31  1  0  0  0
 10 15  2  0  0  0
 10 32  1  0  0  0
 11 14  2  0  0  0
 11 12  1  0  0  0
 11 33  1  0  0  0
 12 18  2  0  0  0
 12 19  1  0  0  0
 13 14  1  0  0  0
 13 34  1  0  0  0
 14 28  1  0  0  0
 15 35  1  0  0  0
 16 17  1  0  0  0
 16 36  1  0  0  0
 16 37  1  0  0  0
 17 38  1  0  0  0
 17 39  1  0  0  0
 19 40  1  0  0  0
 20 27  1  0  0  0
 20 41  1  0  0  0
 20 42  1  0  0  0
 21 27  1  0  0  0
 21 43  1  0  0  0
 21 44  1  0  0  0
 22 45  1  0  0  0
 22 46  1  0  0  0
 22 47  1  0  0  0
 23 48  1  0  0  0
 23 49  1  0  0  0
 23 50  1  0  0  0
 24 51  1  0  0  0
 24 52  1  0  0  0
 24 53  1  0  0  0
 25 54  1  0  0  0
 25 55  1  0  0  0
 25 56  1  0  0  0
 26 57  1  0  0  0
 26 58  1  0  0  0
 26 59  1  0  0  0
 27 60  1  0  0  0
 27 61  1  0  0  0
 28 62  1  0  0  0
 28 63  1  0  0  0
 28 64  1  0  0  0
M  END
> <s_m_entry_id>
30819

> <s_m_entry_name>
dock_pv.32

> <s_m_Source_Path>
/home/csk/Desktop/cluster/DUD-E-result/rxra

> <s_m_Source_File>
dock_pv.maegz

> <i_m_Source_File_Index>
32

> <chembl_id>
CHEMBL312395

> <chembl_pref_name>
None

> <i_lp_mmshare_version>
53161

> <r_lp_tautomer_probability>
1

> <s_lp_Force_Field>
OPLS_2005

> <r_lp_Energy>
45.642357

> <b_lp_Chiralities_Consistent>
1

> <s_lp_Variant>
CHEMBL2061_lig408-1

> <s_i_glide_gridfile>
glide-grid_1mv9

> <i_i_glide_lignum>
479

> <i_i_glide_rotatable_bonds>
5

> <r_i_docking_score>
-11.6372390489543

> <r_i_glide_ligand_efficiency>
-0.415615680319797

> <r_i_glide_ligand_efficiency_sa>
-1.26205398999589

> <r_i_glide_ligand_efficiency_ln>
-2.68621645668424

> <r_i_glide_gscore>
-11.6372390489543

> <r_i_glide_lipo>
-7.12719485190244

> <r_i_glide_hbond>
-0.129246855960228

> <r_i_glide_metal>
0

> <r_i_glide_rewards>
-1.91617823531354

> <r_i_glide_evdw>
-50.3615303039551

> <r_i_glide_ecoul>
-3.21600222587585

> <r_i_glide_erotb>
0.535857743301027

> <r_i_glide_esite>
0

> <r_i_glide_emodel>
-90.0208691745092

> <r_i_glide_energy>
-53.5775325298309

> <r_i_glide_einternal>
1.85194253921509

> <i_i_glide_confnum>
99

> <i_i_glide_posenum>
128

> <r_i_glide_eff_state_penalty>
0

> <s_user_duplicate_titles>
CHEMBL2061_lig408,125221

> <i_f3d_flags>
0

> <s_m_subgroup_title>
dock_pv

> <s_m_subgroupid>
dock_pv

> <b_m_subgroup_collapsed>
1

$$$$
CHEMBL2061_lig145
                    3D
 Schrodinger Suite 2021-1.
 64 67  0  0  1  0            999 V2000
   61.9776   46.5178   30.5960 C   0  0  0  0  0  0
   60.9145   46.7638   29.5704 C   0  0  0  0  0  0
   61.2903   47.4519   28.4750 C   0  0  0  0  0  0
   62.7620   46.6269   32.9310 C   0  0  0  0  0  0
   64.0117   46.0836   32.5434 C   0  0  0  0  0  0
   61.8164   46.9081   31.9280 C   0  0  0  0  0  0
   63.2019   45.9343   30.2422 C   0  0  0  0  0  0
   64.2203   45.8368   31.1813 C   0  0  0  0  0  0
   56.8708   45.3765   30.0701 C   0  0  0  0  0  0
   58.6480   46.2992   28.6906 N   0  0  0  0  0  0
   60.9566   48.0753   27.1633 C   0  0  0  0  0  0
   62.3851   48.1199   27.7035 C   0  0  0  0  0  0
   55.4192   45.0543   30.2804 C   0  0  0  0  0  0
   65.1016   45.6752   33.5664 C   0  0  0  0  0  0
   62.4476   46.9728   34.4023 C   0  0  0  0  0  0
   59.5198   46.2178   29.7390 C   0  0  0  0  0  0
   57.3599   45.8893   28.8618 C   0  0  0  0  0  0
   57.7683   45.2764   31.1291 C   0  0  0  0  0  0
   54.8363   45.2770   31.3389 O   0  0  0  0  0  0
   64.8488   46.3125   34.9470 C   0  0  0  0  0  0
   63.3909   46.2244   35.3736 C   0  0  0  0  0  0
   59.0853   45.6770   30.9553 C   0  0  0  0  0  0
   54.8080   44.4770   29.2181 O   0  0  0  0  0  0
   63.4219   45.3683   29.0065 O   0  0  0  0  0  0
   66.4728   46.2014   33.1146 C   0  0  0  0  0  0
   65.0782   44.1369   33.7330 C   0  0  0  0  0  0
   61.0096   46.5444   34.7768 C   0  0  0  0  0  0
   62.6855   48.4770   34.5719 C   0  0  0  0  0  0
   62.5979   44.2292   28.7294 C   0  0  0  0  0  0
   63.2193   42.8864   29.1525 C   0  0  0  0  0  0
   64.1077   42.8770   30.4087 C   0  0  0  0  0  0
   60.9061   47.4172   32.2011 H   0  0  0  0  0  0
   65.1588   45.4241   30.8516 H   0  0  0  0  0  0
   60.7235   47.4183   26.3287 H   0  0  0  0  0  0
   60.4080   49.0136   27.1575 H   0  0  0  0  0  0
   62.7802   49.0584   28.0827 H   0  0  0  0  0  0
   63.1447   47.4842   27.2475 H   0  0  0  0  0  0
   56.7148   46.0283   28.0060 H   0  0  0  0  0  0
   57.4564   44.9343   32.1036 H   0  0  0  0  0  0
   65.1558   47.3577   34.9390 H   0  0  0  0  0  0
   65.4799   45.8468   35.7062 H   0  0  0  0  0  0
   63.2995   46.6367   36.3779 H   0  0  0  0  0  0
   63.1111   45.1761   35.4643 H   0  0  0  0  0  0
   59.7129   45.6770   31.8260 H   0  0  0  0  0  0
   55.4125   44.1773   28.5335 H   0  0  0  0  0  0
   67.2394   46.0026   33.8644 H   0  0  0  0  0  0
   66.8080   45.7191   32.1987 H   0  0  0  0  0  0
   66.4599   47.2778   32.9389 H   0  0  0  0  0  0
   65.7632   43.8025   34.5133 H   0  0  0  0  0  0
   64.0858   43.7565   33.9771 H   0  0  0  0  0  0
   65.3888   43.6466   32.8152 H   0  0  0  0  0  0
   60.8436   46.5905   35.8538 H   0  0  0  0  0  0
   60.7884   45.5281   34.4531 H   0  0  0  0  0  0
   60.2596   47.1929   34.3301 H   0  0  0  0  0  0
   62.5358   48.7894   35.6062 H   0  0  0  0  0  0
   63.6866   48.7891   34.2787 H   0  0  0  0  0  0
   62.0075   49.0545   33.9464 H   0  0  0  0  0  0
   61.6086   44.2944   29.1827 H   0  0  0  0  0  0
   62.4078   44.2130   27.6559 H   0  0  0  0  0  0
   62.4080   42.1860   29.3390 H   0  0  0  0  0  0
   63.7895   42.4770   28.3182 H   0  0  0  0  0  0
   64.3669   41.8667   30.7179 H   0  0  0  0  0  0
   65.0506   43.3864   30.2208 H   0  0  0  0  0  0
   63.6080   43.3252   31.2636 H   0  0  0  0  0  0
  1  2  1  0  0  0
  1  6  2  0  0  0
  1  7  1  0  0  0
  2  3  2  0  0  0
  2 16  1  0  0  0
  3 11  1  0  0  0
  3 12  1  0  0  0
  4  6  1  0  0  0
  4 15  1  0  0  0
  4  5  2  0  0  0
  5  8  1  0  0  0
  5 14  1  0  0  0
  6 32  1  0  0  0
  7  8  2  0  0  0
  7 24  1  0  0  0
  8 33  1  0  0  0
  9 18  2  0  0  0
  9 13  1  0  0  0
  9 17  1  0  0  0
 10 16  1  0  0  0
 10 17  2  0  0  0
 11 12  1  0  0  0
 11 34  1  0  0  0
 11 35  1  0  0  0
 12 36  1  0  0  0
 12 37  1  0  0  0
 13 19  2  0  0  0
 13 23  1  0  0  0
 14 20  1  0  0  0
 14 25  1  0  0  0
 14 26  1  0  0  0
 15 21  1  0  0  0
 15 27  1  0  0  0
 15 28  1  0  0  0
 16 22  2  0  0  0
 17 38  1  0  0  0
 18 22  1  0  0  0
 18 39  1  0  0  0
 20 21  1  0  0  0
 20 40  1  0  0  0
 20 41  1  0  0  0
 21 42  1  0  0  0
 21 43  1  0  0  0
 22 44  1  0  0  0
 23 45  1  0  0  0
 24 29  1  0  0  0
 25 46  1  0  0  0
 25 47  1  0  0  0
 25 48  1  0  0  0
 26 49  1  0  0  0
 26 50  1  0  0  0
 26 51  1  0  0  0
 27 52  1  0  0  0
 27 53  1  0  0  0
 27 54  1  0  0  0
 28 55  1  0  0  0
 28 56  1  0  0  0
 28 57  1  0  0  0
 29 30  1  0  0  0
 29 58  1  0  0  0
 29 59  1  0  0  0
 30 31  1  0  0  0
 30 60  1  0  0  0
 30 61  1  0  0  0
 31 62  1  0  0  0
 31 63  1  0  0  0
 31 64  1  0  0  0
M  END
> <s_m_entry_id>
30820

> <s_m_entry_name>
dock_pv.33

> <s_m_Source_Path>
/home/csk/Desktop/cluster/DUD-E-result/rxra

> <s_m_Source_File>
dock_pv.maegz

> <i_m_Source_File_Index>
33

> <chembl_id>
CHEMBL366112

> <chembl_pref_name>
None

> <i_lp_mmshare_version>
53161

> <r_lp_tautomer_probability>
1

> <s_lp_Force_Field>
OPLS_2005

> <r_lp_Energy>
53.419135

> <b_lp_Chiralities_Consistent>
1

> <s_lp_Variant>
CHEMBL2061_lig145-1

> <s_i_glide_gridfile>
glide-grid_1mv9

> <i_i_glide_lignum>
184

> <i_i_glide_rotatable_bonds>
7

> <r_i_docking_score>
-11.6286235637838

> <r_i_glide_ligand_efficiency>
-0.375116889154316

> <r_i_glide_ligand_efficiency_sa>
-1.17838493662576

> <r_i_glide_ligand_efficiency_ln>
-2.62261098814651

> <r_i_glide_gscore>
-11.6286235637838

> <r_i_glide_lipo>
-7.28548716960975

> <r_i_glide_hbond>
-0.0198046622332419

> <r_i_glide_metal>
0

> <r_i_glide_rewards>
-1.78384475309599

> <r_i_glide_evdw>
-51.0980606079102

> <r_i_glide_ecoul>
-3.64370155334473

> <r_i_glide_erotb>
0.561971284552414

> <r_i_glide_esite>
0

> <r_i_glide_emodel>
-84.3654956262296

> <r_i_glide_energy>
-54.7417621612549

> <r_i_glide_einternal>
12.3262710571289

> <i_i_glide_confnum>
335

> <i_i_glide_posenum>
3

> <r_i_glide_eff_state_penalty>
0

> <s_user_duplicate_titles>
CHEMBL2061_lig145,312258

> <i_f3d_flags>
0

> <s_m_subgroup_title>
dock_pv

> <s_m_subgroupid>
dock_pv

> <b_m_subgroup_collapsed>
1

$$$$
CHEMBL2061_lig397
                    3D
 Schrodinger Suite 2021-1.
 60 63  0  0  1  0            999 V2000
   61.0923   46.2717   29.2091 C   0  0  0  0  0  0
   60.4850   46.8111   28.0986 C   0  0  0  0  0  0
   63.9618   45.9126   32.9929 C   0  0  0  0  0  0
   58.8081   46.4770   28.1390 S   0  0  0  0  0  0
   63.1447   46.8538   33.6824 C   0  0  0  0  0  0
   60.1544   45.6795   30.0733 C   0  0  0  0  0  0
   62.6055   46.3343   29.4283 C   0  0  2  0  0  0
   63.7985   45.7868   31.6025 C   0  0  0  0  0  0
   58.8248   45.6771   29.6610 C   0  0  0  0  0  0
   62.9117   46.5888   30.8930 C   0  0  0  0  0  0
   64.9810   44.9990   33.7095 C   0  0  0  0  0  0
   63.1642   47.0407   35.2122 C   0  0  0  0  0  0
   62.3462   47.7141   32.9244 C   0  0  0  0  0  0
   54.9017   45.2765   30.1445 C   0  0  0  0  0  0
   62.2281   47.5977   31.5569 C   0  0  0  0  0  0
   65.1472   45.4086   35.1966 C   0  0  0  0  0  0
   63.8363   45.8129   35.8840 C   0  0  0  0  0  0
   54.6301   44.3927   30.9427 O   0  0  0  0  0  0
   57.5416   45.1280   30.2985 C   0  0  0  0  0  0
   56.2585   45.4174   29.4552 C   0  0  0  0  0  0
   61.1671   47.6936   27.0682 C   0  0  0  0  0  0
   54.0086   46.2067   29.7025 O   0  0  0  0  0  0
   63.2356   47.4081   28.5019 C   0  0  0  0  0  0
   64.4668   43.5429   33.6482 C   0  0  0  0  0  0
   66.3812   45.1449   33.0566 C   0  0  0  0  0  0
   64.0095   48.2961   35.4806 C   0  0  0  0  0  0
   61.7229   47.1820   35.7892 C   0  0  0  0  0  0
   62.6744   47.3736   27.0724 C   0  0  0  0  0  0
   60.4846   45.2774   31.0040 H   0  0  0  0  0  0
   63.0232   45.3605   29.1644 H   0  0  0  0  0  0
   64.3453   45.0250   31.0676 H   0  0  0  0  0  0
   61.8136   48.5197   33.3984 H   0  0  0  0  0  0
   61.5721   48.2685   31.0216 H   0  0  0  0  0  0
   65.8572   46.2279   35.2929 H   0  0  0  0  0  0
   65.6082   44.5906   35.7389 H   0  0  0  0  0  0
   64.0228   46.0159   36.9391 H   0  0  0  0  0  0
   63.1683   44.9529   35.8714 H   0  0  0  0  0  0
   57.4242   45.4905   31.3216 H   0  0  0  0  0  0
   57.6514   44.0454   30.3881 H   0  0  0  0  0  0
   56.2658   44.8617   28.5193 H   0  0  0  0  0  0
   56.3012   46.4732   29.1862 H   0  0  0  0  0  0
   60.7369   47.5891   26.0786 H   0  0  0  0  0  0
   61.0150   48.7396   27.3396 H   0  0  0  0  0  0
   54.4100   46.7577   29.0265 H   0  0  0  0  0  0
   64.3180   47.2759   28.4742 H   0  0  0  0  0  0
   63.0550   48.4044   28.9075 H   0  0  0  0  0  0
   65.1717   42.8769   34.1377 H   0  0  0  0  0  0
   63.5046   43.4179   34.1391 H   0  0  0  0  0  0
   64.3597   43.1883   32.6224 H   0  0  0  0  0  0
   67.1051   44.4903   33.5461 H   0  0  0  0  0  0
   66.3829   44.8751   32.0011 H   0  0  0  0  0  0
   66.7580   46.1670   33.1248 H   0  0  0  0  0  0
   64.2232   48.4306   36.5390 H   0  0  0  0  0  0
   64.9521   48.2125   34.9450 H   0  0  0  0  0  0
   63.5268   49.2073   35.1280 H   0  0  0  0  0  0
   61.7399   47.6772   36.7605 H   0  0  0  0  0  0
   61.0562   47.8023   35.1963 H   0  0  0  0  0  0
   61.2231   46.2195   35.9015 H   0  0  0  0  0  0
   62.8530   46.3875   26.6410 H   0  0  0  0  0  0
   63.2054   48.0862   26.4393 H   0  0  0  0  0  0
  1  2  2  0  0  0
  1  6  1  0  0  0
  1  7  1  0  0  0
  2  4  1  0  0  0
  2 21  1  0  0  0
  3  8  2  0  0  0
  3 11  1  0  0  0
  3  5  1  0  0  0
  4  9  1  0  0  0
  5 13  2  0  0  0
  5 12  1  0  0  0
  6  9  2  0  0  0
  6 29  1  0  0  0
  7 10  1  0  0  0
  7 23  1  0  0  0
  7 30  1  0  0  0
  8 10  1  0  0  0
  8 31  1  0  0  0
  9 19  1  0  0  0
 10 15  2  0  0  0
 11 16  1  0  0  0
 11 24  1  0  0  0
 11 25  1  0  0  0
 12 17  1  0  0  0
 12 26  1  0  0  0
 12 27  1  0  0  0
 13 15  1  0  0  0
 13 32  1  0  0  0
 14 20  1  0  0  0
 14 18  2  0  0  0
 14 22  1  0  0  0
 15 33  1  0  0  0
 16 17  1  0  0  0
 16 34  1  0  0  0
 16 35  1  0  0  0
 17 36  1  0  0  0
 17 37  1  0  0  0
 19 20  1  0  0  0
 19 38  1  0  0  0
 19 39  1  0  0  0
 20 40  1  0  0  0
 20 41  1  0  0  0
 21 28  1  0  0  0
 21 42  1  0  0  0
 21 43  1  0  0  0
 22 44  1  0  0  0
 23 28  1  0  0  0
 23 45  1  0  0  0
 23 46  1  0  0  0
 24 47  1  0  0  0
 24 48  1  0  0  0
 24 49  1  0  0  0
 25 50  1  0  0  0
 25 51  1  0  0  0
 25 52  1  0  0  0
 26 53  1  0  0  0
 26 54  1  0  0  0
 26 55  1  0  0  0
 27 56  1  0  0  0
 27 57  1  0  0  0
 27 58  1  0  0  0
 28 59  1  0  0  0
 28 60  1  0  0  0
M  END
> <s_m_entry_id>
30821

> <s_m_entry_name>
dock_pv.34

> <s_m_Source_Path>
/home/csk/Desktop/cluster/DUD-E-result/rxra

> <s_m_Source_File>
dock_pv.maegz

> <i_m_Source_File_Index>
34

> <chembl_id>
CHEMBL60090

> <chembl_pref_name>
None

> <i_lp_mmshare_version>
53161

> <r_lp_tautomer_probability>
1

> <s_lp_Force_Field>
OPLS_2005

> <r_lp_Energy>
19.019719

> <b_lp_Chiralities_Consistent>
1

> <s_lp_Variant>
CHEMBL2061_lig397-1

> <s_i_glide_gridfile>
glide-grid_1mv9

> <i_i_glide_lignum>
463

> <i_i_glide_rotatable_bonds>
5

> <r_i_docking_score>
-11.6260845811618

> <r_i_glide_ligand_efficiency>
-0.415217306470063

> <r_i_glide_ligand_efficiency_sa>
-1.26084429235845

> <r_i_glide_ligand_efficiency_ln>
-2.68364167800831

> <r_i_glide_gscore>
-11.6260845811618

> <r_i_glide_lipo>
-7.12365235138829

> <r_i_glide_hbond>
-0.254863254544795

> <r_i_glide_metal>
0

> <r_i_glide_rewards>
-2.07448848321898

> <r_i_glide_evdw>
-42.9781837463379

> <r_i_glide_ecoul>
-3.47857546806335

> <r_i_glide_erotb>
0.497615015516699

> <r_i_glide_esite>
0

> <r_i_glide_emodel>
-67.7690512177406

> <r_i_glide_energy>
-46.4567592144012

> <r_i_glide_einternal>
2.81541657447815

> <i_i_glide_confnum>
138

> <i_i_glide_posenum>
287

> <r_i_glide_eff_state_penalty>
0

> <s_user_duplicate_titles>
CHEMBL2061_lig397,97176

> <i_f3d_flags>
0

> <s_m_subgroup_title>
dock_pv

> <s_m_subgroupid>
dock_pv

> <b_m_subgroup_collapsed>
1

$$$$
CHEMBL2061_lig448
                    3D
 Schrodinger Suite 2021-1.
 64 66  0  0  1  0            999 V2000
   64.0149   46.8954   35.2524 C   0  0  0  0  0  0
   65.0246   45.7756   34.9476 C   0  0  0  0  0  0
   65.5445   45.7562   33.4859 C   0  0  0  0  0  0
   63.2518   47.2670   34.1743 N   0  0  0  0  0  0
   63.9441   47.3570   36.3923 O   0  0  0  0  0  0
   66.3709   44.4771   33.3376 C   0  0  0  0  0  0
   66.4511   46.9523   33.1665 C   0  0  0  0  0  0
   63.2163   46.5617   32.9271 C   0  0  0  0  0  0
   64.3356   45.7987   32.5408 C   0  0  0  0  0  0
   64.3046   45.1217   31.3160 C   0  0  0  0  0  0
   63.2081   45.1903   30.4630 C   0  0  0  0  0  0
   62.1074   45.9965   30.8064 C   0  0  0  0  0  0
   62.1221   46.6372   32.0474 C   0  0  0  0  0  0
   60.9103   46.1352   29.9258 C   0  0  0  0  0  0
   59.6260   45.8663   30.4276 C   0  0  0  0  0  0
   58.5084   45.8187   29.5893 C   0  0  0  0  0  0
   58.6926   46.1025   28.2369 C   0  0  0  0  0  0
   59.9272   46.4770   27.7400 C   0  0  0  0  0  0
   61.0304   46.4926   28.5727 C   0  0  0  0  0  0
   57.1328   45.4432   30.1501 C   0  0  0  0  0  0
   55.9623   45.5312   29.1318 C   0  0  0  0  0  0
   54.5822   45.6767   29.7597 C   0  0  0  0  0  0
   53.9642   46.8178   29.3388 O   0  0  0  0  0  0
   54.0940   44.8629   30.5393 O   0  0  0  0  0  0
   62.2298   46.7638   27.9851 O   0  0  0  0  0  0
   62.6588   48.1159   28.0254 C   0  0  0  0  0  0
   62.2206   48.2990   34.4746 C   0  0  0  0  0  0
   63.2209   44.2860   29.2330 C   0  0  0  0  0  0
   64.0451   48.0964   27.3813 C   0  0  0  0  0  0
   64.8080   47.2318   28.0304 F   0  0  0  0  0  0
   63.9908   47.6771   26.1390 F   0  0  0  0  0  0
   64.6539   49.2769   27.3390 F   0  0  0  0  0  0
   60.9229   47.6813   35.0494 C   0  0  0  0  0  0
   62.0545   49.4366   33.4233 C   0  0  0  0  0  0
   65.8510   45.8717   35.6492 H   0  0  0  0  0  0
   64.5174   44.8407   35.1924 H   0  0  0  0  0  0
   67.1832   44.4742   34.0669 H   0  0  0  0  0  0
   65.7804   43.5678   33.4597 H   0  0  0  0  0  0
   66.8348   44.4770   32.3557 H   0  0  0  0  0  0
   67.3731   46.9011   33.7389 H   0  0  0  0  0  0
   66.7504   46.8769   32.1231 H   0  0  0  0  0  0
   65.9839   47.9212   33.3400 H   0  0  0  0  0  0
   65.1415   44.5114   31.0132 H   0  0  0  0  0  0
   61.2391   47.1913   32.3167 H   0  0  0  0  0  0
   59.4992   45.6766   31.4822 H   0  0  0  0  0  0
   57.8885   46.0282   27.5375 H   0  0  0  0  0  0
   60.0496   46.6940   26.6913 H   0  0  0  0  0  0
   56.9396   46.0763   31.0181 H   0  0  0  0  0  0
   57.2004   44.4213   30.5289 H   0  0  0  0  0  0
   55.9572   44.6513   28.4877 H   0  0  0  0  0  0
   56.0973   46.3897   28.4757 H   0  0  0  0  0  0
   54.5283   47.3352   28.7592 H   0  0  0  0  0  0
   61.9802   48.7676   27.4730 H   0  0  0  0  0  0
   62.7174   48.4748   29.0541 H   0  0  0  0  0  0
   62.5764   48.8708   35.3357 H   0  0  0  0  0  0
   63.7741   43.3665   29.4321 H   0  0  0  0  0  0
   62.2162   43.9677   28.9521 H   0  0  0  0  0  0
   63.6906   44.7837   28.3855 H   0  0  0  0  0  0
   60.2202   48.4631   35.3390 H   0  0  0  0  0  0
   60.4146   47.0167   34.3530 H   0  0  0  0  0  0
   61.1276   47.1253   35.9649 H   0  0  0  0  0  0
   61.2084   50.0771   33.6529 H   0  0  0  0  0  0
   62.8748   50.1371   33.5280 H   0  0  0  0  0  0
   62.0078   49.1522   32.3758 H   0  0  0  0  0  0
  1  5  2  0  0  0
  1  2  1  0  0  0
  1  4  1  0  0  0
  2  3  1  0  0  0
  2 35  1  0  0  0
  2 36  1  0  0  0
  3  9  1  0  0  0
  3  6  1  0  0  0
  3  7  1  0  0  0
  4  8  1  0  0  0
  4 27  1  0  0  0
  6 37  1  0  0  0
  6 38  1  0  0  0
  6 39  1  0  0  0
  7 40  1  0  0  0
  7 41  1  0  0  0
  7 42  1  0  0  0
  8  9  2  0  0  0
  8 13  1  0  0  0
  9 10  1  0  0  0
 10 11  2  0  0  0
 10 43  1  0  0  0
 11 12  1  0  0  0
 11 28  1  0  0  0
 12 14  1  0  0  0
 12 13  2  0  0  0
 13 44  1  0  0  0
 14 19  1  0  0  0
 14 15  2  0  0  0
 15 16  1  0  0  0
 15 45  1  0  0  0
 16 17  2  0  0  0
 16 20  1  0  0  0
 17 18  1  0  0  0
 17 46  1  0  0  0
 18 19  2  0  0  0
 18 47  1  0  0  0
 19 25  1  0  0  0
 20 21  1  0  0  0
 20 48  1  0  0  0
 20 49  1  0  0  0
 21 22  1  0  0  0
 21 50  1  0  0  0
 21 51  1  0  0  0
 22 23  1  0  0  0
 22 24  2  0  0  0
 23 52  1  0  0  0
 25 26  1  0  0  0
 26 29  1  0  0  0
 26 53  1  0  0  0
 26 54  1  0  0  0
 27 33  1  0  0  0
 27 34  1  0  0  0
 27 55  1  0  0  0
 28 56  1  0  0  0
 28 57  1  0  0  0
 28 58  1  0  0  0
 29 30  1  0  0  0
 29 31  1  0  0  0
 29 32  1  0  0  0
 33 59  1  0  0  0
 33 60  1  0  0  0
 33 61  1  0  0  0
 34 62  1  0  0  0
 34 63  1  0  0  0
 34 64  1  0  0  0
M  END
> <s_m_entry_id>
30822

> <s_m_entry_name>
dock_pv.35

> <s_m_Source_Path>
/home/csk/Desktop/cluster/DUD-E-result/rxra

> <s_m_Source_File>
dock_pv.maegz

> <i_m_Source_File_Index>
35

> <chembl_id>
CHEMBL410399

> <chembl_pref_name>
None

> <i_lp_mmshare_version>
53161

> <r_lp_tautomer_probability>
1

> <s_lp_Force_Field>
OPLS_2005

> <r_lp_Energy>
42.091878

> <b_lp_Chiralities_Consistent>
1

> <s_lp_Variant>
CHEMBL2061_lig448-1

> <s_i_glide_gridfile>
glide-grid_1mv9

> <i_i_glide_lignum>
524

> <i_i_glide_rotatable_bonds>
9

> <r_i_docking_score>
-11.6159699951553

> <r_i_glide_ligand_efficiency>
-0.341646176328097

> <r_i_glide_ligand_efficiency_sa>
-1.10680098339284

> <r_i_glide_ligand_efficiency_ln>
-2.56629358885202

> <r_i_glide_gscore>
-11.6159699951553

> <r_i_glide_lipo>
-6.01577457634164

> <r_i_glide_hbond>
-0.375547720467621

> <r_i_glide_metal>
0

> <r_i_glide_rewards>
-2.89435965481692

> <r_i_glide_evdw>
-43.8570442199707

> <r_i_glide_ecoul>
-4.46988582611084

> <r_i_glide_erotb>
0.533047041386044

> <r_i_glide_esite>
0

> <r_i_glide_emodel>
-65.2402381615684

> <r_i_glide_energy>
-48.3269300460815

> <r_i_glide_einternal>
13.8045148849487

> <i_i_glide_confnum>
120

> <i_i_glide_posenum>
170

> <r_i_glide_eff_state_penalty>
0

> <s_user_duplicate_titles>
CHEMBL2061_lig448,414664

> <i_f3d_flags>
0

> <s_m_subgroup_title>
dock_pv

> <s_m_subgroupid>
dock_pv

> <b_m_subgroup_collapsed>
1

$$$$
CHEMBL2061_lig429
                    3D
 Schrodinger Suite 2021-1.
 56 58  0  0  1  0            999 V2000
   64.0518   46.9078   35.4199 C   0  0  0  0  0  0
   65.1080   45.8208   35.1887 C   0  0  0  0  0  0
   65.5981   45.6133   33.7307 C   0  0  0  0  0  0
   63.2979   47.2066   34.3234 N   0  0  0  0  0  0
   63.9387   47.4100   36.5388 O   0  0  0  0  0  0
   66.2088   44.2048   33.7114 C   0  0  0  0  0  0
   66.6329   46.6877   33.3394 C   0  0  0  0  0  0
   63.3398   46.5388   33.0647 C   0  0  0  0  0  0
   64.4340   45.7136   32.7475 C   0  0  0  0  0  0
   64.4518   45.0414   31.5194 C   0  0  0  0  0  0
   63.4300   45.1796   30.5913 C   0  0  0  0  0  0
   62.3770   46.0693   30.8597 C   0  0  0  0  0  0
   62.3433   46.7259   32.0928 C   0  0  0  0  0  0
   61.2673   46.2908   29.9002 C   0  0  0  0  0  0
   59.9664   46.0062   30.3195 C   0  0  0  0  0  0
   58.8794   46.0746   29.4533 C   0  0  0  0  0  0
   59.1226   46.4765   28.1399 C   0  0  0  0  0  0
   60.4057   46.8225   27.7137 C   0  0  0  0  0  0
   61.5003   46.7387   28.5890 C   0  0  0  0  0  0
   57.5455   45.7058   29.9815 C   0  0  0  0  0  0
   56.3445   45.8805   29.3826 C   0  0  0  0  0  0
   55.0828   45.5126   29.9891 C   0  0  0  0  0  0
   55.1745   44.4919   30.8885 O   0  0  0  0  0  0
   54.0199   46.0770   29.7396 O   0  0  0  0  0  0
   62.8258   46.9486   28.2368 O   0  0  0  0  0  0
   63.2771   47.8539   27.2302 C   0  0  0  0  0  0
   63.6083   49.0312   27.7395 F   0  0  0  0  0  0
   64.3677   47.3123   26.6931 F   0  0  0  0  0  0
   62.4275   48.0769   26.2517 F   0  0  0  0  0  0
   62.2085   48.1714   34.5832 C   0  0  0  0  0  0
   60.9103   47.5065   35.0738 C   0  0  0  0  0  0
   63.4697   44.2893   29.3518 C   0  0  0  0  0  0
   65.9564   46.0766   35.8194 H   0  0  0  0  0  0
   64.6657   44.9104   35.5950 H   0  0  0  0  0  0
   66.8923   44.0772   34.5392 H   0  0  0  0  0  0
   65.4636   43.4089   33.7575 H   0  0  0  0  0  0
   66.8113   44.0775   32.8252 H   0  0  0  0  0  0
   67.5925   46.4767   33.8101 H   0  0  0  0  0  0
   66.8079   46.6933   32.2638 H   0  0  0  0  0  0
   66.3159   47.6921   33.6210 H   0  0  0  0  0  0
   65.2761   44.3915   31.2696 H   0  0  0  0  0  0
   61.5059   47.3805   32.2762 H   0  0  0  0  0  0
   59.8100   45.6847   31.3389 H   0  0  0  0  0  0
   58.3252   46.4816   27.4207 H   0  0  0  0  0  0
   60.5150   47.0838   26.6752 H   0  0  0  0  0  0
   57.5751   45.2560   30.9648 H   0  0  0  0  0  0
   56.2592   46.3416   28.4103 H   0  0  0  0  0  0
   56.0538   44.1114   30.9068 H   0  0  0  0  0  0
   62.5181   48.8769   35.3525 H   0  0  0  0  0  0
   62.0332   48.7990   33.7095 H   0  0  0  0  0  0
   60.1775   48.2678   35.3389 H   0  0  0  0  0  0
   60.4599   46.8654   34.3166 H   0  0  0  0  0  0
   61.0843   46.9103   35.9702 H   0  0  0  0  0  0
   63.9507   43.3355   29.5725 H   0  0  0  0  0  0
   62.4680   44.0405   29.0004 H   0  0  0  0  0  0
   64.0194   44.7676   28.5434 H   0  0  0  0  0  0
  1  5  2  0  0  0
  1  2  1  0  0  0
  1  4  1  0  0  0
  2  3  1  0  0  0
  2 33  1  0  0  0
  2 34  1  0  0  0
  3  9  1  0  0  0
  3  6  1  0  0  0
  3  7  1  0  0  0
  4  8  1  0  0  0
  4 30  1  0  0  0
  6 35  1  0  0  0
  6 36  1  0  0  0
  6 37  1  0  0  0
  7 38  1  0  0  0
  7 39  1  0  0  0
  7 40  1  0  0  0
  8  9  2  0  0  0
  8 13  1  0  0  0
  9 10  1  0  0  0
 10 11  2  0  0  0
 10 41  1  0  0  0
 11 12  1  0  0  0
 11 32  1  0  0  0
 12 14  1  0  0  0
 12 13  2  0  0  0
 13 42  1  0  0  0
 14 19  1  0  0  0
 14 15  2  0  0  0
 15 16  1  0  0  0
 15 43  1  0  0  0
 16 17  2  0  0  0
 16 20  1  0  0  0
 17 18  1  0  0  0
 17 44  1  0  0  0
 18 19  2  0  0  0
 18 45  1  0  0  0
 19 25  1  0  0  0
 20 21  2  0  0  0
 20 46  1  0  0  0
 21 22  1  0  0  0
 21 47  1  0  0  0
 22 23  1  0  0  0
 22 24  2  0  0  0
 23 48  1  0  0  0
 25 26  1  0  0  0
 26 27  1  0  0  0
 26 28  1  0  0  0
 26 29  1  0  0  0
 30 31  1  0  0  0
 30 49  1  0  0  0
 30 50  1  0  0  0
 31 51  1  0  0  0
 31 52  1  0  0  0
 31 53  1  0  0  0
 32 54  1  0  0  0
 32 55  1  0  0  0
 32 56  1  0  0  0
M  END
> <s_m_entry_id>
30823

> <s_m_entry_name>
dock_pv.36

> <s_m_Source_Path>
/home/csk/Desktop/cluster/DUD-E-result/rxra

> <s_m_Source_File>
dock_pv.maegz

> <i_m_Source_File_Index>
36

> <chembl_id>
CHEMBL246821

> <chembl_pref_name>
None

> <i_lp_mmshare_version>
53161

> <r_lp_tautomer_probability>
1

> <s_lp_Force_Field>
OPLS_2005

> <r_lp_Energy>
37.780787

> <b_lp_Chiralities_Consistent>
1

> <s_lp_Variant>
CHEMBL2061_lig429-1

> <s_i_glide_gridfile>
glide-grid_1mv9

> <i_i_glide_lignum>
500

> <i_i_glide_rotatable_bonds>
7

> <r_i_docking_score>
-11.6136657866482

> <r_i_glide_ligand_efficiency>
-0.362927055832755

> <r_i_glide_ligand_efficiency_sa>
-1.15222157910218

> <r_i_glide_ligand_efficiency_ln>
-2.60061634620335

> <r_i_glide_gscore>
-11.6136657866482

> <r_i_glide_lipo>
-5.86152262001788

> <r_i_glide_hbond>
-0.141782570199003

> <r_i_glide_metal>
0

> <r_i_glide_rewards>
-3.05831680227273

> <r_i_glide_evdw>
-47.1154251098633

> <r_i_glide_ecoul>
-3.97565770149231

> <r_i_glide_erotb>
0.400076116558463

> <r_i_glide_esite>
0

> <r_i_glide_emodel>
-82.7365060852292

> <r_i_glide_energy>
-51.0910828113556

> <r_i_glide_einternal>
5.03178787231445

> <i_i_glide_confnum>
23

> <i_i_glide_posenum>
180

> <r_i_glide_eff_state_penalty>
0

> <s_user_duplicate_titles>
CHEMBL2061_lig429,CHEMBL2061_lig446,414601,414603

> <i_f3d_flags>
0

> <s_m_subgroup_title>
dock_pv

> <s_m_subgroupid>
dock_pv

> <b_m_subgroup_collapsed>
1

$$$$
CHEMBL2061_lig147
                    3D
 Schrodinger Suite 2021-1.
 58 61  0  0  1  0            999 V2000
   61.9800   46.2322   30.5239 C   0  0  0  0  0  0
   60.9309   46.5818   29.5194 C   0  0  0  0  0  0
   61.3162   47.3143   28.4537 C   0  0  0  0  0  0
   62.8543   46.4650   32.8283 C   0  0  0  0  0  0
   63.9611   45.6421   32.4832 C   0  0  0  0  0  0
   61.9333   46.7860   31.8112 C   0  0  0  0  0  0
   64.0142   45.1147   31.1857 C   0  0  0  0  0  0
   63.0406   45.3643   30.2248 C   0  0  0  0  0  0
   62.4162   48.0041   27.7068 C   0  0  0  0  0  0
   60.9802   48.0252   27.1802 C   0  0  0  0  0  0
   65.0652   45.2343   33.4890 C   0  0  0  0  0  0
   62.6289   46.9884   34.2749 C   0  0  0  0  0  0
   55.3810   44.9679   30.3149 C   0  0  0  0  0  0
   59.5166   46.0966   29.6927 C   0  0  0  0  0  0
   56.8281   45.2781   30.0612 C   0  0  0  0  0  0
   64.9741   46.0779   34.7851 C   0  0  0  0  0  0
   63.5372   46.2364   35.2863 C   0  0  0  0  0  0
   54.8062   45.3135   31.3390 O   0  0  0  0  0  0
   58.6027   46.0899   28.6255 C   0  0  0  0  0  0
   59.0417   45.6769   30.9380 C   0  0  0  0  0  0
   57.7261   45.2773   31.1248 C   0  0  0  0  0  0
   57.2793   45.6770   28.8019 C   0  0  0  0  0  0
   54.7565   44.2687   29.3389 O   0  0  0  0  0  0
   63.1896   44.6414   28.8935 C   0  0  0  0  0  0
   64.8823   43.7366   33.8409 C   0  0  0  0  0  0
   62.9745   48.4891   34.3449 C   0  0  0  0  0  0
   61.1702   46.7175   34.7238 C   0  0  0  0  0  0
   66.4601   45.5281   32.8880 C   0  0  0  0  0  0
   61.1262   47.4649   32.0396 H   0  0  0  0  0  0
   64.8206   44.4457   30.9239 H   0  0  0  0  0  0
   62.8433   48.9041   28.1406 H   0  0  0  0  0  0
   63.1536   47.3835   27.1977 H   0  0  0  0  0  0
   60.7422   47.4322   26.2999 H   0  0  0  0  0  0
   60.4084   48.9501   27.2534 H   0  0  0  0  0  0
   65.5959   45.6402   35.5677 H   0  0  0  0  0  0
   65.3976   47.0683   34.6180 H   0  0  0  0  0  0
   63.1340   45.2487   35.5045 H   0  0  0  0  0  0
   63.5472   46.7533   36.2473 H   0  0  0  0  0  0
   58.9093   46.4042   27.6403 H   0  0  0  0  0  0
   59.6733   45.6777   31.8099 H   0  0  0  0  0  0
   57.4109   45.0035   32.1167 H   0  0  0  0  0  0
   56.6063   45.7173   27.9567 H   0  0  0  0  0  0
   55.3591   43.9427   28.6641 H   0  0  0  0  0  0
   64.2081   44.7948   28.5390 H   0  0  0  0  0  0
   63.0498   43.5677   29.0293 H   0  0  0  0  0  0
   62.5133   44.9804   28.1104 H   0  0  0  0  0  0
   65.6194   43.4109   34.5754 H   0  0  0  0  0  0
   63.8935   43.5205   34.2460 H   0  0  0  0  0  0
   65.0098   43.1018   32.9619 H   0  0  0  0  0  0
   62.7835   48.8762   35.3447 H   0  0  0  0  0  0
   64.0217   48.6919   34.1392 H   0  0  0  0  0  0
   62.3826   49.0781   33.6439 H   0  0  0  0  0  0
   61.0154   46.9944   35.7679 H   0  0  0  0  0  0
   60.4419   47.2765   34.1425 H   0  0  0  0  0  0
   60.9022   45.6690   34.6225 H   0  0  0  0  0  0
   67.2450   45.3659   33.6277 H   0  0  0  0  0  0
   66.6918   44.8805   32.0429 H   0  0  0  0  0  0
   66.5436   46.5587   32.5388 H   0  0  0  0  0  0
  1  2  1  0  0  0
  1  6  2  0  0  0
  1  8  1  0  0  0
  2  3  2  0  0  0
  2 14  1  0  0  0
  3  9  1  0  0  0
  3 10  1  0  0  0
  4  6  1  0  0  0
  4 12  1  0  0  0
  4  5  2  0  0  0
  5  7  1  0  0  0
  5 11  1  0  0  0
  6 29  1  0  0  0
  7  8  2  0  0  0
  7 30  1  0  0  0
  8 24  1  0  0  0
  9 10  1  0  0  0
  9 31  1  0  0  0
  9 32  1  0  0  0
 10 33  1  0  0  0
 10 34  1  0  0  0
 11 16  1  0  0  0
 11 25  1  0  0  0
 11 28  1  0  0  0
 12 17  1  0  0  0
 12 26  1  0  0  0
 12 27  1  0  0  0
 13 15  1  0  0  0
 13 18  2  0  0  0
 13 23  1  0  0  0
 14 19  1  0  0  0
 14 20  2  0  0  0
 15 21  2  0  0  0
 15 22  1  0  0  0
 16 17  1  0  0  0
 16 35  1  0  0  0
 16 36  1  0  0  0
 17 37  1  0  0  0
 17 38  1  0  0  0
 19 22  2  0  0  0
 19 39  1  0  0  0
 20 21  1  0  0  0
 20 40  1  0  0  0
 21 41  1  0  0  0
 22 42  1  0  0  0
 23 43  1  0  0  0
 24 44  1  0  0  0
 24 45  1  0  0  0
 24 46  1  0  0  0
 25 47  1  0  0  0
 25 48  1  0  0  0
 25 49  1  0  0  0
 26 50  1  0  0  0
 26 51  1  0  0  0
 26 52  1  0  0  0
 27 53  1  0  0  0
 27 54  1  0  0  0
 27 55  1  0  0  0
 28 56  1  0  0  0
 28 57  1  0  0  0
 28 58  1  0  0  0
M  END
> <s_m_entry_id>
30824

> <s_m_entry_name>
dock_pv.37

> <s_m_Source_Path>
/home/csk/Desktop/cluster/DUD-E-result/rxra

> <s_m_Source_File>
dock_pv.maegz

> <i_m_Source_File_Index>
37

> <chembl_id>
CHEMBL277626

> <chembl_pref_name>
None

> <i_lp_mmshare_version>
53161

> <r_lp_tautomer_probability>
1

> <s_lp_Force_Field>
OPLS_2005

> <r_lp_Energy>
52.914368

> <b_lp_Chiralities_Consistent>
1

> <s_lp_Variant>
CHEMBL2061_lig147-1

> <s_i_glide_gridfile>
glide-grid_1mv9

> <i_i_glide_lignum>
186

> <i_i_glide_rotatable_bonds>
4

> <r_i_docking_score>
-11.6118173095874

> <r_i_glide_ligand_efficiency>
-0.414707761056693

> <r_i_glide_ligand_efficiency_sa>
-1.25929701237726

> <r_i_glide_ligand_efficiency_ln>
-2.68034837282365

> <r_i_glide_gscore>
-11.6118173095874

> <r_i_glide_lipo>
-7.05350699271259

> <r_i_glide_hbond>
-0.0363456169005874

> <r_i_glide_metal>
0

> <r_i_glide_rewards>
-2.09555979068345

> <r_i_glide_evdw>
-46.2089195251465

> <r_i_glide_ecoul>
-3.53031182289124

> <r_i_glide_erotb>
0.413587840400235

> <r_i_glide_esite>
0

> <r_i_glide_emodel>
-79.57514766737

> <r_i_glide_energy>
-49.7392313480377

> <r_i_glide_einternal>
6.61298513412476

> <i_i_glide_confnum>
27

> <i_i_glide_posenum>
162

> <r_i_glide_eff_state_penalty>
0

> <s_user_duplicate_titles>
CHEMBL2061_lig147,32819

> <i_f3d_flags>
0

> <s_m_subgroup_title>
dock_pv

> <s_m_subgroupid>
dock_pv

> <b_m_subgroup_collapsed>
1

$$$$
CHEMBL2061_lig444
                    3D
 Schrodinger Suite 2021-1.
 59 61  0  0  1  0            999 V2000
   64.0086   46.9399   35.4860 C   0  0  0  0  0  0
   64.8021   45.6387   35.3919 C   0  0  0  0  0  0
   65.4176   45.3521   33.9988 C   0  0  0  0  0  0
   63.3307   47.2488   34.3410 N   0  0  0  0  0  0
   63.9860   47.5778   36.5388 O   0  0  0  0  0  0
   65.8164   43.8792   34.0467 C   0  0  0  0  0  0
   66.6235   46.2745   33.7316 C   0  0  0  0  0  0
   63.3458   46.5085   33.1203 C   0  0  0  0  0  0
   64.3783   45.5796   32.8990 C   0  0  0  0  0  0
   64.4396   44.8999   31.6758 C   0  0  0  0  0  0
   63.5105   45.1129   30.6684 C   0  0  0  0  0  0
   62.4890   46.0504   30.8681 C   0  0  0  0  0  0
   62.4095   46.7236   32.0930 C   0  0  0  0  0  0
   61.4876   46.3432   29.8160 C   0  0  0  0  0  0
   60.1371   46.0771   30.0808 C   0  0  0  0  0  0
   59.1490   46.3527   29.1336 C   0  0  0  0  0  0
   59.5532   46.8895   27.9167 C   0  0  0  0  0  0
   60.8814   47.1750   27.6354 C   0  0  0  0  0  0
   61.8740   46.8944   28.5780 C   0  0  0  0  0  0
   57.6940   46.1521   29.3399 C   0  0  0  0  0  0
   57.0307   45.2509   30.1118 C   0  0  0  0  0  0
   55.5649   45.2187   30.1871 C   0  0  0  0  0  0
   54.9268   46.0784   29.3368 O   0  0  0  0  0  0
   54.9213   44.4894   30.9394 O   0  0  0  0  0  0
   63.2247   47.0902   28.3405 O   0  0  0  0  0  0
   63.6989   48.0343   27.3798 C   0  0  0  0  0  0
   63.4085   49.2770   27.7386 F   0  0  0  0  0  0
   65.0186   47.9153   27.3393 F   0  0  0  0  0  0
   63.2913   47.8232   26.1410 F   0  0  0  0  0  0
   62.4191   48.4001   34.4780 C   0  0  0  0  0  0
   61.1238   48.0260   35.2324 C   0  0  0  0  0  0
   63.6064   44.2596   29.4085 C   0  0  0  0  0  0
   57.7369   44.1750   30.9369 C   0  0  0  0  0  0
   65.5796   45.6769   36.1518 H   0  0  0  0  0  0
   64.1068   44.8525   35.6915 H   0  0  0  0  0  0
   66.3892   43.6773   34.9387 H   0  0  0  0  0  0
   64.9643   43.1981   34.0197 H   0  0  0  0  0  0
   66.4615   43.6770   33.2109 H   0  0  0  0  0  0
   67.4227   46.0769   34.4470 H   0  0  0  0  0  0
   67.0327   46.0934   32.7402 H   0  0  0  0  0  0
   66.3601   47.3322   33.7719 H   0  0  0  0  0  0
   65.2233   44.1830   31.4926 H   0  0  0  0  0  0
   61.5985   47.4229   32.2185 H   0  0  0  0  0  0
   59.8672   45.6896   31.0510 H   0  0  0  0  0  0
   58.8100   47.1134   27.1781 H   0  0  0  0  0  0
   61.1049   47.5994   26.6708 H   0  0  0  0  0  0
   57.1187   46.8761   28.7889 H   0  0  0  0  0  0
   55.5298   46.5329   28.7494 H   0  0  0  0  0  0
   62.9574   49.1884   35.0069 H   0  0  0  0  0  0
   62.1874   48.8551   33.5168 H   0  0  0  0  0  0
   60.4603   48.8774   35.3391 H   0  0  0  0  0  0
   60.5714   47.2462   34.7066 H   0  0  0  0  0  0
   61.3262   47.6735   36.2442 H   0  0  0  0  0  0
   64.0403   43.2825   29.6267 H   0  0  0  0  0  0
   62.6237   44.0585   28.9798 H   0  0  0  0  0  0
   64.2240   44.7559   28.6616 H   0  0  0  0  0  0
   57.1436   43.2774   31.0865 H   0  0  0  0  0  0
   58.6460   43.8453   30.4384 H   0  0  0  0  0  0
   58.0084   44.5640   31.9190 H   0  0  0  0  0  0
  1  5  2  0  0  0
  1  2  1  0  0  0
  1  4  1  0  0  0
  2  3  1  0  0  0
  2 34  1  0  0  0
  2 35  1  0  0  0
  3  9  1  0  0  0
  3  6  1  0  0  0
  3  7  1  0  0  0
  4  8  1  0  0  0
  4 30  1  0  0  0
  6 36  1  0  0  0
  6 37  1  0  0  0
  6 38  1  0  0  0
  7 39  1  0  0  0
  7 40  1  0  0  0
  7 41  1  0  0  0
  8  9  2  0  0  0
  8 13  1  0  0  0
  9 10  1  0  0  0
 10 11  2  0  0  0
 10 42  1  0  0  0
 11 12  1  0  0  0
 11 32  1  0  0  0
 12 14  1  0  0  0
 12 13  2  0  0  0
 13 43  1  0  0  0
 14 19  1  0  0  0
 14 15  2  0  0  0
 15 16  1  0  0  0
 15 44  1  0  0  0
 16 17  2  0  0  0
 16 20  1  0  0  0
 17 18  1  0  0  0
 17 45  1  0  0  0
 18 19  2  0  0  0
 18 46  1  0  0  0
 19 25  1  0  0  0
 20 21  2  0  0  0
 20 47  1  0  0  0
 21 22  1  0  0  0
 21 33  1  0  0  0
 22 23  1  0  0  0
 22 24  2  0  0  0
 23 48  1  0  0  0
 25 26  1  0  0  0
 26 27  1  0  0  0
 26 28  1  0  0  0
 26 29  1  0  0  0
 30 31  1  0  0  0
 30 49  1  0  0  0
 30 50  1  0  0  0
 31 51  1  0  0  0
 31 52  1  0  0  0
 31 53  1  0  0  0
 32 54  1  0  0  0
 32 55  1  0  0  0
 32 56  1  0  0  0
 33 57  1  0  0  0
 33 58  1  0  0  0
 33 59  1  0  0  0
M  END
> <s_m_entry_id>
30825

> <s_m_entry_name>
dock_pv.38

> <s_m_Source_Path>
/home/csk/Desktop/cluster/DUD-E-result/rxra

> <s_m_Source_File>
dock_pv.maegz

> <i_m_Source_File_Index>
38

> <chembl_id>
CHEMBL248016

> <chembl_pref_name>
None

> <i_lp_mmshare_version>
53161

> <r_lp_tautomer_probability>
1

> <s_lp_Force_Field>
OPLS_2005

> <r_lp_Energy>
42.610219

> <b_lp_Chiralities_Consistent>
1

> <s_lp_Variant>
CHEMBL2061_lig444-1

> <s_i_glide_gridfile>
glide-grid_1mv9

> <i_i_glide_lignum>
520

> <i_i_glide_rotatable_bonds>
7

> <r_i_docking_score>
-11.6032611743687

> <r_i_glide_ligand_efficiency>
-0.35161397498087

> <r_i_glide_ligand_efficiency_sa>
-1.12781389434297

> <r_i_glide_ligand_efficiency_ln>
-2.58050520670857

> <r_i_glide_gscore>
-11.6032611743687

> <r_i_glide_lipo>
-6.27161665571318

> <r_i_glide_hbond>
-0.01384072486354

> <r_i_glide_metal>
0

> <r_i_glide_rewards>
-2.96268102954545

> <r_i_glide_evdw>
-46.5738220214844

> <r_i_glide_ecoul>
-2.6977105140686

> <r_i_glide_erotb>
0.378224913937964

> <r_i_glide_esite>
0

> <r_i_glide_emodel>
-80.3556507881597

> <r_i_glide_energy>
-49.271532535553

> <r_i_glide_einternal>
5.10377883911133

> <i_i_glide_confnum>
19

> <i_i_glide_posenum>
81

> <r_i_glide_eff_state_penalty>
0

> <s_user_duplicate_titles>
CHEMBL2061_lig444,414609

> <i_f3d_flags>
0

> <s_m_subgroup_title>
dock_pv

> <s_m_subgroupid>
dock_pv

> <b_m_subgroup_collapsed>
1

$$$$
CHEMBL2061_lig411
                    3D
 Schrodinger Suite 2021-1.
 60 62  0  0  1  0            999 V2000
   62.5896   46.9621   34.0187 C   0  0  0  0  0  0
   63.5374   46.6132   35.1937 C   0  0  0  0  0  0
   64.0606   45.1896   35.1177 C   0  0  0  0  0  0
   64.8937   44.9163   33.8379 C   0  0  0  0  0  0
   62.4876   48.4820   34.0505 C   0  0  0  0  0  0
   61.1882   46.3516   34.2340 C   0  0  0  0  0  0
   64.8253   43.3932   33.6135 C   0  0  0  0  0  0
   66.3278   45.4575   34.0442 C   0  0  0  0  0  0
   63.1736   46.4738   32.6687 C   0  0  0  0  0  0
   64.2769   45.5849   32.5970 C   0  0  0  0  0  0
   64.8001   45.2591   31.3371 C   0  0  0  0  0  0
   64.2004   45.6798   30.1649 C   0  0  0  0  0  0
   63.0431   46.4494   30.2117 C   0  0  0  0  0  0
   62.5706   46.8629   31.4618 C   0  0  0  0  0  0
   62.3795   46.7853   29.0238 N   0  0  0  0  0  0
   61.0786   47.4600   28.9167 C   0  0  1  0  0  0
   60.9381   47.9276   27.4626 C   0  0  0  0  0  0
   62.3846   48.0771   27.0451 C   0  0  0  0  0  0
   63.0497   46.8973   27.7270 C   0  0  0  0  0  0
   59.9355   46.5970   29.4597 C   0  0  0  0  0  0
   58.6670   46.5153   29.0061 C   0  0  0  0  0  0
   57.6189   45.6961   29.6195 C   0  0  0  0  0  0
   56.3306   46.0762   29.4025 C   0  0  0  0  0  0
   58.0196   44.4719   30.4358 C   0  0  0  0  0  0
   55.0942   45.5491   29.9514 C   0  0  0  0  0  0
   54.0071   46.0765   29.7377 O   0  0  0  0  0  0
   55.2230   44.4870   30.7911 O   0  0  0  0  0  0
   63.0243   46.7740   36.1394 H   0  0  0  0  0  0
   64.4026   47.2792   35.2188 H   0  0  0  0  0  0
   63.2083   44.5204   35.1676 H   0  0  0  0  0  0
   64.6442   44.9620   36.0110 H   0  0  0  0  0  0
   61.9014   48.8075   34.9096 H   0  0  0  0  0  0
   63.4597   48.9703   34.1390 H   0  0  0  0  0  0
   62.0079   48.9010   33.1677 H   0  0  0  0  0  0
   60.7959   46.5892   35.2228 H   0  0  0  0  0  0
   60.4703   46.7286   33.5047 H   0  0  0  0  0  0
   61.1901   45.2770   34.1388 H   0  0  0  0  0  0
   64.9624   42.8774   34.5460 H   0  0  0  0  0  0
   63.8616   43.0690   33.2173 H   0  0  0  0  0  0
   65.6013   43.0430   32.9397 H   0  0  0  0  0  0
   66.7880   45.0385   34.9378 H   0  0  0  0  0  0
   66.9776   45.1997   33.2085 H   0  0  0  0  0  0
   66.3442   46.5434   34.1398 H   0  0  0  0  0  0
   65.6646   44.6180   31.2567 H   0  0  0  0  0  0
   64.6166   45.3546   29.2221 H   0  0  0  0  0  0
   61.6935   47.4879   31.5113 H   0  0  0  0  0  0
   61.1554   48.3515   29.5405 H   0  0  0  0  0  0
   60.4443   47.1757   26.8442 H   0  0  0  0  0  0
   60.4012   48.8701   27.3684 H   0  0  0  0  0  0
   62.5228   48.0766   25.9665 H   0  0  0  0  0  0
   62.8165   49.0141   27.4023 H   0  0  0  0  0  0
   62.9094   45.9979   27.1253 H   0  0  0  0  0  0
   64.1035   47.1536   27.8483 H   0  0  0  0  0  0
   60.2019   46.0124   30.3275 H   0  0  0  0  0  0
   58.4104   47.1115   28.1467 H   0  0  0  0  0  0
   56.1397   46.9241   28.7608 H   0  0  0  0  0  0
   59.0059   44.1097   30.1390 H   0  0  0  0  0  0
   58.0037   44.6716   31.5095 H   0  0  0  0  0  0
   57.3875   43.6155   30.2112 H   0  0  0  0  0  0
   56.1476   44.2542   30.8869 H   0  0  0  0  0  0
  1  6  1  0  0  0
  1  9  1  0  0  0
  1  2  1  0  0  0
  1  5  1  0  0  0
  2  3  1  0  0  0
  2 28  1  0  0  0
  2 29  1  0  0  0
  3  4  1  0  0  0
  3 30  1  0  0  0
  3 31  1  0  0  0
  4  7  1  0  0  0
  4  8  1  0  0  0
  4 10  1  0  0  0
  5 32  1  0  0  0
  5 33  1  0  0  0
  5 34  1  0  0  0
  6 35  1  0  0  0
  6 36  1  0  0  0
  6 37  1  0  0  0
  7 38  1  0  0  0
  7 39  1  0  0  0
  7 40  1  0  0  0
  8 41  1  0  0  0
  8 42  1  0  0  0
  8 43  1  0  0  0
  9 14  1  0  0  0
  9 10  2  0  0  0
 10 11  1  0  0  0
 11 12  2  0  0  0
 11 44  1  0  0  0
 12 13  1  0  0  0
 12 45  1  0  0  0
 13 14  2  0  0  0
 13 15  1  0  0  0
 14 46  1  0  0  0
 15 16  1  0  0  0
 15 19  1  0  0  0
 16 17  1  0  0  0
 16 20  1  0  0  0
 16 47  1  0  0  0
 17 18  1  0  0  0
 17 48  1  0  0  0
 17 49  1  0  0  0
 18 19  1  0  0  0
 18 50  1  0  0  0
 18 51  1  0  0  0
 19 52  1  0  0  0
 19 53  1  0  0  0
 20 21  2  0  0  0
 20 54  1  0  0  0
 21 22  1  0  0  0
 21 55  1  0  0  0
 22 23  2  0  0  0
 22 24  1  0  0  0
 23 25  1  0  0  0
 23 56  1  0  0  0
 24 57  1  0  0  0
 24 58  1  0  0  0
 24 59  1  0  0  0
 25 26  2  0  0  0
 25 27  1  0  0  0
 27 60  1  0  0  0
M  END
> <s_m_entry_id>
30826

> <s_m_entry_name>
dock_pv.39

> <s_m_Source_Path>
/home/csk/Desktop/cluster/DUD-E-result/rxra

> <s_m_Source_File>
dock_pv.maegz

> <i_m_Source_File_Index>
39

> <chembl_id>
CHEMBL378926

> <chembl_pref_name>
None

> <i_lp_mmshare_version>
53161

> <r_lp_tautomer_probability>
1

> <s_lp_Force_Field>
OPLS_2005

> <r_lp_Energy>
48.670146

> <b_lp_Chiralities_Consistent>
1

> <s_lp_Variant>
CHEMBL2061_lig411-1

> <s_i_glide_gridfile>
glide-grid_1mv9

> <i_i_glide_lignum>
482

> <i_i_glide_rotatable_bonds>
5

> <r_i_docking_score>
-11.5990968912887

> <r_i_glide_ligand_efficiency>
-0.429596181158842

> <r_i_glide_ligand_efficiency_sa>
-1.28878854206065

> <r_i_glide_ligand_efficiency_ln>
-2.70007853023464

> <r_i_glide_gscore>
-11.5990968912887

> <r_i_glide_lipo>
-6.58868041714319

> <r_i_glide_hbond>
-0.144177126118564

> <r_i_glide_metal>
0

> <r_i_glide_rewards>
-2.28960143835918

> <r_i_glide_evdw>
-52.0426139831543

> <r_i_glide_ecoul>
-3.63233184814453

> <r_i_glide_erotb>
0.570342566711589

> <r_i_glide_esite>
0

> <r_i_glide_emodel>
-82.0432763833327

> <r_i_glide_energy>
-55.6749458312988

> <r_i_glide_einternal>
4.31386756896973

> <i_i_glide_confnum>
14

> <i_i_glide_posenum>
400

> <r_i_glide_eff_state_penalty>
0

> <s_user_duplicate_titles>
CHEMBL2061_lig411,345497

> <i_f3d_flags>
0

> <s_m_subgroup_title>
dock_pv

> <s_m_subgroupid>
dock_pv

> <b_m_subgroup_collapsed>
1

$$$$
CHEMBL2061_lig435
                    3D
 Schrodinger Suite 2021-1.
 59 61  0  0  1  0            999 V2000
   64.1143   46.9055   35.3560 C   0  0  0  0  0  0
   65.2005   45.8524   35.1094 C   0  0  0  0  0  0
   65.7416   45.7563   33.6619 C   0  0  0  0  0  0
   63.3896   47.2334   34.2463 N   0  0  0  0  0  0
   63.9458   47.3501   36.4932 O   0  0  0  0  0  0
   66.5671   44.4759   33.6006 C   0  0  0  0  0  0
   66.6299   46.9432   33.2675 C   0  0  0  0  0  0
   63.4879   46.6049   32.9655 C   0  0  0  0  0  0
   64.5736   45.7583   32.6807 C   0  0  0  0  0  0
   64.5854   45.0322   31.4823 C   0  0  0  0  0  0
   63.5755   45.1710   30.5379 C   0  0  0  0  0  0
   62.5597   46.1100   30.7576 C   0  0  0  0  0  0
   62.5459   46.8256   31.9514 C   0  0  0  0  0  0
   61.4718   46.3621   29.7873 C   0  0  0  0  0  0
   60.1633   46.0746   30.1778 C   0  0  0  0  0  0
   59.0831   46.2456   29.3181 C   0  0  0  0  0  0
   59.3435   46.7593   28.0474 C   0  0  0  0  0  0
   60.6423   47.0927   27.6499 C   0  0  0  0  0  0
   61.7307   46.8880   28.5137 C   0  0  0  0  0  0
   63.0655   47.0788   28.1874 O   0  0  0  0  0  0
   63.5244   48.0499   27.2514 C   0  0  0  0  0  0
   64.7766   47.7265   26.9341 F   0  0  0  0  0  0
   62.8353   48.0772   26.1389 F   0  0  0  0  0  0
   63.5370   49.2763   27.7390 F   0  0  0  0  0  0
   63.6061   44.2780   29.3062 C   0  0  0  0  0  0
   57.7394   45.8547   29.8047 C   0  0  0  0  0  0
   56.5494   46.0061   29.1786 C   0  0  0  0  0  0
   55.2919   45.5866   29.7575 C   0  0  0  0  0  0
   55.3952   44.4771   30.5446 O   0  0  0  0  0  0
   54.2271   46.1691   29.5655 O   0  0  0  0  0  0
   62.2498   48.1385   34.5307 C   0  0  0  0  0  0
   60.9979   47.4051   35.0757 C   0  0  0  0  0  0
   60.3997   46.3715   34.1107 C   0  0  0  0  0  0
   66.0071   46.0766   35.7967 H   0  0  0  0  0  0
   64.7668   44.9028   35.4276 H   0  0  0  0  0  0
   67.3239   44.4783   34.3849 H   0  0  0  0  0  0
   65.9656   43.5722   33.7068 H   0  0  0  0  0  0
   67.1074   44.4436   32.6591 H   0  0  0  0  0  0
   67.6063   46.8777   33.7387 H   0  0  0  0  0  0
   66.8077   46.8767   32.1942 H   0  0  0  0  0  0
   66.1828   47.9123   33.4864 H   0  0  0  0  0  0
   65.3972   44.3574   31.2597 H   0  0  0  0  0  0
   61.7488   47.5379   32.0744 H   0  0  0  0  0  0
   59.9947   45.6826   31.1699 H   0  0  0  0  0  0
   58.5406   46.8767   27.3394 H   0  0  0  0  0  0
   60.7674   47.4625   26.6470 H   0  0  0  0  0  0
   64.0143   43.2947   29.5447 H   0  0  0  0  0  0
   62.6084   44.0978   28.9031 H   0  0  0  0  0  0
   64.2261   44.7391   28.5397 H   0  0  0  0  0  0
   57.7472   45.4018   30.7876 H   0  0  0  0  0  0
   56.4661   46.4734   28.2097 H   0  0  0  0  0  0
   56.2755   44.0985   30.5113 H   0  0  0  0  0  0
   62.5537   48.8767   35.2716 H   0  0  0  0  0  0
   62.0081   48.7325   33.6517 H   0  0  0  0  0  0
   61.2426   46.9142   36.0187 H   0  0  0  0  0  0
   60.2419   48.1435   35.3382 H   0  0  0  0  0  0
   59.5925   45.8012   34.5389 H   0  0  0  0  0  0
   60.0092   46.8413   33.2111 H   0  0  0  0  0  0
   61.1396   45.6336   33.8233 H   0  0  0  0  0  0
  1  2  1  0  0  0
  1  4  1  0  0  0
  1  5  2  0  0  0
  2  3  1  0  0  0
  2 34  1  0  0  0
  2 35  1  0  0  0
  3  6  1  0  0  0
  3  7  1  0  0  0
  3  9  1  0  0  0
  4 31  1  0  0  0
  4  8  1  0  0  0
  6 36  1  0  0  0
  6 37  1  0  0  0
  6 38  1  0  0  0
  7 39  1  0  0  0
  7 40  1  0  0  0
  7 41  1  0  0  0
  8  9  2  0  0  0
  8 13  1  0  0  0
  9 10  1  0  0  0
 10 11  2  0  0  0
 10 42  1  0  0  0
 11 12  1  0  0  0
 11 25  1  0  0  0
 12 13  2  0  0  0
 12 14  1  0  0  0
 13 43  1  0  0  0
 14 15  2  0  0  0
 14 19  1  0  0  0
 15 16  1  0  0  0
 15 44  1  0  0  0
 16 17  2  0  0  0
 16 26  1  0  0  0
 17 18  1  0  0  0
 17 45  1  0  0  0
 18 19  2  0  0  0
 18 46  1  0  0  0
 19 20  1  0  0  0
 20 21  1  0  0  0
 21 22  1  0  0  0
 21 23  1  0  0  0
 21 24  1  0  0  0
 25 47  1  0  0  0
 25 48  1  0  0  0
 25 49  1  0  0  0
 26 27  2  0  0  0
 26 50  1  0  0  0
 27 28  1  0  0  0
 27 51  1  0  0  0
 28 29  1  0  0  0
 28 30  2  0  0  0
 29 52  1  0  0  0
 31 32  1  0  0  0
 31 53  1  0  0  0
 31 54  1  0  0  0
 32 33  1  0  0  0
 32 55  1  0  0  0
 32 56  1  0  0  0
 33 57  1  0  0  0
 33 58  1  0  0  0
 33 59  1  0  0  0
M  END
> <s_m_entry_id>
30827

> <s_m_entry_name>
dock_pv.40

> <s_m_Source_Path>
/home/csk/Desktop/cluster/DUD-E-result/rxra

> <s_m_Source_File>
dock_pv.maegz

> <i_m_Source_File_Index>
40

> <chembl_id>
CHEMBL246629

> <chembl_pref_name>
None

> <i_lp_mmshare_version>
53161

> <r_lp_tautomer_probability>
1

> <s_lp_Force_Field>
OPLS_2005

> <r_lp_Energy>
35.53884

> <b_lp_Chiralities_Consistent>
1

> <s_lp_Variant>
CHEMBL2061_lig435-1

> <s_i_glide_gridfile>
glide-grid_1mv9

> <i_i_glide_lignum>
506

> <i_i_glide_rotatable_bonds>
8

> <r_i_docking_score>
-11.5697349672864

> <r_i_glide_ligand_efficiency>
-0.350598029311709

> <r_i_glide_ligand_efficiency_sa>
-1.12455521373552

> <r_i_glide_ligand_efficiency_ln>
-2.57304915184287

> <r_i_glide_gscore>
-11.5697349672864

> <r_i_glide_lipo>
-6.03362427978355

> <r_i_glide_hbond>
-0.0446120726767378

> <r_i_glide_metal>
0

> <r_i_glide_rewards>
-2.96268102954545

> <r_i_glide_evdw>
-50.1079521179199

> <r_i_glide_ecoul>
-3.30800747871399

> <r_i_glide_erotb>
0.472781142422455

> <r_i_glide_esite>
0

> <r_i_glide_emodel>
-81.5886029723987

> <r_i_glide_energy>
-53.4159595966339

> <r_i_glide_einternal>
5.88379573822021

> <i_i_glide_confnum>
27

> <i_i_glide_posenum>
344

> <r_i_glide_eff_state_penalty>
0

> <s_user_duplicate_titles>
CHEMBL2061_lig435,414787

> <i_f3d_flags>
0

> <s_m_subgroup_title>
dock_pv

> <s_m_subgroupid>
dock_pv

> <b_m_subgroup_collapsed>
1

$$$$
CHEMBL2061_lig390
                    3D
 Schrodinger Suite 2021-1.
 58 61  0  0  1  0            999 V2000
   60.7668   46.7231   29.6469 C   0  0  0  0  0  0
   60.0193   46.6465   28.5031 C   0  0  0  0  0  0
   63.4861   46.5248   33.0356 C   0  0  0  0  0  0
   64.4059   45.5037   32.6752 C   0  0  0  0  0  0
   58.8177   46.0820   28.7163 O   0  0  0  0  0  0
   59.9550   46.1324   30.6312 C   0  0  0  0  0  0
   58.7391   45.8076   30.0385 C   0  0  0  0  0  0
   62.1134   47.4389   29.6349 C   0  0  1  0  0  0
   62.7880   47.1478   32.0032 C   0  0  0  0  0  0
   63.0245   46.8443   30.6692 C   0  0  0  0  0  0
   63.2199   46.9672   34.4948 C   0  0  0  0  0  0
   65.0919   44.6066   33.6978 C   0  0  0  0  0  0
   57.4551   45.3874   30.5379 C   0  0  0  0  0  0
   64.7141   45.3010   31.3248 C   0  0  0  0  0  0
   55.1014   44.8408   30.2293 C   0  0  0  0  0  0
   56.4085   45.1255   29.7338 C   0  0  0  0  0  0
   64.0328   45.9534   30.3256 C   0  0  0  0  0  0
   64.2577   46.3137   35.4323 C   0  0  0  0  0  0
   64.5120   44.8520   35.0994 C   0  0  0  0  0  0
   54.6358   45.2755   31.2795 O   0  0  0  0  0  0
   60.4138   47.0955   27.1423 C   0  0  0  0  0  0
   54.4072   44.0772   29.3473 O   0  0  0  0  0  0
   62.6917   47.4695   28.1898 C   0  0  0  0  0  0
   63.4566   48.4793   34.6275 C   0  0  0  0  0  0
   61.7772   46.5933   34.9068 C   0  0  0  0  0  0
   64.8083   43.1177   33.3394 C   0  0  0  0  0  0
   66.5941   44.9820   33.7177 C   0  0  0  0  0  0
   61.6559   48.0016   27.2062 C   0  0  0  0  0  0
   60.1909   46.0581   31.6826 H   0  0  0  0  0  0
   61.9580   48.4744   29.9392 H   0  0  0  0  0  0
   62.0288   47.8765   32.2456 H   0  0  0  0  0  0
   57.3780   45.3324   31.6164 H   0  0  0  0  0  0
   65.4650   44.5825   31.0309 H   0  0  0  0  0  0
   56.5109   45.1507   28.6586 H   0  0  0  0  0  0
   64.2766   45.7064   29.3061 H   0  0  0  0  0  0
   63.9704   46.4220   36.4789 H   0  0  0  0  0  0
   65.2083   46.8360   35.3392 H   0  0  0  0  0  0
   63.6076   44.2797   35.2877 H   0  0  0  0  0  0
   65.2588   44.4774   35.7659 H   0  0  0  0  0  0
   60.5835   46.2108   26.5394 H   0  0  0  0  0  0
   59.6083   47.6770   26.7525 H   0  0  0  0  0  0
   54.9311   43.7551   28.6053 H   0  0  0  0  0  0
   62.9749   46.4719   27.8531 H   0  0  0  0  0  0
   63.5938   48.0812   28.1408 H   0  0  0  0  0  0
   63.4683   48.8074   35.6688 H   0  0  0  0  0  0
   64.4063   48.7628   34.1729 H   0  0  0  0  0  0
   62.6832   49.0589   34.1264 H   0  0  0  0  0  0
   61.6384   46.6008   35.9888 H   0  0  0  0  0  0
   61.0515   47.2930   34.4907 H   0  0  0  0  0  0
   61.4840   45.6222   34.5295 H   0  0  0  0  0  0
   65.5864   42.4769   33.7390 H   0  0  0  0  0  0
   63.8456   42.7601   33.7069 H   0  0  0  0  0  0
   64.8073   42.9082   32.2722 H   0  0  0  0  0  0
   67.1314   44.4769   34.5170 H   0  0  0  0  0  0
   67.0782   44.6871   32.7913 H   0  0  0  0  0  0
   66.7601   46.0536   33.8413 H   0  0  0  0  0  0
   62.0987   48.0770   26.2122 H   0  0  0  0  0  0
   61.3667   49.0146   27.4934 H   0  0  0  0  0  0
  1  2  2  0  0  0
  1  6  1  0  0  0
  1  8  1  0  0  0
  2  5  1  0  0  0
  2 21  1  0  0  0
  3  9  2  0  0  0
  3 11  1  0  0  0
  3  4  1  0  0  0
  4 14  2  0  0  0
  4 12  1  0  0  0
  5  7  1  0  0  0
  6  7  2  0  0  0
  6 29  1  0  0  0
  7 13  1  0  0  0
  8 10  1  0  0  0
  8 23  1  0  0  0
  8 30  1  0  0  0
  9 10  1  0  0  0
  9 31  1  0  0  0
 10 17  2  0  0  0
 11 18  1  0  0  0
 11 24  1  0  0  0
 11 25  1  0  0  0
 12 19  1  0  0  0
 12 26  1  0  0  0
 12 27  1  0  0  0
 13 16  2  0  0  0
 13 32  1  0  0  0
 14 17  1  0  0  0
 14 33  1  0  0  0
 15 16  1  0  0  0
 15 20  2  0  0  0
 15 22  1  0  0  0
 16 34  1  0  0  0
 17 35  1  0  0  0
 18 19  1  0  0  0
 18 36  1  0  0  0
 18 37  1  0  0  0
 19 38  1  0  0  0
 19 39  1  0  0  0
 21 28  1  0  0  0
 21 40  1  0  0  0
 21 41  1  0  0  0
 22 42  1  0  0  0
 23 28  1  0  0  0
 23 43  1  0  0  0
 23 44  1  0  0  0
 24 45  1  0  0  0
 24 46  1  0  0  0
 24 47  1  0  0  0
 25 48  1  0  0  0
 25 49  1  0  0  0
 25 50  1  0  0  0
 26 51  1  0  0  0
 26 52  1  0  0  0
 26 53  1  0  0  0
 27 54  1  0  0  0
 27 55  1  0  0  0
 27 56  1  0  0  0
 28 57  1  0  0  0
 28 58  1  0  0  0
M  END
> <s_m_entry_id>
30828

> <s_m_entry_name>
dock_pv.41

> <s_m_Source_Path>
/home/csk/Desktop/cluster/DUD-E-result/rxra

> <s_m_Source_File>
dock_pv.maegz

> <i_m_Source_File_Index>
41

> <chembl_id>
CHEMBL62880

> <chembl_pref_name>
None

> <i_lp_mmshare_version>
53161

> <r_lp_tautomer_probability>
1

> <s_lp_Force_Field>
OPLS_2005

> <r_lp_Energy>
23.328209

> <b_lp_Chiralities_Consistent>
1

> <s_lp_Variant>
CHEMBL2061_lig390-2

> <s_i_glide_gridfile>
glide-grid_1mv9

> <i_i_glide_lignum>
451

> <i_i_glide_rotatable_bonds>
4

> <r_i_docking_score>
-11.568549137178

> <r_i_glide_ligand_efficiency>
-0.41316246918493

> <r_i_glide_ligand_efficiency_sa>
-1.25460459612634

> <r_i_glide_ligand_efficiency_ln>
-2.67036080822283

> <r_i_glide_gscore>
-11.568549137178

> <r_i_glide_lipo>
-6.72220876482338

> <r_i_glide_hbond>
-0.0800137693053975

> <r_i_glide_metal>
0

> <r_i_glide_rewards>
-2.05344260957892

> <r_i_glide_evdw>
-44.3138847351074

> <r_i_glide_ecoul>
-6.02005290985107

> <r_i_glide_erotb>
0.40581817976269

> <r_i_glide_esite>
0

> <r_i_glide_emodel>
-64.1048194579019

> <r_i_glide_energy>
-50.3339376449585

> <r_i_glide_einternal>
7.59708213806152

> <i_i_glide_confnum>
13

> <i_i_glide_posenum>
188

> <r_i_glide_eff_state_penalty>
0

> <s_user_duplicate_titles>
CHEMBL2061_lig390

> <i_f3d_flags>
0

> <s_m_subgroup_title>
dock_pv

> <s_m_subgroupid>
dock_pv

> <b_m_subgroup_collapsed>
1

$$$$
CHEMBL2061_lig401
                    3D
 Schrodinger Suite 2021-1.
 61 64  0  0  1  0            999 V2000
   60.8954   46.9423   29.4140 C   0  0  0  0  0  0
   58.7452   46.2270   29.5835 C   0  0  0  0  0  0
   59.9747   46.2936   30.2443 C   0  0  0  0  0  0
   60.1991   47.1561   28.2536 C   0  0  0  0  0  0
   58.9210   46.7249   28.3366 O   0  0  0  0  0  0
   63.2874   46.4770   33.0827 C   0  0  0  0  0  0
   64.4854   45.7390   32.8798 C   0  0  0  0  0  0
   57.4024   45.8280   29.9917 C   0  0  0  0  0  0
   62.3487   47.3986   29.5283 C   0  0  1  0  0  0
   62.6368   46.9791   31.9583 C   0  0  0  0  0  0
   63.0966   46.7506   30.6691 C   0  0  0  0  0  0
   56.3102   46.0222   29.2084 C   0  0  0  0  0  0
   62.7108   46.8145   34.4767 C   0  0  0  0  0  0
   65.3015   45.1732   34.0445 C   0  0  0  0  0  0
   64.9169   45.4875   31.5689 C   0  0  0  0  0  0
   64.2390   45.9831   30.4732 C   0  0  0  0  0  0
   63.4043   45.9725   35.5668 C   0  0  0  0  0  0
   64.9038   45.8715   35.3554 C   0  0  0  0  0  0
   60.8019   47.5146   26.9389 C   0  0  0  0  0  0
   63.0270   47.2863   28.1348 C   0  0  0  0  0  0
   57.3863   45.2770   31.4104 C   0  0  0  0  0  0
   62.9836   48.3075   34.7626 C   0  0  0  0  0  0
   61.2003   46.4770   34.5389 C   0  0  0  0  0  0
   65.0016   43.6769   34.1389 C   0  0  0  0  0  0
   66.8079   45.4505   33.8443 C   0  0  0  0  0  0
   62.2245   48.0770   27.1016 C   0  0  0  0  0  0
   54.9456   45.7140   29.5539 C   0  0  0  0  0  0
   54.7950   44.4771   30.1005 O   0  0  0  0  0  0
   54.0081   46.4770   29.3390 O   0  0  0  0  0  0
   60.1677   45.9680   31.2546 H   0  0  0  0  0  0
   62.3491   48.4647   29.7774 H   0  0  0  0  0  0
   61.7631   47.5995   32.0892 H   0  0  0  0  0  0
   56.4081   46.4757   28.2329 H   0  0  0  0  0  0
   65.8004   44.8969   31.3823 H   0  0  0  0  0  0
   64.6299   45.7746   29.4888 H   0  0  0  0  0  0
   62.9903   44.9698   35.6352 H   0  0  0  0  0  0
   63.2264   46.4173   36.5390 H   0  0  0  0  0  0
   65.3422   45.3726   36.2136 H   0  0  0  0  0  0
   65.3057   46.8771   35.3390 H   0  0  0  0  0  0
   60.8470   46.5146   26.5390 H   0  0  0  0  0  0
   60.1849   48.1597   26.3205 H   0  0  0  0  0  0
   63.0995   46.2426   27.8223 H   0  0  0  0  0  0
   64.0458   47.6751   28.1531 H   0  0  0  0  0  0
   57.7829   44.2609   31.4224 H   0  0  0  0  0  0
   57.9902   45.8855   32.0851 H   0  0  0  0  0  0
   56.3906   45.2770   31.8499 H   0  0  0  0  0  0
   62.6833   48.5850   35.7737 H   0  0  0  0  0  0
   64.0331   48.5723   34.6456 H   0  0  0  0  0  0
   62.4242   48.9419   34.0756 H   0  0  0  0  0  0
   60.8210   46.5144   35.5612 H   0  0  0  0  0  0
   60.6032   47.1829   33.9659 H   0  0  0  0  0  0
   60.9853   45.4854   34.1402 H   0  0  0  0  0  0
   65.6076   43.2770   34.9391 H   0  0  0  0  0  0
   63.9558   43.4496   34.3435 H   0  0  0  0  0  0
   65.2759   43.1417   33.2298 H   0  0  0  0  0  0
   67.3909   45.1987   34.7306 H   0  0  0  0  0  0
   67.2079   44.8463   33.0350 H   0  0  0  0  0  0
   67.0056   46.4973   33.6086 H   0  0  0  0  0  0
   62.7386   48.0764   26.1394 H   0  0  0  0  0  0
   62.1699   49.1243   27.4046 H   0  0  0  0  0  0
   55.6387   44.0199   30.1036 H   0  0  0  0  0  0
  1  3  1  0  0  0
  1  4  2  0  0  0
  1  9  1  0  0  0
  2  3  2  0  0  0
  2  8  1  0  0  0
  2  5  1  0  0  0
  3 30  1  0  0  0
  4  5  1  0  0  0
  4 19  1  0  0  0
  6 10  2  0  0  0
  6 13  1  0  0  0
  6  7  1  0  0  0
  7 15  2  0  0  0
  7 14  1  0  0  0
  8 12  2  0  0  0
  8 21  1  0  0  0
  9 11  1  0  0  0
  9 20  1  0  0  0
  9 31  1  0  0  0
 10 11  1  0  0  0
 10 32  1  0  0  0
 11 16  2  0  0  0
 12 27  1  0  0  0
 12 33  1  0  0  0
 13 17  1  0  0  0
 13 22  1  0  0  0
 13 23  1  0  0  0
 14 18  1  0  0  0
 14 24  1  0  0  0
 14 25  1  0  0  0
 15 16  1  0  0  0
 15 34  1  0  0  0
 16 35  1  0  0  0
 17 18  1  0  0  0
 17 36  1  0  0  0
 17 37  1  0  0  0
 18 38  1  0  0  0
 18 39  1  0  0  0
 19 26  1  0  0  0
 19 40  1  0  0  0
 19 41  1  0  0  0
 20 26  1  0  0  0
 20 42  1  0  0  0
 20 43  1  0  0  0
 21 44  1  0  0  0
 21 45  1  0  0  0
 21 46  1  0  0  0
 22 47  1  0  0  0
 22 48  1  0  0  0
 22 49  1  0  0  0
 23 50  1  0  0  0
 23 51  1  0  0  0
 23 52  1  0  0  0
 24 53  1  0  0  0
 24 54  1  0  0  0
 24 55  1  0  0  0
 25 56  1  0  0  0
 25 57  1  0  0  0
 25 58  1  0  0  0
 26 59  1  0  0  0
 26 60  1  0  0  0
 27 28  1  0  0  0
 27 29  2  0  0  0
 28 61  1  0  0  0
M  END
> <s_m_entry_id>
30829

> <s_m_entry_name>
dock_pv.42

> <s_m_Source_Path>
/home/csk/Desktop/cluster/DUD-E-result/rxra

> <s_m_Source_File>
dock_pv.maegz

> <i_m_Source_File_Index>
42

> <chembl_id>
CHEMBL2113737

> <chembl_pref_name>
None

> <i_lp_mmshare_version>
53161

> <r_lp_tautomer_probability>
1

> <s_lp_Force_Field>
OPLS_2005

> <r_lp_Energy>
29.597352

> <b_lp_Chiralities_Consistent>
1

> <s_lp_Variant>
CHEMBL2061_lig401-2

> <s_i_glide_gridfile>
glide-grid_1mv9

> <i_i_glide_lignum>
472

> <i_i_glide_rotatable_bonds>
4

> <r_i_docking_score>
-11.565000374901

> <r_i_glide_ligand_efficiency>
-0.398793116375896

> <r_i_glide_ligand_efficiency_sa>
-1.22521880003413

> <r_i_glide_ligand_efficiency_ln>
-2.64809182274625

> <r_i_glide_gscore>
-11.565000374901

> <r_i_glide_lipo>
-7.10511290084575

> <r_i_glide_hbond>
-0.0732357126732886

> <r_i_glide_metal>
0

> <r_i_glide_rewards>
-1.80117544954388

> <r_i_glide_evdw>
-50.8360710144043

> <r_i_glide_ecoul>
-2.82563591003418

> <r_i_glide_erotb>
0.380172625387294

> <r_i_glide_esite>
0

> <r_i_glide_emodel>
-71.694844711459

> <r_i_glide_energy>
-53.6617069244385

> <r_i_glide_einternal>
6.34209251403809

> <i_i_glide_confnum>
22

> <i_i_glide_posenum>
284

> <r_i_glide_eff_state_penalty>
0

> <s_user_duplicate_titles>
CHEMBL2061_lig401,96862

> <i_f3d_flags>
0

> <s_m_subgroup_title>
dock_pv

> <s_m_subgroupid>
dock_pv

> <b_m_subgroup_collapsed>
1

$$$$
CHEMBL2061_lig281
                    3D
 Schrodinger Suite 2021-1.
 54 56  0  0  1  0            999 V2000
   62.8872   46.5049   33.0825 C   0  0  0  0  0  0
   64.0589   45.8386   32.6281 C   0  0  0  0  0  0
   55.8770   45.5784   29.6028 C   0  0  0  0  0  0
   57.0420   45.2432   30.8343 S   0  0  0  0  0  0
   61.9637   46.4016   30.8054 C   0  0  0  0  0  0
   60.7612   46.5877   29.9673 C   0  0  0  0  0  0
   58.3247   45.8037   29.8107 C   0  0  0  0  0  0
   61.8843   46.7824   32.1446 C   0  0  0  0  0  0
   64.1499   45.5108   31.2630 C   0  0  0  0  0  0
   59.6583   45.8997   30.3346 C   0  0  0  0  0  0
   63.1293   45.7775   30.3518 C   0  0  0  0  0  0
   54.4919   45.4407   29.8749 C   0  0  0  0  0  0
   56.4811   45.9811   28.4243 C   0  0  0  0  0  0
   62.7031   46.9798   34.5469 C   0  0  0  0  0  0
   65.1885   45.3963   33.5923 C   0  0  0  0  0  0
   57.8700   46.0771   28.5386 C   0  0  0  0  0  0
   54.0082   44.5298   30.5392 O   0  0  0  0  0  0
   63.6568   46.2078   35.4894 C   0  0  0  0  0  0
   65.0817   46.1417   34.9449 C   0  0  0  0  0  0
   53.7865   46.4776   29.3390 O   0  0  0  0  0  0
   60.8440   47.5775   28.8134 C   0  0  0  0  0  0
   63.2778   45.2914   28.9164 C   0  0  0  0  0  0
   63.0462   48.4833   34.5880 C   0  0  0  0  0  0
   61.2676   46.7065   35.0681 C   0  0  0  0  0  0
   65.0461   43.8750   33.8439 C   0  0  0  0  0  0
   66.5755   45.7647   33.0165 C   0  0  0  0  0  0
   60.9844   47.2794   32.4708 H   0  0  0  0  0  0
   65.0203   44.9850   30.9029 H   0  0  0  0  0  0
   59.7437   45.2771   31.1987 H   0  0  0  0  0  0
   55.9493   46.1967   27.5089 H   0  0  0  0  0  0
   58.5127   46.3775   27.7262 H   0  0  0  0  0  0
   63.2928   45.1936   35.6572 H   0  0  0  0  0  0
   63.6719   46.6737   36.4760 H   0  0  0  0  0  0
   65.7231   45.6761   35.6907 H   0  0  0  0  0  0
   65.4579   47.1578   34.8387 H   0  0  0  0  0  0
   54.3818   47.0862   28.8939 H   0  0  0  0  0  0
   61.2585   47.0974   27.9280 H   0  0  0  0  0  0
   59.8668   47.9812   28.5536 H   0  0  0  0  0  0
   61.4845   48.4234   29.0725 H   0  0  0  0  0  0
   64.0148   44.4921   28.8368 H   0  0  0  0  0  0
   62.3407   44.8715   28.5483 H   0  0  0  0  0  0
   63.5684   46.1125   28.2601 H   0  0  0  0  0  0
   63.0566   48.8744   35.6065 H   0  0  0  0  0  0
   64.0151   48.6999   34.1409 H   0  0  0  0  0  0
   62.3128   49.0588   34.0226 H   0  0  0  0  0  0
   61.1935   46.9010   36.1383 H   0  0  0  0  0  0
   60.5207   47.3388   34.5935 H   0  0  0  0  0  0
   60.9619   45.6769   34.8983 H   0  0  0  0  0  0
   65.7834   43.5216   34.5637 H   0  0  0  0  0  0
   64.0593   43.6051   34.2204 H   0  0  0  0  0  0
   65.2043   43.3035   32.9297 H   0  0  0  0  0  0
   67.3673   45.5543   33.7377 H   0  0  0  0  0  0
   66.8079   45.1904   32.1207 H   0  0  0  0  0  0
   66.6396   46.8229   32.7572 H   0  0  0  0  0  0
  1  2  2  0  0  0
  1  8  1  0  0  0
  1 14  1  0  0  0
  2  9  1  0  0  0
  2 15  1  0  0  0
  3  4  1  0  0  0
  3 12  1  0  0  0
  3 13  2  0  0  0
  4  7  1  0  0  0
  5  8  2  0  0  0
  5  6  1  0  0  0
  5 11  1  0  0  0
  6 10  2  0  0  0
  6 21  1  0  0  0
  7 10  1  0  0  0
  7 16  2  0  0  0
  8 27  1  0  0  0
  9 11  2  0  0  0
  9 28  1  0  0  0
 10 29  1  0  0  0
 11 22  1  0  0  0
 12 17  2  0  0  0
 12 20  1  0  0  0
 13 16  1  0  0  0
 13 30  1  0  0  0
 14 18  1  0  0  0
 14 23  1  0  0  0
 14 24  1  0  0  0
 15 25  1  0  0  0
 15 26  1  0  0  0
 15 19  1  0  0  0
 16 31  1  0  0  0
 18 19  1  0  0  0
 18 32  1  0  0  0
 18 33  1  0  0  0
 19 34  1  0  0  0
 19 35  1  0  0  0
 20 36  1  0  0  0
 21 37  1  0  0  0
 21 38  1  0  0  0
 21 39  1  0  0  0
 22 40  1  0  0  0
 22 41  1  0  0  0
 22 42  1  0  0  0
 23 43  1  0  0  0
 23 44  1  0  0  0
 23 45  1  0  0  0
 24 46  1  0  0  0
 24 47  1  0  0  0
 24 48  1  0  0  0
 25 49  1  0  0  0
 25 50  1  0  0  0
 25 51  1  0  0  0
 26 52  1  0  0  0
 26 53  1  0  0  0
 26 54  1  0  0  0
M  END
> <s_m_entry_id>
30830

> <s_m_entry_name>
dock_pv.43

> <s_m_Source_Path>
/home/csk/Desktop/cluster/DUD-E-result/rxra

> <s_m_Source_File>
dock_pv.maegz

> <i_m_Source_File_Index>
43

> <chembl_id>
CHEMBL91718

> <chembl_pref_name>
None

> <i_lp_mmshare_version>
53161

> <r_lp_tautomer_probability>
1

> <s_lp_Force_Field>
OPLS_2005

> <r_lp_Energy>
26.170178

> <b_lp_Chiralities_Consistent>
1

> <s_lp_Variant>
CHEMBL2061_lig281-1

> <s_i_glide_gridfile>
glide-grid_1mv9

> <i_i_glide_lignum>
326

> <i_i_glide_rotatable_bonds>
4

> <r_i_docking_score>
-11.5412946007043

> <r_i_glide_ligand_efficiency>
-0.443895946180933

> <r_i_glide_ligand_efficiency_sa>
-1.31503999391481

> <r_i_glide_ligand_efficiency_ln>
-2.71043516689899

> <r_i_glide_gscore>
-11.5412946007043

> <r_i_glide_lipo>
-6.44459063457148

> <r_i_glide_hbond>
-0.32

> <r_i_glide_metal>
0

> <r_i_glide_rewards>
-2.24259221383005

> <r_i_glide_evdw>
-43.5654296875

> <r_i_glide_ecoul>
-5.21005058288574

> <r_i_glide_erotb>
0.425667319505131

> <r_i_glide_esite>
0

> <r_i_glide_emodel>
-72.1326114438534

> <r_i_glide_energy>
-48.7754802703857

> <r_i_glide_einternal>
7.77801752090454

> <i_i_glide_confnum>
30

> <i_i_glide_posenum>
47

> <r_i_glide_eff_state_penalty>
0

> <s_user_duplicate_titles>
CHEMBL2061_lig281,149526

> <i_f3d_flags>
0

> <s_m_subgroup_title>
dock_pv

> <s_m_subgroupid>
dock_pv

> <b_m_subgroup_collapsed>
1

$$$$
CHEMBL2061_lig401
                    3D
 Schrodinger Suite 2021-1.
 61 64  0  0  1  0            999 V2000
   60.7946   45.9528   28.9019 C   0  0  0  0  0  0
   58.5633   45.8973   29.3054 C   0  0  0  0  0  0
   59.7782   45.2772   29.5715 C   0  0  0  0  0  0
   60.1594   47.0174   28.2897 C   0  0  0  0  0  0
   58.8243   46.9911   28.5383 O   0  0  0  0  0  0
   63.0902   46.2903   32.5609 C   0  0  0  0  0  0
   64.4022   45.7402   32.6214 C   0  0  0  0  0  0
   57.1833   45.5682   29.6686 C   0  0  0  0  0  0
   62.3006   45.7197   28.8119 C   0  0  2  0  0  0
   62.4563   46.3260   31.3074 C   0  0  0  0  0  0
   63.0360   45.7924   30.1510 C   0  0  0  0  0  0
   56.1237   46.2723   29.2014 C   0  0  0  0  0  0
   62.3583   46.8686   33.8066 C   0  0  0  0  0  0
   65.1858   45.5973   33.9405 C   0  0  0  0  0  0
   64.9847   45.2543   31.4389 C   0  0  0  0  0  0
   64.3206   45.2754   30.2264 C   0  0  0  0  0  0
   63.0481   46.4023   35.1158 C   0  0  0  0  0  0
   64.5733   46.4881   35.0504 C   0  0  0  0  0  0
   60.8084   48.0809   27.4261 C   0  0  0  0  0  0
   62.9184   46.6537   27.7296 C   0  0  0  0  0  0
   57.1364   44.3653   30.6010 C   0  0  0  0  0  0
   62.4081   48.4083   33.7380 C   0  0  0  0  0  0
   60.8887   46.3800   33.8892 C   0  0  0  0  0  0
   65.1171   44.1210   34.3839 C   0  0  0  0  0  0
   66.6447   46.0663   33.7443 C   0  0  0  0  0  0
   62.3231   48.0754   27.7368 C   0  0  0  0  0  0
   54.7202   46.0772   29.4819 C   0  0  0  0  0  0
   53.9782   47.0854   28.9392 O   0  0  0  0  0  0
   54.2123   45.1713   30.1390 O   0  0  0  0  0  0
   59.9159   44.3718   30.1390 H   0  0  0  0  0  0
   62.4447   44.6855   28.4926 H   0  0  0  0  0  0
   61.4752   46.7671   31.2412 H   0  0  0  0  0  0
   56.3209   47.0923   28.5394 H   0  0  0  0  0  0
   65.9682   44.8126   31.4498 H   0  0  0  0  0  0
   64.8010   44.8674   29.3489 H   0  0  0  0  0  0
   62.7810   45.3727   35.3496 H   0  0  0  0  0  0
   62.6854   46.9882   35.9619 H   0  0  0  0  0  0
   64.9919   46.2180   36.0219 H   0  0  0  0  0  0
   64.8591   47.5297   34.9008 H   0  0  0  0  0  0
   60.6365   47.8749   26.3702 H   0  0  0  0  0  0
   60.4074   49.0736   27.6314 H   0  0  0  0  0  0
   62.7637   46.2120   26.7451 H   0  0  0  0  0  0
   64.0017   46.7109   27.8418 H   0  0  0  0  0  0
   57.7064   44.5727   31.5078 H   0  0  0  0  0  0
   56.1435   44.0665   30.9194 H   0  0  0  0  0  0
   57.5852   43.4984   30.1149 H   0  0  0  0  0  0
   61.8269   48.8607   34.5402 H   0  0  0  0  0  0
   63.4213   48.7941   33.8152 H   0  0  0  0  0  0
   62.0080   48.7826   32.7961 H   0  0  0  0  0  0
   60.4071   46.7470   34.7968 H   0  0  0  0  0  0
   60.2831   46.7355   33.0565 H   0  0  0  0  0  0
   60.8085   45.2947   33.9075 H   0  0  0  0  0  0
   65.6255   44.0033   35.3384 H   0  0  0  0  0  0
   64.0956   43.7565   34.4959 H   0  0  0  0  0  0
   65.6171   43.4620   33.6723 H   0  0  0  0  0  0
   67.1839   46.0667   34.6902 H   0  0  0  0  0  0
   67.2071   45.4046   33.0909 H   0  0  0  0  0  0
   66.7015   47.0747   33.3312 H   0  0  0  0  0  0
   62.8512   48.7128   27.0258 H   0  0  0  0  0  0
   62.4955   48.5068   28.7226 H   0  0  0  0  0  0
   54.5283   47.7333   28.4947 H   0  0  0  0  0  0
  1  3  1  0  0  0
  1  4  2  0  0  0
  1  9  1  0  0  0
  2  3  2  0  0  0
  2  8  1  0  0  0
  2  5  1  0  0  0
  3 30  1  0  0  0
  4  5  1  0  0  0
  4 19  1  0  0  0
  6 10  2  0  0  0
  6 13  1  0  0  0
  6  7  1  0  0  0
  7 15  2  0  0  0
  7 14  1  0  0  0
  8 12  2  0  0  0
  8 21  1  0  0  0
  9 11  1  0  0  0
  9 20  1  0  0  0
  9 31  1  0  0  0
 10 11  1  0  0  0
 10 32  1  0  0  0
 11 16  2  0  0  0
 12 27  1  0  0  0
 12 33  1  0  0  0
 13 17  1  0  0  0
 13 22  1  0  0  0
 13 23  1  0  0  0
 14 18  1  0  0  0
 14 24  1  0  0  0
 14 25  1  0  0  0
 15 16  1  0  0  0
 15 34  1  0  0  0
 16 35  1  0  0  0
 17 18  1  0  0  0
 17 36  1  0  0  0
 17 37  1  0  0  0
 18 38  1  0  0  0
 18 39  1  0  0  0
 19 26  1  0  0  0
 19 40  1  0  0  0
 19 41  1  0  0  0
 20 26  1  0  0  0
 20 42  1  0  0  0
 20 43  1  0  0  0
 21 44  1  0  0  0
 21 45  1  0  0  0
 21 46  1  0  0  0
 22 47  1  0  0  0
 22 48  1  0  0  0
 22 49  1  0  0  0
 23 50  1  0  0  0
 23 51  1  0  0  0
 23 52  1  0  0  0
 24 53  1  0  0  0
 24 54  1  0  0  0
 24 55  1  0  0  0
 25 56  1  0  0  0
 25 57  1  0  0  0
 25 58  1  0  0  0
 26 59  1  0  0  0
 26 60  1  0  0  0
 27 28  1  0  0  0
 27 29  2  0  0  0
 28 61  1  0  0  0
M  END
> <s_m_entry_id>
30831

> <s_m_entry_name>
dock_pv.44

> <s_m_Source_Path>
/home/csk/Desktop/cluster/DUD-E-result/rxra

> <s_m_Source_File>
dock_pv.maegz

> <i_m_Source_File_Index>
44

> <chembl_id>
CHEMBL2113737

> <chembl_pref_name>
None

> <i_lp_mmshare_version>
53161

> <r_lp_tautomer_probability>
1

> <s_lp_Force_Field>
OPLS_2005

> <r_lp_Energy>
29.597701

> <b_lp_Chiralities_Consistent>
1

> <s_lp_Variant>
CHEMBL2061_lig401-1

> <s_i_glide_gridfile>
glide-grid_1mv9

> <i_i_glide_lignum>
471

> <i_i_glide_rotatable_bonds>
4

> <r_i_docking_score>
-11.5275647932657

> <r_i_glide_ligand_efficiency>
-0.397502234250541

> <r_i_glide_ligand_efficiency_sa>
-1.22125280116488

> <r_i_glide_ligand_efficiency_ln>
-2.63952002383621

> <r_i_glide_gscore>
-11.5275647932657

> <r_i_glide_lipo>
-6.90907259256186

> <r_i_glide_hbond>
-0.0507016205226149

> <r_i_glide_metal>
0

> <r_i_glide_rewards>
-1.63274672727273

> <r_i_glide_evdw>
-53.9105033874512

> <r_i_glide_ecoul>
-4.09680604934692

> <r_i_glide_erotb>
0.380172625387294

> <r_i_glide_esite>
-0.00517040152119016

> <r_i_glide_emodel>
-90.9249684909549

> <r_i_glide_energy>
-58.0073094367981

> <r_i_glide_einternal>
1.68934512138367

> <i_i_glide_confnum>
50

> <i_i_glide_posenum>
79

> <r_i_glide_eff_state_penalty>
0

> <s_user_duplicate_titles>
CHEMBL2061_lig401

> <i_f3d_flags>
0

> <s_m_subgroup_title>
dock_pv

> <s_m_subgroupid>
dock_pv

> <b_m_subgroup_collapsed>
1

$$$$
CHEMBL2061_lig488
                    3D
 Schrodinger Suite 2021-1.
 55 58  0  0  1  0            999 V2000
   60.4404   46.6979   28.3995 C   0  0  0  0  0  0
   59.2889   46.6751   27.7988 N   0  0  0  0  0  0
   58.4187   46.2026   28.7336 C   0  0  0  0  0  0
   59.0883   45.8625   29.9371 C   0  0  0  0  0  0
   60.4321   46.1553   29.6802 N   0  0  0  0  0  0
   57.0260   46.0769   28.6273 C   0  0  0  0  0  0
   56.2994   45.6660   29.7471 C   0  0  0  0  0  0
   56.9791   45.2765   30.8997 C   0  0  0  0  0  0
   58.3655   45.3676   31.0350 C   0  0  0  0  0  0
   54.7930   45.6609   29.7390 C   0  0  0  0  0  0
   54.1230   44.8904   30.4278 O   0  0  0  0  0  0
   54.2363   46.6459   28.9757 O   0  0  0  0  0  0
   61.5129   46.5445   31.8357 C   0  0  0  0  0  0
   61.5586   46.0188   30.5401 C   0  0  0  0  0  0
   62.7048   45.3121   30.1417 C   0  0  0  0  0  0
   63.7745   45.2036   31.0264 C   0  0  0  0  0  0
   63.7451   45.7183   32.3324 C   0  0  0  0  0  0
   64.9455   45.4182   33.2723 C   0  0  0  0  0  0
   64.8511   46.2315   34.5895 C   0  0  0  0  0  0
   63.4316   46.2733   35.1597 C   0  0  0  0  0  0
   62.4211   46.9581   34.2010 C   0  0  0  0  0  0
   62.5681   46.3981   32.7598 C   0  0  0  0  0  0
   62.7255   48.4675   34.1760 C   0  0  0  0  0  0
   61.0153   46.6627   34.7845 C   0  0  0  0  0  0
   64.9164   43.9094   33.6282 C   0  0  0  0  0  0
   66.2773   45.8363   32.6020 C   0  0  0  0  0  0
   62.7975   44.5520   28.8212 C   0  0  0  0  0  0
   61.5409   47.2510   27.8127 N   0  0  0  0  0  0
   56.5293   46.3363   27.7076 H   0  0  0  0  0  0
   56.3989   44.9370   31.7391 H   0  0  0  0  0  0
   58.8080   45.1306   31.9860 H   0  0  0  0  0  0
   54.9123   47.2002   28.5820 H   0  0  0  0  0  0
   60.6240   47.0739   32.1395 H   0  0  0  0  0  0
   64.6360   44.6351   30.7095 H   0  0  0  0  0  0
   65.2033   47.2520   34.4375 H   0  0  0  0  0  0
   65.5294   45.8182   35.3388 H   0  0  0  0  0  0
   63.4472   46.7836   36.1243 H   0  0  0  0  0  0
   63.1125   45.2574   35.3863 H   0  0  0  0  0  0
   62.7295   48.8769   35.1851 H   0  0  0  0  0  0
   63.6979   48.6630   33.7419 H   0  0  0  0  0  0
   62.0081   49.0275   33.5799 H   0  0  0  0  0  0
   60.9718   46.8838   35.8526 H   0  0  0  0  0  0
   60.2402   47.2697   34.3234 H   0  0  0  0  0  0
   60.7283   45.6211   34.6503 H   0  0  0  0  0  0
   65.7148   43.6460   34.3216 H   0  0  0  0  0  0
   63.9743   43.6073   34.0861 H   0  0  0  0  0  0
   65.0493   43.2871   32.7440 H   0  0  0  0  0  0
   67.1150   45.7318   33.2933 H   0  0  0  0  0  0
   66.5151   45.2256   31.7312 H   0  0  0  0  0  0
   66.2535   46.8768   32.2743 H   0  0  0  0  0  0
   63.4209   43.6605   28.9254 H   0  0  0  0  0  0
   61.8225   44.1893   28.4956 H   0  0  0  0  0  0
   63.2274   45.1714   28.0376 H   0  0  0  0  0  0
   61.4831   47.6779   26.8999 H   0  0  0  0  0  0
   62.4328   47.2760   28.2859 H   0  0  0  0  0  0
  1  2  2  0  0  0
  1  5  1  0  0  0
  1 28  1  0  0  0
  2  3  1  0  0  0
  3  4  1  0  0  0
  3  6  2  0  0  0
  4  5  1  0  0  0
  4  9  2  0  0  0
  5 14  1  0  0  0
  6  7  1  0  0  0
  6 29  1  0  0  0
  7  8  2  0  0  0
  7 10  1  0  0  0
  8  9  1  0  0  0
  8 30  1  0  0  0
  9 31  1  0  0  0
 10 11  2  0  0  0
 10 12  1  0  0  0
 12 32  1  0  0  0
 13 14  1  0  0  0
 13 22  2  0  0  0
 13 33  1  0  0  0
 14 15  2  0  0  0
 15 16  1  0  0  0
 15 27  1  0  0  0
 16 17  2  0  0  0
 16 34  1  0  0  0
 17 18  1  0  0  0
 17 22  1  0  0  0
 18 19  1  0  0  0
 18 25  1  0  0  0
 18 26  1  0  0  0
 19 20  1  0  0  0
 19 35  1  0  0  0
 19 36  1  0  0  0
 20 21  1  0  0  0
 20 37  1  0  0  0
 20 38  1  0  0  0
 21 22  1  0  0  0
 21 23  1  0  0  0
 21 24  1  0  0  0
 23 39  1  0  0  0
 23 40  1  0  0  0
 23 41  1  0  0  0
 24 42  1  0  0  0
 24 43  1  0  0  0
 24 44  1  0  0  0
 25 45  1  0  0  0
 25 46  1  0  0  0
 25 47  1  0  0  0
 26 48  1  0  0  0
 26 49  1  0  0  0
 26 50  1  0  0  0
 27 51  1  0  0  0
 27 52  1  0  0  0
 27 53  1  0  0  0
 28 54  1  0  0  0
 28 55  1  0  0  0
M  END
> <s_m_entry_id>
30832

> <s_m_entry_name>
dock_pv.45

> <s_m_Source_Path>
/home/csk/Desktop/cluster/DUD-E-result/rxra

> <s_m_Source_File>
dock_pv.maegz

> <i_m_Source_File_Index>
45

> <chembl_id>
CHEMBL2332886

> <chembl_pref_name>
None

> <i_lp_mmshare_version>
53161

> <r_lp_tautomer_probability>
1

> <s_lp_Force_Field>
OPLS_2005

> <r_lp_Energy>
27.539639

> <b_lp_Chiralities_Consistent>
1

> <s_lp_Variant>
CHEMBL2061_lig488-1

> <s_i_glide_gridfile>
glide-grid_1mv9

> <i_i_glide_lignum>
577

> <i_i_glide_rotatable_bonds>
3

> <r_i_docking_score>
-11.5268398290532

> <r_i_glide_ligand_efficiency>
-0.411672851037613

> <r_i_glide_ligand_efficiency_sa>
-1.25008123809292

> <r_i_glide_ligand_efficiency_ln>
-2.66073307526911

> <r_i_glide_gscore>
-11.5268398290532

> <r_i_glide_lipo>
-5.75707976376162

> <r_i_glide_hbond>
-0.297397794881641

> <r_i_glide_metal>
0

> <r_i_glide_rewards>
-2.82195696694648

> <r_i_glide_evdw>
-46.3703308105469

> <r_i_glide_ecoul>
-4.0250039100647

> <r_i_glide_erotb>
0.271861823573631

> <r_i_glide_esite>
0

> <r_i_glide_emodel>
-78.7673388702874

> <r_i_glide_energy>
-50.3953347206116

> <r_i_glide_einternal>
8.05274391174316

> <i_i_glide_confnum>
11

> <i_i_glide_posenum>
23

> <r_i_glide_eff_state_penalty>
0

> <s_user_duplicate_titles>
CHEMBL2061_lig488

> <i_f3d_flags>
0

> <s_m_subgroup_title>
dock_pv

> <s_m_subgroupid>
dock_pv

> <b_m_subgroup_collapsed>
1

$$$$
CHEMBL2061_lig457
                    3D
 Schrodinger Suite 2021-1.
 59 62  0  0  1  0            999 V2000
   63.9656   46.9472   35.4696 C   0  0  0  0  0  0
   64.8334   45.6976   35.2558 C   0  0  0  0  0  0
   65.4296   45.5747   33.8228 C   0  0  0  0  0  0
   63.2067   47.2652   34.3883 N   0  0  0  0  0  0
   63.9732   47.5462   36.5390 O   0  0  0  0  0  0
   66.0699   44.1817   33.7474 C   0  0  0  0  0  0
   66.4822   46.6640   33.5391 C   0  0  0  0  0  0
   63.2203   46.5936   33.1386 C   0  0  0  0  0  0
   64.2956   45.7432   32.8080 C   0  0  0  0  0  0
   64.3117   45.1229   31.5528 C   0  0  0  0  0  0
   63.3035   45.3383   30.6211 C   0  0  0  0  0  0
   62.2568   46.2150   30.9409 C   0  0  0  0  0  0
   62.2196   46.8218   32.1892 C   0  0  0  0  0  0
   61.1812   46.5263   29.9896 C   0  0  0  0  0  0
   59.9445   45.9138   30.1501 C   0  0  0  0  0  0
   58.9396   46.0720   29.2115 C   0  0  0  0  0  0
   59.2080   46.8385   28.0908 C   0  0  0  0  0  0
   60.4081   47.5257   27.9400 C   0  0  0  0  0  0
   61.4020   47.3948   28.9178 C   0  0  0  0  0  0
   57.6125   45.3416   29.3407 C   0  0  1  0  0  0
   62.5993   48.0771   28.9212 O   0  0  0  0  0  0
   62.2410   48.3651   34.5733 C   0  0  0  0  0  0
   63.3745   44.5789   29.3011 C   0  0  0  0  0  0
   57.5093   44.0769   30.1398 C   0  0  0  0  0  0
   56.7832   45.3062   30.6295 C   0  0  2  0  0  0
   55.2511   45.2482   30.4768 C   0  0  0  0  0  0
   54.8080   44.6421   29.3390 O   0  0  0  0  0  0
   54.4993   45.6767   31.3390 O   0  0  0  0  0  0
   63.1162   48.6611   27.7327 C   0  0  0  0  0  0
   63.9240   47.6026   26.9925 C   0  0  0  0  0  0
   64.9381   47.2106   27.7390 F   0  0  0  0  0  0
   63.2071   46.5203   26.7268 F   0  0  0  0  0  0
   64.4192   48.0770   25.8576 F   0  0  0  0  0  0
   65.6080   45.7059   36.0166 H   0  0  0  0  0  0
   64.1922   44.8446   35.4841 H   0  0  0  0  0  0
   66.8043   44.0769   34.5391 H   0  0  0  0  0  0
   65.3486   43.3662   33.8207 H   0  0  0  0  0  0
   66.6363   44.0770   32.8325 H   0  0  0  0  0  0
   67.3718   46.4769   34.1381 H   0  0  0  0  0  0
   66.8023   46.6412   32.4976 H   0  0  0  0  0  0
   66.1211   47.6736   33.7391 H   0  0  0  0  0  0
   65.1261   44.4697   31.2802 H   0  0  0  0  0  0
   61.3936   47.4853   32.3941 H   0  0  0  0  0  0
   59.7762   45.2777   30.9939 H   0  0  0  0  0  0
   58.4478   46.8770   27.3390 H   0  0  0  0  0  0
   60.5310   48.1450   27.0668 H   0  0  0  0  0  0
   57.0418   45.3735   28.4123 H   0  0  0  0  0  0
   62.3378   48.8770   35.5306 H   0  0  0  0  0  0
   62.3607   49.1107   33.7851 H   0  0  0  0  0  0
   61.2221   47.9779   34.5389 H   0  0  0  0  0  0
   63.5616   43.5210   29.4911 H   0  0  0  0  0  0
   62.4569   44.6350   28.7160 H   0  0  0  0  0  0
   64.2038   44.9469   28.6992 H   0  0  0  0  0  0
   58.3558   43.6910   30.7063 H   0  0  0  0  0  0
   56.9193   43.2770   29.7387 H   0  0  0  0  0  0
   57.1460   45.8107   31.5262 H   0  0  0  0  0  0
   55.5194   44.2876   28.8016 H   0  0  0  0  0  0
   62.3650   49.1207   27.1003 H   0  0  0  0  0  0
   63.7889   49.4711   28.0114 H   0  0  0  0  0  0
  1  5  2  0  0  0
  1  2  1  0  0  0
  1  4  1  0  0  0
  2  3  1  0  0  0
  2 34  1  0  0  0
  2 35  1  0  0  0
  3  9  1  0  0  0
  3  6  1  0  0  0
  3  7  1  0  0  0
  4  8  1  0  0  0
  4 22  1  0  0  0
  6 36  1  0  0  0
  6 37  1  0  0  0
  6 38  1  0  0  0
  7 39  1  0  0  0
  7 40  1  0  0  0
  7 41  1  0  0  0
  8  9  2  0  0  0
  8 13  1  0  0  0
  9 10  1  0  0  0
 10 11  2  0  0  0
 10 42  1  0  0  0
 11 23  1  0  0  0
 11 12  1  0  0  0
 12 14  1  0  0  0
 12 13  2  0  0  0
 13 43  1  0  0  0
 14 19  1  0  0  0
 14 15  2  0  0  0
 15 16  1  0  0  0
 15 44  1  0  0  0
 16 17  2  0  0  0
 16 20  1  0  0  0
 17 18  1  0  0  0
 17 45  1  0  0  0
 18 19  2  0  0  0
 18 46  1  0  0  0
 19 21  1  0  0  0
 20 24  1  0  0  0
 20 25  1  0  0  0
 20 47  1  0  0  0
 21 29  1  0  0  0
 22 48  1  0  0  0
 22 49  1  0  0  0
 22 50  1  0  0  0
 23 51  1  0  0  0
 23 52  1  0  0  0
 23 53  1  0  0  0
 24 25  1  0  0  0
 24 54  1  0  0  0
 24 55  1  0  0  0
 25 26  1  0  0  0
 25 56  1  0  0  0
 26 27  1  0  0  0
 26 28  2  0  0  0
 27 57  1  0  0  0
 29 30  1  0  0  0
 29 58  1  0  0  0
 29 59  1  0  0  0
 30 31  1  0  0  0
 30 32  1  0  0  0
 30 33  1  0  0  0
M  END
> <s_m_entry_id>
30833

> <s_m_entry_name>
dock_pv.46

> <s_m_Source_Path>
/home/csk/Desktop/cluster/DUD-E-result/rxra

> <s_m_Source_File>
dock_pv.maegz

> <i_m_Source_File_Index>
46

> <chembl_id>
CHEMBL247400

> <chembl_pref_name>
None

> <i_lp_mmshare_version>
53161

> <r_lp_tautomer_probability>
1

> <s_lp_Force_Field>
OPLS_2005

> <r_lp_Energy>
41.989999

> <b_lp_Chiralities_Consistent>
1

> <s_lp_Variant>
CHEMBL2061_lig457-4

> <s_i_glide_gridfile>
glide-grid_1mv9

> <i_i_glide_lignum>
536

> <i_i_glide_rotatable_bonds>
7

> <r_i_docking_score>
-11.4963592336538

> <r_i_glide_ligand_efficiency>
-0.348374522231933

> <r_i_glide_ligand_efficiency_sa>
-1.11742323845246

> <r_i_glide_ligand_efficiency_ln>
-2.5567307686022

> <r_i_glide_gscore>
-11.4963592336538

> <r_i_glide_lipo>
-6.48215185279912

> <r_i_glide_hbond>
-0.15597426101712

> <r_i_glide_metal>
0

> <r_i_glide_rewards>
-2.44516781431537

> <r_i_glide_evdw>
-44.3626136779785

> <r_i_glide_ecoul>
-4.45143842697144

> <r_i_glide_erotb>
0.472781142422455

> <r_i_glide_esite>
0

> <r_i_glide_emodel>
-72.4039009121083

> <r_i_glide_energy>
-48.81405210495

> <r_i_glide_einternal>
5.66682004928589

> <i_i_glide_confnum>
99

> <i_i_glide_posenum>
314

> <r_i_glide_eff_state_penalty>
0

> <s_user_duplicate_titles>
CHEMBL2061_lig457,414669

> <i_f3d_flags>
0

> <s_m_subgroup_title>
dock_pv

> <s_m_subgroupid>
dock_pv

> <b_m_subgroup_collapsed>
1

$$$$
CHEMBL2061_lig315
                    3D
 Schrodinger Suite 2021-1.
 53 55  0  0  1  0            999 V2000
   55.9013   45.5221   29.5987 C   0  0  0  0  0  0
   62.8591   46.4775   33.0122 C   0  0  0  0  0  0
   64.0387   45.8029   32.5916 C   0  0  0  0  0  0
   57.0779   44.9094   30.7093 S   0  0  0  0  0  0
   58.3020   45.6572   29.7395 C   0  0  0  0  0  0
   57.8823   46.1116   28.5904 N   0  0  0  0  0  0
   61.9562   46.2883   30.7250 C   0  0  0  0  0  0
   60.7617   46.4127   29.8550 C   0  0  0  0  0  0
   56.5666   46.0711   28.5096 C   0  0  0  0  0  0
   61.8662   46.7246   32.0507 C   0  0  0  0  0  0
   59.6367   45.7897   30.2687 C   0  0  0  0  0  0
   64.1426   45.4250   31.2420 C   0  0  0  0  0  0
   54.5122   45.4199   29.8697 C   0  0  0  0  0  0
   63.1275   45.6441   30.3136 C   0  0  0  0  0  0
   62.6491   46.9687   34.4707 C   0  0  0  0  0  0
   65.1634   45.3918   33.5754 C   0  0  0  0  0  0
   54.0080   44.5227   30.5385 O   0  0  0  0  0  0
   63.5981   46.2174   35.4379 C   0  0  0  0  0  0
   65.0317   46.1510   34.9187 C   0  0  0  0  0  0
   53.8326   46.4769   29.3390 O   0  0  0  0  0  0
   60.8801   47.2638   28.5983 C   0  0  0  0  0  0
   63.2882   45.0729   28.9107 C   0  0  0  0  0  0
   62.9713   48.4778   34.5166 C   0  0  0  0  0  0
   61.2109   46.6722   34.9744 C   0  0  0  0  0  0
   65.0396   43.8719   33.8469 C   0  0  0  0  0  0
   66.5509   45.7724   33.0062 C   0  0  0  0  0  0
   56.0927   46.4739   27.6256 H   0  0  0  0  0  0
   60.9652   47.2358   32.3539 H   0  0  0  0  0  0
   59.6973   45.2774   31.2059 H   0  0  0  0  0  0
   65.0173   44.8856   30.9123 H   0  0  0  0  0  0
   63.2388   45.2033   35.6167 H   0  0  0  0  0  0
   63.6025   46.6980   36.4179 H   0  0  0  0  0  0
   65.6586   45.6909   35.6808 H   0  0  0  0  0  0
   65.4086   47.1673   34.8129 H   0  0  0  0  0  0
   54.4458   47.0689   28.8981 H   0  0  0  0  0  0
   61.2569   46.6691   27.7666 H   0  0  0  0  0  0
   59.9246   47.6883   28.2962 H   0  0  0  0  0  0
   61.5686   48.0940   28.7616 H   0  0  0  0  0  0
   64.0080   44.2552   28.8931 H   0  0  0  0  0  0
   62.3523   44.6457   28.5503 H   0  0  0  0  0  0
   63.6107   45.8460   28.2135 H   0  0  0  0  0  0
   62.9084   48.8757   35.5306 H   0  0  0  0  0  0
   63.9686   48.7017   34.1401 H   0  0  0  0  0  0
   62.2729   49.0424   33.8978 H   0  0  0  0  0  0
   61.1291   46.8297   36.0507 H   0  0  0  0  0  0
   60.4615   47.3148   34.5204 H   0  0  0  0  0  0
   60.9086   45.6487   34.7683 H   0  0  0  0  0  0
   65.7841   43.5375   34.5692 H   0  0  0  0  0  0
   64.0576   43.5946   34.2310 H   0  0  0  0  0  0
   65.2001   43.2899   32.9396 H   0  0  0  0  0  0
   67.3372   45.5904   33.7401 H   0  0  0  0  0  0
   66.8079   45.1853   32.1250 H   0  0  0  0  0  0
   66.6015   46.8268   32.7281 H   0  0  0  0  0  0
  1  4  1  0  0  0
  1  9  2  0  0  0
  1 13  1  0  0  0
  2 10  1  0  0  0
  2 15  1  0  0  0
  2  3  2  0  0  0
  3 12  1  0  0  0
  3 16  1  0  0  0
  4  5  1  0  0  0
  5 11  1  0  0  0
  5  6  2  0  0  0
  6  9  1  0  0  0
  7  8  1  0  0  0
  7 10  2  0  0  0
  7 14  1  0  0  0
  8 11  2  0  0  0
  8 21  1  0  0  0
  9 27  1  0  0  0
 10 28  1  0  0  0
 11 29  1  0  0  0
 12 14  2  0  0  0
 12 30  1  0  0  0
 13 17  2  0  0  0
 13 20  1  0  0  0
 14 22  1  0  0  0
 15 18  1  0  0  0
 15 23  1  0  0  0
 15 24  1  0  0  0
 16 19  1  0  0  0
 16 25  1  0  0  0
 16 26  1  0  0  0
 18 19  1  0  0  0
 18 31  1  0  0  0
 18 32  1  0  0  0
 19 33  1  0  0  0
 19 34  1  0  0  0
 20 35  1  0  0  0
 21 36  1  0  0  0
 21 37  1  0  0  0
 21 38  1  0  0  0
 22 39  1  0  0  0
 22 40  1  0  0  0
 22 41  1  0  0  0
 23 42  1  0  0  0
 23 43  1  0  0  0
 23 44  1  0  0  0
 24 45  1  0  0  0
 24 46  1  0  0  0
 24 47  1  0  0  0
 25 48  1  0  0  0
 25 49  1  0  0  0
 25 50  1  0  0  0
 26 51  1  0  0  0
 26 52  1  0  0  0
 26 53  1  0  0  0
M  END
> <s_m_entry_id>
30834

> <s_m_entry_name>
dock_pv.47

> <s_m_Source_Path>
/home/csk/Desktop/cluster/DUD-E-result/rxra

> <s_m_Source_File>
dock_pv.maegz

> <i_m_Source_File_Index>
47

> <chembl_id>
CHEMBL328481

> <chembl_pref_name>
None

> <i_lp_mmshare_version>
53161

> <r_lp_tautomer_probability>
1

> <s_lp_Force_Field>
OPLS_2005

> <r_lp_Energy>
26.240005

> <b_lp_Chiralities_Consistent>
1

> <s_lp_Variant>
CHEMBL2061_lig315-1

> <s_i_glide_gridfile>
glide-grid_1mv9

> <i_i_glide_lignum>
363

> <i_i_glide_rotatable_bonds>
4

> <r_i_docking_score>
-11.4871543219143

> <r_i_glide_ligand_efficiency>
-0.441813627765934

> <r_i_glide_ligand_efficiency_sa>
-1.3088711338039

> <r_i_glide_ligand_efficiency_ln>
-2.69772050007391

> <r_i_glide_gscore>
-11.4871543219143

> <r_i_glide_lipo>
-6.24704307118327

> <r_i_glide_hbond>
-0.32

> <r_i_glide_metal>
0

> <r_i_glide_rewards>
-2.25656426681514

> <r_i_glide_evdw>
-45.8044738769531

> <r_i_glide_ecoul>
-5.31306028366089

> <r_i_glide_erotb>
0.423635752480916

> <r_i_glide_esite>
0

> <r_i_glide_emodel>
-73.0386928738037

> <r_i_glide_energy>
-51.117534160614

> <r_i_glide_einternal>
6.32122802734375

> <i_i_glide_confnum>
20

> <i_i_glide_posenum>
314

> <r_i_glide_eff_state_penalty>
0

> <s_user_duplicate_titles>
CHEMBL2061_lig315,148932

> <i_f3d_flags>
0

> <s_m_subgroup_title>
dock_pv

> <s_m_subgroupid>
dock_pv

> <b_m_subgroup_collapsed>
1

$$$$
CHEMBL2061_lig122
                    3D
 Schrodinger Suite 2021-1.
 63 65  0  0  1  0            999 V2000
   62.9536   46.6775   31.2939 C   0  0  0  0  0  0
   58.7585   45.9887   29.8032 C   0  0  0  0  0  0
   61.0254   46.6543   29.6380 C   0  0  0  0  0  0
   59.9927   46.0771   30.4394 C   0  0  0  0  0  0
   58.8900   46.4770   28.1392 S   0  0  0  0  0  0
   64.0840   45.8614   31.5211 C   0  0  0  0  0  0
   62.3871   46.9194   29.9300 C   0  0  0  0  0  0
   64.5792   45.6739   32.8225 C   0  0  0  0  0  0
   60.5481   46.9310   28.3285 C   0  0  0  0  0  0
   62.3290   47.2719   32.3982 C   0  0  0  0  0  0
   57.4510   45.6091   30.3735 C   0  0  0  0  0  0
   63.9195   46.2715   33.8955 C   0  0  0  0  0  0
   62.7954   47.0661   33.6978 C   0  0  0  0  0  0
   56.3019   45.6056   29.6417 C   0  0  0  0  0  0
   54.9689   45.3203   30.1092 C   0  0  0  0  0  0
   54.6544   44.4762   30.9391 O   0  0  0  0  0  0
   65.7979   44.7926   33.1066 C   0  0  0  0  0  0
   62.0800   47.6721   34.8993 C   0  0  0  0  0  0
   64.7083   45.2217   30.4766 O   0  0  0  0  0  0
   54.0634   46.1310   29.4947 O   0  0  0  0  0  0
   63.2078   47.2767   28.8481 C   0  0  0  0  0  0
   61.3599   47.4628   27.3280 C   0  0  0  0  0  0
   57.5313   45.3035   31.8652 C   0  0  0  0  0  0
   62.7097   47.5860   27.5939 C   0  0  0  0  0  0
   65.3717   43.4636   33.7509 C   0  0  0  0  0  0
   66.8568   45.5132   33.9606 C   0  0  0  0  0  0
   64.1880   43.9299   30.1708 C   0  0  0  0  0  0
   63.0309   48.4768   35.8012 C   0  0  0  0  0  0
   61.3228   46.5963   35.6928 C   0  0  0  0  0  0
   63.3451   44.0851   28.9029 C   0  0  0  0  0  0
   62.6984   42.8396   28.3721 C   0  0  0  0  0  0
   60.1642   45.7906   31.4642 H   0  0  0  0  0  0
   61.4643   47.8974   32.2391 H   0  0  0  0  0  0
   64.2710   46.0984   34.9016 H   0  0  0  0  0  0
   56.3282   45.8478   28.5905 H   0  0  0  0  0  0
   66.2946   44.5576   32.1653 H   0  0  0  0  0  0
   61.3400   48.3834   34.5391 H   0  0  0  0  0  0
   54.5043   46.7147   28.8742 H   0  0  0  0  0  0
   64.2806   47.2769   28.9413 H   0  0  0  0  0  0
   60.9687   47.6794   26.3436 H   0  0  0  0  0  0
   58.0958   46.0639   32.4038 H   0  0  0  0  0  0
   56.5520   45.2953   32.3309 H   0  0  0  0  0  0
   58.0096   44.3382   32.0285 H   0  0  0  0  0  0
   63.3867   47.8881   26.8084 H   0  0  0  0  0  0
   64.7647   42.8605   33.0747 H   0  0  0  0  0  0
   66.2454   42.8768   34.0228 H   0  0  0  0  0  0
   64.7959   43.6223   34.6631 H   0  0  0  0  0  0
   67.2001   46.4274   33.4728 H   0  0  0  0  0  0
   66.4777   45.7872   34.9420 H   0  0  0  0  0  0
   67.7244   44.8748   34.1273 H   0  0  0  0  0  0
   65.0224   43.2486   30.0070 H   0  0  0  0  0  0
   63.6080   43.4928   30.9860 H   0  0  0  0  0  0
   63.6094   49.2023   35.2264 H   0  0  0  0  0  0
   62.4533   49.0310   36.5390 H   0  0  0  0  0  0
   63.7333   47.8415   36.3427 H   0  0  0  0  0  0
   60.5783   46.0969   35.0725 H   0  0  0  0  0  0
   61.9922   45.8313   36.0885 H   0  0  0  0  0  0
   60.8079   47.0438   36.5394 H   0  0  0  0  0  0
   62.4823   44.6819   29.1205 H   0  0  0  0  0  0
   63.9124   44.6037   28.1391 H   0  0  0  0  0  0
   62.1110   43.0426   27.4756 H   0  0  0  0  0  0
   63.4355   42.0769   28.1389 H   0  0  0  0  0  0
   62.0122   42.4770   29.1356 H   0  0  0  0  0  0
  1  6  1  0  0  0
  1  7  1  0  0  0
  1 10  2  0  0  0
  2  4  2  0  0  0
  2 11  1  0  0  0
  2  5  1  0  0  0
  3  7  1  0  0  0
  3  4  1  0  0  0
  3  9  2  0  0  0
  4 32  1  0  0  0
  5  9  1  0  0  0
  6  8  2  0  0  0
  6 19  1  0  0  0
  7 21  2  0  0  0
  8 17  1  0  0  0
  8 12  1  0  0  0
  9 22  1  0  0  0
 10 13  1  0  0  0
 10 33  1  0  0  0
 11 14  2  0  0  0
 11 23  1  0  0  0
 12 13  2  0  0  0
 12 34  1  0  0  0
 13 18  1  0  0  0
 14 15  1  0  0  0
 14 35  1  0  0  0
 15 16  2  0  0  0
 15 20  1  0  0  0
 17 25  1  0  0  0
 17 26  1  0  0  0
 17 36  1  0  0  0
 18 28  1  0  0  0
 18 29  1  0  0  0
 18 37  1  0  0  0
 19 27  1  0  0  0
 20 38  1  0  0  0
 21 24  1  0  0  0
 21 39  1  0  0  0
 22 24  2  0  0  0
 22 40  1  0  0  0
 23 41  1  0  0  0
 23 42  1  0  0  0
 23 43  1  0  0  0
 24 44  1  0  0  0
 25 45  1  0  0  0
 25 46  1  0  0  0
 25 47  1  0  0  0
 26 48  1  0  0  0
 26 49  1  0  0  0
 26 50  1  0  0  0
 27 30  1  0  0  0
 27 51  1  0  0  0
 27 52  1  0  0  0
 28 53  1  0  0  0
 28 54  1  0  0  0
 28 55  1  0  0  0
 29 56  1  0  0  0
 29 57  1  0  0  0
 29 58  1  0  0  0
 30 31  1  0  0  0
 30 59  1  0  0  0
 30 60  1  0  0  0
 31 61  1  0  0  0
 31 62  1  0  0  0
 31 63  1  0  0  0
M  END
> <s_m_entry_id>
30835

> <s_m_entry_name>
dock_pv.48

> <s_m_Source_Path>
/home/csk/Desktop/cluster/DUD-E-result/rxra

> <s_m_Source_File>
dock_pv.maegz

> <i_m_Source_File_Index>
48

> <chembl_id>
CHEMBL41742

> <chembl_pref_name>
None

> <i_lp_mmshare_version>
53161

> <r_lp_tautomer_probability>
1

> <s_lp_Force_Field>
OPLS_2005

> <r_lp_Energy>
31.107949

> <b_lp_Chiralities_Consistent>
1

> <s_lp_Variant>
CHEMBL2061_lig122-1

> <s_i_glide_gridfile>
glide-grid_1mv9

> <i_i_glide_lignum>
161

> <i_i_glide_rotatable_bonds>
9

> <r_i_docking_score>
-11.4714003892938

> <r_i_glide_ligand_efficiency>
-0.370045173848186

> <r_i_glide_ligand_efficiency_sa>
-1.16245274830688

> <r_i_glide_ligand_efficiency_ln>
-2.58715234398737

> <r_i_glide_gscore>
-11.4714003892938

> <r_i_glide_lipo>
-7.28964120645219

> <r_i_glide_hbond>
-0.210842743687604

> <r_i_glide_metal>
0

> <r_i_glide_rewards>
-1.59716468937597

> <r_i_glide_evdw>
-49.3022079467773

> <r_i_glide_ecoul>
-2.87670230865479

> <r_i_glide_erotb>
0.52286399385909

> <r_i_glide_esite>
0

> <r_i_glide_emodel>
-81.7813964398493

> <r_i_glide_energy>
-52.1789102554321

> <r_i_glide_einternal>
3.99464225769043

> <i_i_glide_confnum>
59

> <i_i_glide_posenum>
1

> <r_i_glide_eff_state_penalty>
0

> <s_user_duplicate_titles>
CHEMBL2061_lig122,60432

> <i_f3d_flags>
0

> <s_m_subgroup_title>
dock_pv

> <s_m_subgroupid>
dock_pv

> <b_m_subgroup_collapsed>
1

$$$$
CHEMBL2061_lig341
                    3D
 Schrodinger Suite 2021-1.
 59 61  0  0  1  0            999 V2000
   62.5670   46.5953   30.0515 C   0  0  0  0  0  0
   63.1388   46.4466   31.4084 C   0  0  0  0  0  0
   63.2972   46.8770   28.9905 N   0  0  0  0  0  0
   61.1975   46.4431   29.7097 C   0  0  0  0  0  0
   64.2539   45.6379   31.6640 C   0  0  0  0  0  0
   64.7525   45.5518   32.9747 C   0  0  0  0  0  0
   62.4886   47.1002   32.4598 C   0  0  0  0  0  0
   62.4279   47.0310   27.9057 O   0  0  0  0  0  0
   60.0091   46.0769   30.3564 C   0  0  0  0  0  0
   64.0942   46.2214   34.0117 C   0  0  0  0  0  0
   62.9637   46.9982   33.7657 C   0  0  0  0  0  0
   57.5071   45.6561   30.3054 C   0  0  0  0  0  0
   56.4041   45.3505   29.5615 C   0  0  0  0  0  0
   58.7958   46.0683   29.6432 C   0  0  0  0  0  0
   61.1725   46.7690   28.3578 C   0  0  0  0  0  0
   55.0801   45.0613   30.0532 C   0  0  0  0  0  0
   58.8293   46.4505   28.2913 C   0  0  0  0  0  0
   54.5088   45.6765   30.9470 O   0  0  0  0  0  0
   60.0027   46.7988   27.6213 C   0  0  0  0  0  0
   65.9809   44.7111   33.2993 C   0  0  0  0  0  0
   64.8511   44.9471   30.6305 O   0  0  0  0  0  0
   62.2426   47.7180   34.9022 C   0  0  0  0  0  0
   54.4711   44.0770   29.3390 O   0  0  0  0  0  0
   57.5227   45.6107   31.8413 C   0  0  0  0  0  0
   65.5546   43.4000   33.9731 C   0  0  0  0  0  0
   67.0159   45.4792   34.1388 C   0  0  0  0  0  0
   64.4076   43.6018   30.4387 C   0  0  0  0  0  0
   63.2031   48.3993   35.8947 C   0  0  0  0  0  0
   61.2647   46.7767   35.6216 C   0  0  0  0  0  0
   63.3525   43.5100   29.3307 C   0  0  0  0  0  0
   61.6162   47.7066   32.2591 H   0  0  0  0  0  0
   60.0495   45.7984   31.3977 H   0  0  0  0  0  0
   64.4538   46.1232   35.0246 H   0  0  0  0  0  0
   56.4429   45.3155   28.4860 H   0  0  0  0  0  0
   57.9183   46.4769   27.7280 H   0  0  0  0  0  0
   60.0191   47.0708   26.5797 H   0  0  0  0  0  0
   66.4919   44.4771   32.3665 H   0  0  0  0  0  0
   61.6557   48.5237   34.4591 H   0  0  0  0  0  0
   55.0225   43.6632   28.6641 H   0  0  0  0  0  0
   58.0081   44.6876   32.1584 H   0  0  0  0  0  0
   58.0798   46.4275   32.2940 H   0  0  0  0  0  0
   56.5380   45.6453   32.2969 H   0  0  0  0  0  0
   64.8439   42.8362   33.3721 H   0  0  0  0  0  0
   66.4080   42.7531   34.1390 H   0  0  0  0  0  0
   65.0864   43.5875   34.9389 H   0  0  0  0  0  0
   67.3175   46.3987   33.6366 H   0  0  0  0  0  0
   66.6256   45.7587   35.1143 H   0  0  0  0  0  0
   67.9087   44.8777   34.3074 H   0  0  0  0  0  0
   65.2742   43.0122   30.1393 H   0  0  0  0  0  0
   64.0229   43.1423   31.3500 H   0  0  0  0  0  0
   63.9703   48.9830   35.3836 H   0  0  0  0  0  0
   62.6464   49.0785   36.5389 H   0  0  0  0  0  0
   63.7088   47.6801   36.5398 H   0  0  0  0  0  0
   60.4695   46.4461   34.9517 H   0  0  0  0  0  0
   61.7685   45.8888   36.0054 H   0  0  0  0  0  0
   60.8080   47.2835   36.4703 H   0  0  0  0  0  0
   63.1726   42.4773   29.0385 H   0  0  0  0  0  0
   62.4009   43.9237   29.6543 H   0  0  0  0  0  0
   63.6600   44.0612   28.4453 H   0  0  0  0  0  0
  1  2  1  0  0  0
  1  3  2  0  0  0
  1  4  1  0  0  0
  2  5  1  0  0  0
  2  7  2  0  0  0
  3  8  1  0  0  0
  4  9  1  0  0  0
  4 15  2  0  0  0
  5  6  2  0  0  0
  5 21  1  0  0  0
  6 20  1  0  0  0
  6 10  1  0  0  0
  7 11  1  0  0  0
  7 31  1  0  0  0
  8 15  1  0  0  0
  9 14  2  0  0  0
  9 32  1  0  0  0
 10 11  2  0  0  0
 10 33  1  0  0  0
 11 22  1  0  0  0
 12 14  1  0  0  0
 12 13  2  0  0  0
 12 24  1  0  0  0
 13 16  1  0  0  0
 13 34  1  0  0  0
 14 17  1  0  0  0
 15 19  1  0  0  0
 16 18  2  0  0  0
 16 23  1  0  0  0
 17 19  2  0  0  0
 17 35  1  0  0  0
 19 36  1  0  0  0
 20 25  1  0  0  0
 20 26  1  0  0  0
 20 37  1  0  0  0
 21 27  1  0  0  0
 22 28  1  0  0  0
 22 29  1  0  0  0
 22 38  1  0  0  0
 23 39  1  0  0  0
 24 40  1  0  0  0
 24 41  1  0  0  0
 24 42  1  0  0  0
 25 43  1  0  0  0
 25 44  1  0  0  0
 25 45  1  0  0  0
 26 46  1  0  0  0
 26 47  1  0  0  0
 26 48  1  0  0  0
 27 30  1  0  0  0
 27 49  1  0  0  0
 27 50  1  0  0  0
 28 51  1  0  0  0
 28 52  1  0  0  0
 28 53  1  0  0  0
 29 54  1  0  0  0
 29 55  1  0  0  0
 29 56  1  0  0  0
 30 57  1  0  0  0
 30 58  1  0  0  0
 30 59  1  0  0  0
M  END
> <s_m_entry_id>
30836

> <s_m_entry_name>
dock_pv.49

> <s_m_Source_Path>
/home/csk/Desktop/cluster/DUD-E-result/rxra

> <s_m_Source_File>
dock_pv.maegz

> <i_m_Source_File_Index>
49

> <chembl_id>
CHEMBL328507

> <chembl_pref_name>
None

> <i_lp_mmshare_version>
53161

> <r_lp_tautomer_probability>
1

> <s_lp_Force_Field>
OPLS_2005

> <r_lp_Energy>
39.414221

> <b_lp_Chiralities_Consistent>
1

> <s_lp_Variant>
CHEMBL2061_lig341-1

> <s_i_glide_gridfile>
glide-grid_1mv9

> <i_i_glide_lignum>
401

> <i_i_glide_rotatable_bonds>
8

> <r_i_docking_score>
-11.4560820633675

> <r_i_glide_ligand_efficiency>
-0.381869402112249

> <r_i_glide_ligand_efficiency_sa>
-1.18655701792711

> <r_i_glide_ligand_efficiency_ln>
-2.60294666880879

> <r_i_glide_gscore>
-11.4560820633675

> <r_i_glide_lipo>
-6.63012802151877

> <r_i_glide_hbond>
-0.16

> <r_i_glide_metal>
0

> <r_i_glide_rewards>
-1.82741493516877

> <r_i_glide_evdw>
-46.4625053405762

> <r_i_glide_ecoul>
-6.59522008895874

> <r_i_glide_erotb>
0.473869173692688

> <r_i_glide_esite>
0

> <r_i_glide_emodel>
-80.5688583553489

> <r_i_glide_energy>
-53.0577254295349

> <r_i_glide_einternal>
7.22480249404907

> <i_i_glide_confnum>
46

> <i_i_glide_posenum>
114

> <r_i_glide_eff_state_penalty>
0

> <s_user_duplicate_titles>
CHEMBL2061_lig341,151285

> <i_f3d_flags>
0

> <s_m_subgroup_title>
dock_pv

> <s_m_subgroupid>
dock_pv

> <b_m_subgroup_collapsed>
1

$$$$
CHEMBL2061_lig407
                    3D
 Schrodinger Suite 2021-1.
 61 63  0  0  1  0            999 V2000
   63.1598   46.4744   33.0201 C   0  0  0  0  0  0
   64.2521   45.6024   32.7487 C   0  0  0  0  0  0
   62.4051   46.9372   31.9285 C   0  0  0  0  0  0
   62.6715   46.5449   30.6172 C   0  0  0  0  0  0
   62.8161   46.9814   34.4475 C   0  0  0  0  0  0
   65.2104   45.1024   33.8476 C   0  0  0  0  0  0
   59.7735   45.7289   29.3893 C   0  0  0  0  0  0
   64.4497   45.1599   31.4316 C   0  0  0  0  0  0
   56.1329   45.8009   29.2341 C   0  0  0  0  0  0
   54.8199   45.5361   29.7779 C   0  0  0  0  0  0
   58.5010   45.8293   28.9544 C   0  0  0  0  0  0
   61.9079   47.1595   29.4523 C   0  0  2  0  0  0
   57.3314   45.3435   29.6746 C   0  0  0  0  0  0
   63.6736   45.6124   30.3805 C   0  0  0  0  0  0
   61.0241   46.1876   28.6530 C   0  0  2  0  0  0
   63.6231   46.2143   35.5244 C   0  0  0  0  0  0
   65.0732   45.9767   35.1139 C   0  0  0  0  0  0
   54.4940   44.6278   30.5386 O   0  0  0  0  0  0
   53.9413   46.4775   29.3390 O   0  0  0  0  0  0
   62.8199   47.8107   28.3924 C   0  0  0  0  0  0
   63.1974   48.4767   34.5369 C   0  0  0  0  0  0
   61.3194   46.7299   34.7700 C   0  0  0  0  0  0
   64.8533   43.6411   34.1685 C   0  0  0  0  0  0
   66.6839   45.2475   33.3966 C   0  0  0  0  0  0
   62.1761   47.5500   27.0355 C   0  0  0  0  0  0
   60.8075   46.9265   27.3283 C   0  0  0  0  0  0
   57.5136   44.3514   30.8225 C   0  0  0  0  0  0
   61.6134   47.6489   32.1034 H   0  0  0  0  0  0
   59.9716   45.2779   30.3498 H   0  0  0  0  0  0
   65.2346   44.4559   31.2023 H   0  0  0  0  0  0
   56.1244   46.4674   28.3829 H   0  0  0  0  0  0
   58.3413   46.3040   27.9974 H   0  0  0  0  0  0
   61.2426   47.9384   29.8352 H   0  0  0  0  0  0
   63.8835   45.2662   29.3781 H   0  0  0  0  0  0
   61.5893   45.2793   28.4363 H   0  0  0  0  0  0
   63.1620   45.2513   35.7438 H   0  0  0  0  0  0
   63.6077   46.7534   36.4730 H   0  0  0  0  0  0
   65.6076   45.5305   35.9483 H   0  0  0  0  0  0
   65.5512   46.9381   34.9389 H   0  0  0  0  0  0
   54.3968   47.1073   28.7777 H   0  0  0  0  0  0
   62.9416   48.8769   28.5404 H   0  0  0  0  0  0
   63.8141   47.3591   28.3656 H   0  0  0  0  0  0
   63.0673   48.8682   35.5470 H   0  0  0  0  0  0
   64.2362   48.6445   34.2506 H   0  0  0  0  0  0
   62.5812   49.0823   33.8714 H   0  0  0  0  0  0
   61.0783   47.0359   35.7879 H   0  0  0  0  0  0
   60.6506   47.2766   34.1105 H   0  0  0  0  0  0
   61.0559   45.6773   34.6750 H   0  0  0  0  0  0
   65.5224   43.2771   34.9393 H   0  0  0  0  0  0
   63.8280   43.5125   34.5146 H   0  0  0  0  0  0
   64.9881   42.9907   33.3020 H   0  0  0  0  0  0
   67.3766   45.0234   34.2096 H   0  0  0  0  0  0
   66.9134   44.5525   32.5915 H   0  0  0  0  0  0
   66.9041   46.2572   33.0422 H   0  0  0  0  0  0
   62.1117   48.4714   26.4616 H   0  0  0  0  0  0
   62.8083   46.8455   26.4983 H   0  0  0  0  0  0
   60.4334   46.2732   26.5391 H   0  0  0  0  0  0
   60.0678   47.7195   27.4495 H   0  0  0  0  0  0
   58.3470   43.6801   30.6083 H   0  0  0  0  0  0
   57.7275   44.8713   31.7562 H   0  0  0  0  0  0
   56.6694   43.6778   30.9390 H   0  0  0  0  0  0
  1  2  2  0  0  0
  1  3  1  0  0  0
  1  5  1  0  0  0
  2  6  1  0  0  0
  2  8  1  0  0  0
  3  4  2  0  0  0
  3 28  1  0  0  0
  4 12  1  0  0  0
  4 14  1  0  0  0
  5 16  1  0  0  0
  5 21  1  0  0  0
  5 22  1  0  0  0
  6 23  1  0  0  0
  6 24  1  0  0  0
  6 17  1  0  0  0
  7 15  1  0  0  0
  7 11  2  0  0  0
  7 29  1  0  0  0
  8 14  2  0  0  0
  8 30  1  0  0  0
  9 13  2  0  0  0
  9 10  1  0  0  0
  9 31  1  0  0  0
 10 18  2  0  0  0
 10 19  1  0  0  0
 11 13  1  0  0  0
 11 32  1  0  0  0
 12 15  1  0  0  0
 12 20  1  0  0  0
 12 33  1  0  0  0
 13 27  1  0  0  0
 14 34  1  0  0  0
 15 26  1  0  0  0
 15 35  1  0  0  0
 16 17  1  0  0  0
 16 36  1  0  0  0
 16 37  1  0  0  0
 17 38  1  0  0  0
 17 39  1  0  0  0
 19 40  1  0  0  0
 20 25  1  0  0  0
 20 41  1  0  0  0
 20 42  1  0  0  0
 21 43  1  0  0  0
 21 44  1  0  0  0
 21 45  1  0  0  0
 22 46  1  0  0  0
 22 47  1  0  0  0
 22 48  1  0  0  0
 23 49  1  0  0  0
 23 50  1  0  0  0
 23 51  1  0  0  0
 24 52  1  0  0  0
 24 53  1  0  0  0
 24 54  1  0  0  0
 25 26  1  0  0  0
 25 55  1  0  0  0
 25 56  1  0  0  0
 26 57  1  0  0  0
 26 58  1  0  0  0
 27 59  1  0  0  0
 27 60  1  0  0  0
 27 61  1  0  0  0
M  END
> <s_m_entry_id>
30837

> <s_m_entry_name>
dock_pv.50

> <s_m_Source_Path>
/home/csk/Desktop/cluster/DUD-E-result/rxra

> <s_m_Source_File>
dock_pv.maegz

> <i_m_Source_File_Index>
50

> <chembl_id>
CHEMBL80236

> <chembl_pref_name>
None

> <i_lp_mmshare_version>
53161

> <r_lp_tautomer_probability>
1

> <s_lp_Force_Field>
OPLS_2005

> <r_lp_Energy>
40.432628

> <b_lp_Chiralities_Consistent>
1

> <s_lp_Variant>
CHEMBL2061_lig407-1

> <s_i_glide_gridfile>
glide-grid_1mv9

> <i_i_glide_lignum>
478

> <i_i_glide_rotatable_bonds>
5

> <r_i_docking_score>
-11.4471812877134

> <r_i_glide_ligand_efficiency>
-0.423969677322718

> <r_i_glide_ligand_efficiency_sa>
-1.27190903057082

> <r_i_glide_ligand_efficiency_ln>
-2.66471508224676

> <r_i_glide_gscore>
-11.4471812877134

> <r_i_glide_lipo>
-6.87926449998112

> <r_i_glide_hbond>
-0.176592546971133

> <r_i_glide_metal>
0

> <r_i_glide_rewards>
-2.06988315005451

> <r_i_glide_evdw>
-47.3703422546387

> <r_i_glide_ecoul>
-3.50676774978638

> <r_i_glide_erotb>
0.573091184493258

> <r_i_glide_esite>
0

> <r_i_glide_emodel>
-82.5059205166073

> <r_i_glide_energy>
-50.877110004425

> <r_i_glide_einternal>
2.68737101554871

> <i_i_glide_confnum>
111

> <i_i_glide_posenum>
346

> <r_i_glide_eff_state_penalty>
0

> <s_user_duplicate_titles>
CHEMBL2061_lig407,125735

> <i_f3d_flags>
0

> <s_m_subgroup_title>
dock_pv

> <s_m_subgroupid>
dock_pv

> <b_m_subgroup_collapsed>
1

$$$$
CHEMBL2061_lig310
                    3D
 Schrodinger Suite 2021-1.
 60 62  0  0  1  0            999 V2000
   63.0079   46.3637   31.3230 C   0  0  0  0  0  0
   58.8057   46.0115   29.8071 C   0  0  0  0  0  0
   61.1247   46.4528   29.6355 C   0  0  0  0  0  0
   60.0326   46.0489   30.4516 C   0  0  0  0  0  0
   58.9875   46.4770   28.1390 S   0  0  0  0  0  0
   64.1116   45.5320   31.5732 C   0  0  0  0  0  0
   62.4959   46.5739   29.9419 C   0  0  0  0  0  0
   64.6427   45.4464   32.8692 C   0  0  0  0  0  0
   60.6918   46.7618   28.3230 C   0  0  0  0  0  0
   62.3982   47.0267   32.3979 C   0  0  0  0  0  0
   57.4872   45.6768   30.3825 C   0  0  0  0  0  0
   63.9950   46.0936   33.9251 C   0  0  0  0  0  0
   62.8634   46.8734   33.7046 C   0  0  0  0  0  0
   56.3335   45.7165   29.6563 C   0  0  0  0  0  0
   54.9915   45.4395   30.1066 C   0  0  0  0  0  0
   54.0081   46.0770   29.7390 O   0  0  0  0  0  0
   65.9058   44.6416   33.1502 C   0  0  0  0  0  0
   62.1334   47.5211   34.8810 C   0  0  0  0  0  0
   64.6815   44.8178   30.5409 O   0  0  0  0  0  0
   54.9114   44.3714   30.9390 O   0  0  0  0  0  0
   63.3775   46.8770   28.8980 C   0  0  0  0  0  0
   61.5709   47.2177   27.3390 C   0  0  0  0  0  0
   57.5699   45.3574   31.8768 C   0  0  0  0  0  0
   62.9268   47.2288   27.6338 C   0  0  0  0  0  0
   65.5326   43.2772   33.7460 C   0  0  0  0  0  0
   66.9156   45.4220   34.0165 C   0  0  0  0  0  0
   64.1439   43.5118   30.3224 C   0  0  0  0  0  0
   63.0621   48.3510   35.7849 C   0  0  0  0  0  0
   61.3466   46.4731   35.6855 C   0  0  0  0  0  0
   63.2096   43.4890   29.1024 C   0  0  0  0  0  0
   60.1754   45.7814   31.4851 H   0  0  0  0  0  0
   61.5479   47.6675   32.2152 H   0  0  0  0  0  0
   64.3613   45.9755   34.9330 H   0  0  0  0  0  0
   56.3470   46.0020   28.6154 H   0  0  0  0  0  0
   66.4203   44.4784   32.2040 H   0  0  0  0  0  0
   61.4049   48.2253   34.4860 H   0  0  0  0  0  0
   55.7829   43.9881   31.0588 H   0  0  0  0  0  0
   64.4429   46.8770   29.0825 H   0  0  0  0  0  0
   61.2108   47.5048   26.3624 H   0  0  0  0  0  0
   58.0080   44.3709   32.0332 H   0  0  0  0  0  0
   58.1882   46.0770   32.4106 H   0  0  0  0  0  0
   56.6047   45.4228   32.3708 H   0  0  0  0  0  0
   63.6404   47.5113   26.8730 H   0  0  0  0  0  0
   64.8503   42.7232   33.1020 H   0  0  0  0  0  0
   66.4080   42.6532   33.8922 H   0  0  0  0  0  0
   65.0441   43.3923   34.7138 H   0  0  0  0  0  0
   67.1659   46.3789   33.5563 H   0  0  0  0  0  0
   66.5301   45.6331   35.0105 H   0  0  0  0  0  0
   67.8480   44.8766   34.1412 H   0  0  0  0  0  0
   64.9895   42.8486   30.1389 H   0  0  0  0  0  0
   63.6281   43.1052   31.1941 H   0  0  0  0  0  0
   63.6080   49.1006   35.2112 H   0  0  0  0  0  0
   62.4753   48.8770   36.5377 H   0  0  0  0  0  0
   63.7906   47.7349   36.3128 H   0  0  0  0  0  0
   60.6160   45.9634   35.0562 H   0  0  0  0  0  0
   62.0020   45.7131   36.1132 H   0  0  0  0  0  0
   60.8081   46.9407   36.5087 H   0  0  0  0  0  0
   63.0643   42.4768   28.7347 H   0  0  0  0  0  0
   62.2239   43.8839   29.3391 H   0  0  0  0  0  0
   63.6081   44.0833   28.2832 H   0  0  0  0  0  0
  1  6  1  0  0  0
  1  7  1  0  0  0
  1 10  2  0  0  0
  2  4  2  0  0  0
  2 11  1  0  0  0
  2  5  1  0  0  0
  3  7  1  0  0  0
  3  4  1  0  0  0
  3  9  2  0  0  0
  4 31  1  0  0  0
  5  9  1  0  0  0
  6  8  2  0  0  0
  6 19  1  0  0  0
  7 21  2  0  0  0
  8 17  1  0  0  0
  8 12  1  0  0  0
  9 22  1  0  0  0
 10 13  1  0  0  0
 10 32  1  0  0  0
 11 14  2  0  0  0
 11 23  1  0  0  0
 12 13  2  0  0  0
 12 33  1  0  0  0
 13 18  1  0  0  0
 14 15  1  0  0  0
 14 34  1  0  0  0
 15 16  2  0  0  0
 15 20  1  0  0  0
 17 25  1  0  0  0
 17 26  1  0  0  0
 17 35  1  0  0  0
 18 28  1  0  0  0
 18 29  1  0  0  0
 18 36  1  0  0  0
 19 27  1  0  0  0
 20 37  1  0  0  0
 21 24  1  0  0  0
 21 38  1  0  0  0
 22 24  2  0  0  0
 22 39  1  0  0  0
 23 40  1  0  0  0
 23 41  1  0  0  0
 23 42  1  0  0  0
 24 43  1  0  0  0
 25 44  1  0  0  0
 25 45  1  0  0  0
 25 46  1  0  0  0
 26 47  1  0  0  0
 26 48  1  0  0  0
 26 49  1  0  0  0
 27 30  1  0  0  0
 27 50  1  0  0  0
 27 51  1  0  0  0
 28 52  1  0  0  0
 28 53  1  0  0  0
 28 54  1  0  0  0
 29 55  1  0  0  0
 29 56  1  0  0  0
 29 57  1  0  0  0
 30 58  1  0  0  0
 30 59  1  0  0  0
 30 60  1  0  0  0
M  END
> <s_m_entry_id>
30838

> <s_m_entry_name>
dock_pv.51

> <s_m_Source_Path>
/home/csk/Desktop/cluster/DUD-E-result/rxra

> <s_m_Source_File>
dock_pv.maegz

> <i_m_Source_File_Index>
51

> <chembl_id>
CHEMBL41890

> <chembl_pref_name>
None

> <i_lp_mmshare_version>
53161

> <r_lp_tautomer_probability>
1

> <s_lp_Force_Field>
OPLS_2005

> <r_lp_Energy>
30.539541

> <b_lp_Chiralities_Consistent>
1

> <s_lp_Variant>
CHEMBL2061_lig310-1

> <s_i_glide_gridfile>
glide-grid_1mv9

> <i_i_glide_lignum>
358

> <i_i_glide_rotatable_bonds>
8

> <r_i_docking_score>
-11.4445838927807

> <r_i_glide_ligand_efficiency>
-0.381486129759357

> <r_i_glide_ligand_efficiency_sa>
-1.18536610161492

> <r_i_glide_ligand_efficiency_ln>
-2.60033415916888

> <r_i_glide_gscore>
-11.4445838927807

> <r_i_glide_lipo>
-7.11943945945557

> <r_i_glide_hbond>
-0.144416927407682

> <r_i_glide_metal>
0

> <r_i_glide_rewards>
-1.56503424452541

> <r_i_glide_evdw>
-50.9588088989258

> <r_i_glide_ecoul>
-3.4101881980896

> <r_i_glide_erotb>
0.443775413267677

> <r_i_glide_esite>
0

> <r_i_glide_emodel>
-79.942648350966

> <r_i_glide_energy>
-54.3689970970154

> <r_i_glide_einternal>
3.40303349494934

> <i_i_glide_confnum>
24

> <i_i_glide_posenum>
148

> <r_i_glide_eff_state_penalty>
0

> <s_user_duplicate_titles>
CHEMBL2061_lig310,61112

> <i_f3d_flags>
0

> <s_m_subgroup_title>
dock_pv

> <s_m_subgroupid>
dock_pv

> <b_m_subgroup_collapsed>
1

$$$$
CHEMBL2061_lig514
                    3D
 Schrodinger Suite 2021-1.
 62 66  0  0  1  0            999 V2000
   64.9081   45.7924   35.1127 C   0  0  0  0  0  0
   63.5088   46.1887   35.5474 C   0  0  0  0  0  0
   62.8107   47.0914   34.5025 C   0  0  0  0  0  0
   64.9140   44.9524   33.8176 C   0  0  0  0  0  0
   63.9805   45.5534   32.7510 C   0  0  0  0  0  0
   62.9687   46.5085   33.0673 C   0  0  0  0  0  0
   62.0999   46.9181   32.0337 C   0  0  0  0  0  0
   64.0253   45.0156   31.4534 C   0  0  0  0  0  0
   66.3889   44.9743   33.3422 C   0  0  0  0  0  0
   64.3433   43.5459   34.1300 C   0  0  0  0  0  0
   61.3267   47.1275   34.9461 C   0  0  0  0  0  0
   63.4776   48.4812   34.5411 C   0  0  0  0  0  0
   63.0993   45.3966   30.5038 C   0  0  0  0  0  0
   62.1305   46.3326   30.7615 C   0  0  0  0  0  0
   63.0174   44.8336   29.2662 O   0  0  0  0  0  0
   59.7833   46.0403   29.6974 C   0  0  0  0  0  0
   58.8740   46.0788   28.6279 C   0  0  0  0  0  0
   57.5213   45.7838   28.8244 C   0  0  0  0  0  0
   57.0376   45.4573   30.0997 C   0  0  0  0  0  0
   57.9548   45.4227   31.1585 C   0  0  0  0  0  0
   59.2881   45.6775   30.9417 C   0  0  0  0  0  0
   55.5717   45.2138   30.3254 C   0  0  0  0  0  0
   54.9734   44.4772   29.3495 O   0  0  0  0  0  0
   54.9632   45.6433   31.3040 O   0  0  0  0  0  0
   62.0197   45.5451   28.5386 C   0  0  1  0  0  0
   61.2537   46.4945   29.5242 C   0  0  2  0  0  0
   61.2019   47.9960   29.1104 C   0  0  0  0  0  0
   62.2473   48.4769   28.1129 C   0  0  0  0  0  0
   62.2997   47.5448   26.9390 C   0  0  0  0  0  0
   62.8091   46.1818   27.3818 C   0  0  0  0  0  0
   57.6060   45.2769   32.4458 F   0  0  0  0  0  0
   65.3946   45.2534   35.9225 H   0  0  0  0  0  0
   65.5041   46.6945   34.9802 H   0  0  0  0  0  0
   63.5660   46.6978   36.5112 H   0  0  0  0  0  0
   62.9234   45.2885   35.7362 H   0  0  0  0  0  0
   61.3471   47.6606   32.2506 H   0  0  0  0  0  0
   64.7332   44.2416   31.2044 H   0  0  0  0  0  0
   67.0451   44.4885   34.0651 H   0  0  0  0  0  0
   66.5357   44.4778   32.3907 H   0  0  0  0  0  0
   66.7558   45.9931   33.2043 H   0  0  0  0  0  0
   64.6769   43.2001   35.1047 H   0  0  0  0  0  0
   63.2394   43.5211   34.1396 H   0  0  0  0  0  0
   64.6671   42.8114   33.3920 H   0  0  0  0  0  0
   61.2257   47.2242   36.0276 H   0  0  0  0  0  0
   60.8113   47.9919   34.5457 H   0  0  0  0  0  0
   60.7822   46.2319   34.6486 H   0  0  0  0  0  0
   63.5141   48.8840   35.5542 H   0  0  0  0  0  0
   64.4951   48.4726   34.1520 H   0  0  0  0  0  0
   62.9178   49.1953   33.9359 H   0  0  0  0  0  0
   59.2115   46.3622   27.6418 H   0  0  0  0  0  0
   56.8535   45.8491   27.9763 H   0  0  0  0  0  0
   59.9164   45.6809   31.8148 H   0  0  0  0  0  0
   55.6038   44.1342   28.7120 H   0  0  0  0  0  0
   61.3834   44.7659   28.1265 H   0  0  0  0  0  0
   61.2631   48.5953   30.0139 H   0  0  0  0  0  0
   60.2383   48.2640   28.6746 H   0  0  0  0  0  0
   63.2211   48.5382   28.5849 H   0  0  0  0  0  0
   62.0013   49.4749   27.7407 H   0  0  0  0  0  0
   62.9454   47.9539   26.1584 H   0  0  0  0  0  0
   61.3011   47.4571   26.5109 H   0  0  0  0  0  0
   62.8064   45.4959   26.5388 H   0  0  0  0  0  0
   63.8541   46.3139   27.6781 H   0  0  0  0  0  0
  1  2  1  0  0  0
  1  4  1  0  0  0
  1 32  1  0  0  0
  1 33  1  0  0  0
  2  3  1  0  0  0
  2 34  1  0  0  0
  2 35  1  0  0  0
  3  6  1  0  0  0
  3 11  1  0  0  0
  3 12  1  0  0  0
  4  5  1  0  0  0
  4  9  1  0  0  0
  4 10  1  0  0  0
  5  6  2  0  0  0
  5  8  1  0  0  0
  6  7  1  0  0  0
  7 14  2  0  0  0
  7 36  1  0  0  0
  8 13  2  0  0  0
  8 37  1  0  0  0
  9 38  1  0  0  0
  9 39  1  0  0  0
  9 40  1  0  0  0
 10 41  1  0  0  0
 10 42  1  0  0  0
 10 43  1  0  0  0
 11 44  1  0  0  0
 11 45  1  0  0  0
 11 46  1  0  0  0
 12 47  1  0  0  0
 12 48  1  0  0  0
 12 49  1  0  0  0
 13 14  1  0  0  0
 13 15  1  0  0  0
 14 26  1  0  0  0
 15 25  1  0  0  0
 16 26  1  0  0  0
 16 17  2  0  0  0
 16 21  1  0  0  0
 17 18  1  0  0  0
 17 50  1  0  0  0
 18 19  2  0  0  0
 18 51  1  0  0  0
 19 20  1  0  0  0
 19 22  1  0  0  0
 20 21  2  0  0  0
 20 31  1  0  0  0
 21 52  1  0  0  0
 22 23  1  0  0  0
 22 24  2  0  0  0
 23 53  1  0  0  0
 25 26  1  0  0  0
 25 30  1  0  0  0
 25 54  1  0  0  0
 26 27  1  0  0  0
 27 28  1  0  0  0
 27 55  1  0  0  0
 27 56  1  0  0  0
 28 29  1  0  0  0
 28 57  1  0  0  0
 28 58  1  0  0  0
 29 30  1  0  0  0
 29 59  1  0  0  0
 29 60  1  0  0  0
 30 61  1  0  0  0
 30 62  1  0  0  0
M  END
> <s_m_entry_id>
30839

> <s_m_entry_name>
dock_pv.52

> <s_m_Source_Path>
/home/csk/Desktop/cluster/DUD-E-result/rxra

> <s_m_Source_File>
dock_pv.maegz

> <i_m_Source_File_Index>
52

> <chembl_id>
CHEMBL3781998

> <chembl_pref_name>
None

> <i_lp_mmshare_version>
53161

> <r_lp_tautomer_probability>
1

> <s_lp_Force_Field>
OPLS_2005

> <r_lp_Energy>
50.376045

> <b_lp_Chiralities_Consistent>
1

> <s_lp_Variant>
CHEMBL2061_lig514-4

> <s_i_glide_gridfile>
glide-grid_1mv9

> <i_i_glide_lignum>
610

> <i_i_glide_rotatable_bonds>
3

> <r_i_docking_score>
-11.4387934655339

> <r_i_glide_ligand_efficiency>
-0.368993337597867

> <r_i_glide_ligand_efficiency_sa>
-1.15914853026443

> <r_i_glide_ligand_efficiency_ln>
-2.57979848339731

> <r_i_glide_gscore>
-11.4387934655339

> <r_i_glide_lipo>
-7.08627309157172

> <r_i_glide_hbond>
-0.0417156234665928

> <r_i_glide_metal>
0

> <r_i_glide_rewards>
-2.04749402804998

> <r_i_glide_evdw>
-42.9734230041504

> <r_i_glide_ecoul>
-2.24382519721985

> <r_i_glide_erotb>
0.221934207344913

> <r_i_glide_esite>
0

> <r_i_glide_emodel>
-109.763356973669

> <r_i_glide_energy>
-45.2172482013702

> <r_i_glide_einternal>
3.95192217826843

> <i_i_glide_confnum>
9

> <i_i_glide_posenum>
219

> <r_i_glide_eff_state_penalty>
0

> <s_user_duplicate_titles>
CHEMBL2061_lig514

> <i_f3d_flags>
0

> <s_m_subgroup_title>
dock_pv

> <s_m_subgroupid>
dock_pv

> <b_m_subgroup_collapsed>
1

$$$$
CHEMBL2061_lig400
                    3D
 Schrodinger Suite 2021-1.
 60 63  0  0  1  0            999 V2000
   60.3859   46.6588   29.9654 C   0  0  0  0  0  0
   60.0261   46.2683   28.6953 C   0  0  0  0  0  0
   59.4547   46.0756   30.8135 C   0  0  0  0  0  0
   61.5847   47.5490   30.1958 C   0  0  1  0  0  0
   63.0765   46.5968   33.5622 C   0  0  0  0  0  0
   58.7980   45.6867   28.7101 O   0  0  0  0  0  0
   58.4284   45.6091   30.0198 C   0  0  0  0  0  0
   64.1769   45.7802   33.1836 C   0  0  0  0  0  0
   62.5282   46.9126   31.2008 C   0  0  0  0  0  0
   62.2602   47.1028   32.5495 C   0  0  0  0  0  0
   62.2004   46.9146   27.8556 N   0  0  2  0  0  0
   60.8267   46.5674   27.4368 C   0  0  0  0  0  0
   62.7611   46.9749   35.0293 C   0  0  0  0  0  0
   65.1571   45.1904   34.2176 C   0  0  0  0  0  0
   62.1935   48.0039   28.8350 C   0  0  0  0  0  0
   57.1018   45.2122   30.3878 C   0  0  0  0  0  0
   64.4130   45.5633   31.8136 C   0  0  0  0  0  0
   56.0195   45.3185   29.6033 C   0  0  0  0  0  0
   54.7151   45.0888   30.1377 C   0  0  0  0  0  0
   63.6080   46.1205   30.8294 C   0  0  0  0  0  0
   64.0256   46.7720   35.8824 C   0  0  0  0  0  0
   64.6323   45.3966   35.6616 C   0  0  0  0  0  0
   54.4078   44.2007   30.9241 O   0  0  0  0  0  0
   53.8740   46.0748   29.7365 O   0  0  0  0  0  0
   63.0770   47.2451   26.7469 C   0  0  0  0  0  0
   62.4660   48.4771   35.1281 C   0  0  0  0  0  0
   61.5647   46.1483   35.5707 C   0  0  0  0  0  0
   65.2751   43.6679   34.0201 C   0  0  0  0  0  0
   66.5129   45.9212   34.0612 C   0  0  0  0  0  0
   59.4482   46.1408   31.8920 H   0  0  0  0  0  0
   61.2420   48.4624   30.6802 H   0  0  0  0  0  0
   61.3904   47.6782   32.8170 H   0  0  0  0  0  0
   60.8539   45.6911   26.7892 H   0  0  0  0  0  0
   60.3631   47.3943   26.8967 H   0  0  0  0  0  0
   63.2079   48.3331   29.0277 H   0  0  0  0  0  0
   61.6820   48.8747   28.4175 H   0  0  0  0  0  0
   57.0168   44.8909   31.4176 H   0  0  0  0  0  0
   65.2561   44.9694   31.4946 H   0  0  0  0  0  0
   56.0898   45.6335   28.5715 H   0  0  0  0  0  0
   63.8271   45.9333   29.7881 H   0  0  0  0  0  0
   63.8263   46.9358   36.9387 H   0  0  0  0  0  0
   64.7765   47.5157   35.6134 H   0  0  0  0  0  0
   63.9052   44.6294   35.9269 H   0  0  0  0  0  0
   65.4264   45.2781   36.3793 H   0  0  0  0  0  0
   54.3502   46.6772   29.1595 H   0  0  0  0  0  0
   64.0700   47.5318   27.0989 H   0  0  0  0  0  0
   63.2085   46.3548   26.1391 H   0  0  0  0  0  0
   62.6806   48.0577   26.1363 H   0  0  0  0  0  0
   62.4485   48.8144   36.1652 H   0  0  0  0  0  0
   63.2144   49.0737   34.6020 H   0  0  0  0  0  0
   61.4926   48.7324   34.7156 H   0  0  0  0  0  0
   60.9581   46.7380   36.2582 H   0  0  0  0  0  0
   60.8953   45.8140   34.7771 H   0  0  0  0  0  0
   61.8693   45.2772   36.1402 H   0  0  0  0  0  0
   66.0071   43.2770   34.7194 H   0  0  0  0  0  0
   64.3282   43.1520   34.1913 H   0  0  0  0  0  0
   65.6065   43.3970   33.0215 H   0  0  0  0  0  0
   67.2104   45.6680   34.8608 H   0  0  0  0  0  0
   66.9983   45.6578   33.1218 H   0  0  0  0  0  0
   66.3941   47.0038   34.0607 H   0  0  0  0  0  0
  1  2  2  0  0  0
  1  3  1  0  0  0
  1  4  1  0  0  0
  2  6  1  0  0  0
  2 12  1  0  0  0
  3  7  2  0  0  0
  3 30  1  0  0  0
  4  9  1  0  0  0
  4 15  1  0  0  0
  4 31  1  0  0  0
  5 10  2  0  0  0
  5 13  1  0  0  0
  5  8  1  0  0  0
  6  7  1  0  0  0
  7 16  1  0  0  0
  8 17  2  0  0  0
  8 14  1  0  0  0
  9 10  1  0  0  0
  9 20  2  0  0  0
 10 32  1  0  0  0
 11 15  1  0  0  0
 11 25  1  0  0  0
 11 12  1  0  0  0
 12 33  1  0  0  0
 12 34  1  0  0  0
 13 21  1  0  0  0
 13 26  1  0  0  0
 13 27  1  0  0  0
 14 22  1  0  0  0
 14 28  1  0  0  0
 14 29  1  0  0  0
 15 35  1  0  0  0
 15 36  1  0  0  0
 16 18  2  0  0  0
 16 37  1  0  0  0
 17 20  1  0  0  0
 17 38  1  0  0  0
 18 19  1  0  0  0
 18 39  1  0  0  0
 19 23  2  0  0  0
 19 24  1  0  0  0
 20 40  1  0  0  0
 21 22  1  0  0  0
 21 41  1  0  0  0
 21 42  1  0  0  0
 22 43  1  0  0  0
 22 44  1  0  0  0
 24 45  1  0  0  0
 25 46  1  0  0  0
 25 47  1  0  0  0
 25 48  1  0  0  0
 26 49  1  0  0  0
 26 50  1  0  0  0
 26 51  1  0  0  0
 27 52  1  0  0  0
 27 53  1  0  0  0
 27 54  1  0  0  0
 28 55  1  0  0  0
 28 56  1  0  0  0
 28 57  1  0  0  0
 29 58  1  0  0  0
 29 59  1  0  0  0
 29 60  1  0  0  0
M  END
> <s_m_entry_id>
30840

> <s_m_entry_name>
dock_pv.53

> <s_m_Source_Path>
/home/csk/Desktop/cluster/DUD-E-result/rxra

> <s_m_Source_File>
dock_pv.maegz

> <i_m_Source_File_Index>
53

> <chembl_id>
CHEMBL2113736

> <chembl_pref_name>
None

> <i_lp_mmshare_version>
53161

> <r_lp_tautomer_probability>
1

> <s_lp_Force_Field>
OPLS_2005

> <r_lp_Energy>
31.388708

> <b_lp_Chiralities_Consistent>
1

> <s_lp_Variant>
CHEMBL2061_lig400-2

> <s_i_glide_gridfile>
glide-grid_1mv9

> <i_i_glide_lignum>
470

> <i_i_glide_rotatable_bonds>
4

> <r_i_docking_score>
-11.4386565901168

> <r_i_glide_ligand_efficiency>
-0.39443643414196

> <r_i_glide_ligand_efficiency_sa>
-1.21183369191767

> <r_i_glide_ligand_efficiency_ln>
-2.61916229983263

> <r_i_glide_gscore>
-11.4386565901168

> <r_i_glide_lipo>
-6.55171192748028

> <r_i_glide_hbond>
-0.32

> <r_i_glide_metal>
0

> <r_i_glide_rewards>
-2.22261146202851

> <r_i_glide_evdw>
-41.4400062561035

> <r_i_glide_ecoul>
-4.3386116027832

> <r_i_glide_erotb>
0.37845885261461

> <r_i_glide_esite>
0

> <r_i_glide_emodel>
-48.2714227537503

> <r_i_glide_energy>
-45.7786178588867

> <r_i_glide_einternal>
10.7193737030029

> <i_i_glide_confnum>
21

> <i_i_glide_posenum>
28

> <r_i_glide_eff_state_penalty>
0

> <s_user_duplicate_titles>
CHEMBL2061_lig400

> <i_f3d_flags>
0

> <s_m_subgroup_title>
dock_pv

> <s_m_subgroupid>
dock_pv

> <b_m_subgroup_collapsed>
1

$$$$
CHEMBL2061_lig452
                    3D
 Schrodinger Suite 2021-1.
 55 57  0  0  1  0            999 V2000
   64.0102   47.0006   35.4116 C   0  0  0  0  0  0
   65.0474   45.8994   35.1096 C   0  0  0  0  0  0
   65.5163   45.7980   33.6304 C   0  0  0  0  0  0
   63.2170   47.3157   34.3498 N   0  0  0  0  0  0
   63.9482   47.5010   36.5344 O   0  0  0  0  0  0
   66.2946   44.4813   33.4977 C   0  0  0  0  0  0
   66.4405   46.9596   33.2329 C   0  0  0  0  0  0
   63.2005   46.6544   33.0915 C   0  0  0  0  0  0
   64.2948   45.8538   32.7091 C   0  0  0  0  0  0
   64.2540   45.1896   31.4779 C   0  0  0  0  0  0
   63.1815   45.3302   30.6068 C   0  0  0  0  0  0
   62.1291   46.1959   30.9468 C   0  0  0  0  0  0
   62.1421   46.8313   32.1859 C   0  0  0  0  0  0
   60.9959   46.4245   30.0297 C   0  0  0  0  0  0
   59.7754   45.7889   30.2697 C   0  0  0  0  0  0
   58.7474   45.8151   29.3389 C   0  0  0  0  0  0
   58.9709   46.4821   28.1388 C   0  0  0  0  0  0
   60.1279   47.2328   27.9364 C   0  0  0  0  0  0
   61.1464   47.2290   28.8937 C   0  0  0  0  0  0
   57.4338   45.1000   29.6453 C   0  0  0  0  0  0
   56.1846   45.7184   28.9609 C   0  0  0  0  0  0
   54.8730   45.6147   29.7398 C   0  0  0  0  0  0
   54.7660   44.4771   30.4786 O   0  0  0  0  0  0
   54.0056   46.4765   29.6693 O   0  0  0  0  0  0
   62.2340   48.0762   28.8183 O   0  0  0  0  0  0
   63.0988   48.0059   27.6917 C   0  0  0  0  0  0
   62.4527   48.0770   26.5392 F   0  0  0  0  0  0
   63.9114   49.0583   27.7387 F   0  0  0  0  0  0
   63.8457   46.9078   27.7291 F   0  0  0  0  0  0
   62.1895   48.3441   34.5960 C   0  0  0  0  0  0
   63.1965   44.4944   29.3300 C   0  0  0  0  0  0
   65.9081   46.0721   35.7511 H   0  0  0  0  0  0
   64.5916   44.9649   35.4394 H   0  0  0  0  0  0
   67.0714   44.4282   34.2604 H   0  0  0  0  0  0
   65.6613   43.5961   33.5790 H   0  0  0  0  0  0
   66.8079   44.4770   32.5388 H   0  0  0  0  0  0
   67.3999   46.8828   33.7390 H   0  0  0  0  0  0
   66.6641   46.8771   32.1689 H   0  0  0  0  0  0
   66.0099   47.9425   33.4269 H   0  0  0  0  0  0
   65.0732   44.5557   31.1745 H   0  0  0  0  0  0
   61.3023   47.4648   32.4245 H   0  0  0  0  0  0
   59.6080   45.2772   31.1965 H   0  0  0  0  0  0
   58.2222   46.4768   27.3712 H   0  0  0  0  0  0
   60.2051   47.8355   27.0457 H   0  0  0  0  0  0
   57.3088   45.0941   30.7301 H   0  0  0  0  0  0
   57.5491   44.0588   29.3424 H   0  0  0  0  0  0
   56.0295   45.2785   27.9756 H   0  0  0  0  0  0
   56.3398   46.7854   28.8002 H   0  0  0  0  0  0
   55.5475   43.9303   30.3735 H   0  0  0  0  0  0
   62.3114   48.8765   35.5405 H   0  0  0  0  0  0
   62.2077   49.0911   33.8010 H   0  0  0  0  0  0
   61.2026   47.8838   34.6185 H   0  0  0  0  0  0
   63.1685   43.4330   29.5797 H   0  0  0  0  0  0
   62.3723   44.7035   28.6500 H   0  0  0  0  0  0
   64.1256   44.6633   28.7874 H   0  0  0  0  0  0
  1  5  2  0  0  0
  1  2  1  0  0  0
  1  4  1  0  0  0
  2  3  1  0  0  0
  2 32  1  0  0  0
  2 33  1  0  0  0
  3  7  1  0  0  0
  3  9  1  0  0  0
  3  6  1  0  0  0
  4  8  1  0  0  0
  4 30  1  0  0  0
  6 34  1  0  0  0
  6 35  1  0  0  0
  6 36  1  0  0  0
  7 37  1  0  0  0
  7 38  1  0  0  0
  7 39  1  0  0  0
  8  9  2  0  0  0
  8 13  1  0  0  0
  9 10  1  0  0  0
 10 11  2  0  0  0
 10 40  1  0  0  0
 11 12  1  0  0  0
 11 31  1  0  0  0
 12 14  1  0  0  0
 12 13  2  0  0  0
 13 41  1  0  0  0
 14 19  1  0  0  0
 14 15  2  0  0  0
 15 16  1  0  0  0
 15 42  1  0  0  0
 16 17  2  0  0  0
 16 20  1  0  0  0
 17 18  1  0  0  0
 17 43  1  0  0  0
 18 19  2  0  0  0
 18 44  1  0  0  0
 19 25  1  0  0  0
 20 21  1  0  0  0
 20 45  1  0  0  0
 20 46  1  0  0  0
 21 22  1  0  0  0
 21 47  1  0  0  0
 21 48  1  0  0  0
 22 23  1  0  0  0
 22 24  2  0  0  0
 23 49  1  0  0  0
 25 26  1  0  0  0
 26 27  1  0  0  0
 26 28  1  0  0  0
 26 29  1  0  0  0
 30 50  1  0  0  0
 30 51  1  0  0  0
 30 52  1  0  0  0
 31 53  1  0  0  0
 31 54  1  0  0  0
 31 55  1  0  0  0
M  END
> <s_m_entry_id>
30841

> <s_m_entry_name>
dock_pv.54

> <s_m_Source_Path>
/home/csk/Desktop/cluster/DUD-E-result/rxra

> <s_m_Source_File>
dock_pv.maegz

> <i_m_Source_File_Index>
54

> <chembl_id>
CHEMBL248236

> <chembl_pref_name>
None

> <i_lp_mmshare_version>
53161

> <r_lp_tautomer_probability>
1

> <s_lp_Force_Field>
OPLS_2005

> <r_lp_Energy>
35.161544

> <b_lp_Chiralities_Consistent>
1

> <s_lp_Variant>
CHEMBL2061_lig452-1

> <s_i_glide_gridfile>
glide-grid_1mv9

> <i_i_glide_lignum>
528

> <i_i_glide_rotatable_bonds>
7

> <r_i_docking_score>
-11.4381321461693

> <r_i_glide_ligand_efficiency>
-0.36897200471514

> <r_i_glide_ligand_efficiency_sa>
-1.15908151555945

> <r_i_glide_ligand_efficiency_ln>
-2.57964933561361

> <r_i_glide_gscore>
-11.4381321461693

> <r_i_glide_lipo>
-5.74658874631919

> <r_i_glide_hbond>
-0.178251291604493

> <r_i_glide_metal>
0

> <r_i_glide_rewards>
-3.03300539644812

> <r_i_glide_evdw>
-48.3876152038574

> <r_i_glide_ecoul>
-3.90881776809692

> <r_i_glide_erotb>
0.525416713609874

> <r_i_glide_esite>
0

> <r_i_glide_emodel>
-80.5194256513678

> <r_i_glide_energy>
-52.2964329719543

> <r_i_glide_einternal>
7.62973070144653

> <i_i_glide_confnum>
127

> <i_i_glide_posenum>
218

> <r_i_glide_eff_state_penalty>
0

> <s_user_duplicate_titles>
CHEMBL2061_lig452,414658

> <i_f3d_flags>
0

> <s_m_subgroup_title>
dock_pv

> <s_m_subgroupid>
dock_pv

> <b_m_subgroup_collapsed>
1

$$$$
CHEMBL2061_lig436
                    3D
 Schrodinger Suite 2021-1.
 53 55  0  0  1  0            999 V2000
   64.0077   46.8707   35.4120 C   0  0  0  0  0  0
   65.3795   46.4005   34.8970 C   0  0  0  0  0  0
   65.3686   45.2711   33.8336 C   0  0  0  0  0  0
   63.0079   46.7482   34.4988 N   0  0  0  0  0  0
   63.9000   47.3452   36.5390 O   0  0  0  0  0  0
   65.0600   43.9163   34.4953 C   0  0  0  0  0  0
   66.7718   45.3083   33.1959 C   0  0  0  0  0  0
   63.1644   46.3234   33.1540 C   0  0  0  0  0  0
   64.2894   45.5587   32.7884 C   0  0  0  0  0  0
   64.3666   45.0406   31.4912 C   0  0  0  0  0  0
   62.2760   46.0765   30.8971 C   0  0  0  0  0  0
   62.1816   46.5867   32.1901 C   0  0  0  0  0  0
   61.1989   46.3649   29.9301 C   0  0  0  0  0  0
   59.9166   45.8705   30.1672 C   0  0  0  0  0  0
   58.8745   46.0708   29.2743 C   0  0  0  0  0  0
   59.1674   46.7524   28.0931 C   0  0  0  0  0  0
   60.4288   47.3013   27.8545 C   0  0  0  0  0  0
   61.4627   47.1209   28.7836 C   0  0  0  0  0  0
   62.7209   47.6954   28.7327 O   0  0  0  0  0  0
   63.4067   48.0618   27.5426 C   0  0  0  0  0  0
   64.4534   47.2767   27.3418 F   0  0  0  0  0  0
   62.6821   48.0770   26.4404 F   0  0  0  0  0  0
   63.8706   49.2800   27.7389 F   0  0  0  0  0  0
   57.5301   45.5896   29.6742 C   0  0  0  0  0  0
   56.3398   46.0761   29.2538 C   0  0  0  0  0  0
   55.0392   45.6460   29.7242 C   0  0  0  0  0  0
   55.0503   44.4773   30.4251 O   0  0  0  0  0  0
   54.0094   46.2937   29.5359 O   0  0  0  0  0  0
   61.6748   47.2164   34.9314 C   0  0  0  0  0  0
   63.3726   45.2735   30.5513 C   0  0  0  0  0  0
   63.4896   44.5706   29.2032 C   0  0  0  0  0  0
   65.8419   47.3028   34.4959 H   0  0  0  0  0  0
   65.9764   46.0769   35.7485 H   0  0  0  0  0  0
   65.8512   43.6755   35.2000 H   0  0  0  0  0  0
   64.1112   43.9189   35.0338 H   0  0  0  0  0  0
   65.0221   43.1099   33.7607 H   0  0  0  0  0  0
   67.5610   45.2388   33.9473 H   0  0  0  0  0  0
   66.9134   44.4773   32.5129 H   0  0  0  0  0  0
   66.9190   46.2321   32.6352 H   0  0  0  0  0  0
   65.1959   44.4106   31.2085 H   0  0  0  0  0  0
   61.3185   47.1885   32.4308 H   0  0  0  0  0  0
   59.7139   45.3370   31.0771 H   0  0  0  0  0  0
   58.4085   46.8768   27.3411 H   0  0  0  0  0  0
   60.5479   47.8896   26.9600 H   0  0  0  0  0  0
   57.5523   44.7767   30.3867 H   0  0  0  0  0  0
   56.2980   46.8769   28.5389 H   0  0  0  0  0  0
   55.9147   44.0659   30.4212 H   0  0  0  0  0  0
   61.5492   47.2332   36.0155 H   0  0  0  0  0  0
   61.4969   48.2267   34.5642 H   0  0  0  0  0  0
   60.8897   46.5648   34.5459 H   0  0  0  0  0  0
   63.9079   43.5712   29.3313 H   0  0  0  0  0  0
   62.5243   44.4269   28.7179 H   0  0  0  0  0  0
   64.1500   45.1249   28.5400 H   0  0  0  0  0  0
  1  5  2  0  0  0
  1  2  1  0  0  0
  1  4  1  0  0  0
  2  3  1  0  0  0
  2 32  1  0  0  0
  2 33  1  0  0  0
  3  6  1  0  0  0
  3  7  1  0  0  0
  3  9  1  0  0  0
  4  8  1  0  0  0
  4 29  1  0  0  0
  6 34  1  0  0  0
  6 35  1  0  0  0
  6 36  1  0  0  0
  7 37  1  0  0  0
  7 38  1  0  0  0
  7 39  1  0  0  0
  8  9  2  0  0  0
  8 12  1  0  0  0
  9 10  1  0  0  0
 10 30  2  0  0  0
 10 40  1  0  0  0
 11 30  1  0  0  0
 11 12  2  0  0  0
 11 13  1  0  0  0
 12 41  1  0  0  0
 13 14  2  0  0  0
 13 18  1  0  0  0
 14 15  1  0  0  0
 14 42  1  0  0  0
 15 16  2  0  0  0
 15 24  1  0  0  0
 16 17  1  0  0  0
 16 43  1  0  0  0
 17 18  2  0  0  0
 17 44  1  0  0  0
 18 19  1  0  0  0
 19 20  1  0  0  0
 20 21  1  0  0  0
 20 22  1  0  0  0
 20 23  1  0  0  0
 24 25  2  0  0  0
 24 45  1  0  0  0
 25 26  1  0  0  0
 25 46  1  0  0  0
 26 27  1  0  0  0
 26 28  2  0  0  0
 27 47  1  0  0  0
 29 48  1  0  0  0
 29 49  1  0  0  0
 29 50  1  0  0  0
 30 31  1  0  0  0
 31 51  1  0  0  0
 31 52  1  0  0  0
 31 53  1  0  0  0
M  END
> <s_m_entry_id>
30842

> <s_m_entry_name>
dock_pv.55

> <s_m_Source_Path>
/home/csk/Desktop/cluster/DUD-E-result/rxra

> <s_m_Source_File>
dock_pv.maegz

> <i_m_Source_File_Index>
55

> <chembl_id>
CHEMBL247836

> <chembl_pref_name>
None

> <i_lp_mmshare_version>
53161

> <r_lp_tautomer_probability>
1

> <s_lp_Force_Field>
OPLS_2005

> <r_lp_Energy>
36.913333

> <b_lp_Chiralities_Consistent>
1

> <s_lp_Variant>
CHEMBL2061_lig436-1

> <s_i_glide_gridfile>
glide-grid_1mv9

> <i_i_glide_lignum>
507

> <i_i_glide_rotatable_bonds>
6

> <r_i_docking_score>
-11.4225127746395

> <r_i_glide_ligand_efficiency>
-0.368468154020629

> <r_i_glide_ligand_efficiency_sa>
-1.15749872873783

> <r_i_glide_ligand_efficiency_ln>
-2.57612668865738

> <r_i_glide_gscore>
-11.4225127746395

> <r_i_glide_lipo>
-5.8077366702302

> <r_i_glide_hbond>
-0.101618924025982

> <r_i_glide_metal>
0

> <r_i_glide_rewards>
-3.0127928933692

> <r_i_glide_evdw>
-46.7670288085938

> <r_i_glide_ecoul>
-3.90598082542419

> <r_i_glide_erotb>
0.423884277229197

> <r_i_glide_esite>
0

> <r_i_glide_emodel>
-80.0458917404402

> <r_i_glide_energy>
-50.6730096340179

> <r_i_glide_einternal>
6.25163459777832

> <i_i_glide_confnum>
46

> <i_i_glide_posenum>
87

> <r_i_glide_eff_state_penalty>
0

> <s_user_duplicate_titles>
CHEMBL2061_lig436,414786

> <i_f3d_flags>
0

> <s_m_subgroup_title>
dock_pv

> <s_m_subgroupid>
dock_pv

> <b_m_subgroup_collapsed>
1

$$$$
CHEMBL2061_lig333
                    3D
 Schrodinger Suite 2021-1.
 70 72  0  0  1  0            999 V2000
   62.7772   46.7785   30.0631 C   0  0  0  0  0  0
   63.2827   46.6299   31.4606 C   0  0  0  0  0  0
   61.4382   46.6186   29.5679 C   0  0  0  0  0  0
   63.5323   47.0175   28.9383 C   0  0  0  0  0  0
   62.7623   47.3104   27.8617 N   0  0  0  0  0  0
   61.4672   46.9752   28.1868 C   0  0  0  0  0  0
   64.5269   46.0338   31.7536 C   0  0  0  0  0  0
   64.8929   45.7917   33.0804 C   0  0  0  0  0  0
   62.4640   47.0491   32.5140 C   0  0  0  0  0  0
   60.2236   46.1860   30.1294 C   0  0  0  0  0  0
   64.0743   46.2439   34.1123 C   0  0  0  0  0  0
   62.8698   46.8855   33.8402 C   0  0  0  0  0  0
   57.7797   45.5675   29.9071 C   0  0  0  0  0  0
   56.5842   46.0315   29.4430 C   0  0  0  0  0  0
   59.0725   46.0774   29.3330 C   0  0  0  0  0  0
   55.2427   45.6474   29.8478 C   0  0  0  0  0  0
   60.3365   46.9318   27.3935 C   0  0  0  0  0  0
   59.1641   46.4760   27.9915 C   0  0  0  0  0  0
   54.9218   44.6962   30.5535 O   0  0  0  0  0  0
   66.0982   44.9212   33.4191 C   0  0  0  0  0  0
   61.9851   47.3305   34.9910 C   0  0  0  0  0  0
   65.4229   45.6767   30.7755 O   0  0  0  0  0  0
   63.2990   47.7215   26.5830 C   0  0  0  0  0  0
   54.3166   46.5032   29.3334 O   0  0  0  0  0  0
   57.9389   44.4894   30.9821 C   0  0  0  0  0  0
   65.6039   43.5935   34.0170 C   0  0  0  0  0  0
   67.1170   45.6544   34.3000 C   0  0  0  0  0  0
   65.1393   44.5696   29.9276 C   0  0  0  0  0  0
   62.7255   48.2336   35.9938 C   0  0  0  0  0  0
   61.3645   46.1081   35.6757 C   0  0  0  0  0  0
   64.0083   43.5901   30.3172 C   0  0  0  0  0  0
   63.3668   42.8829   29.1159 C   0  0  0  0  0  0
   62.4277   43.7126   28.2446 C   0  0  0  0  0  0
   64.6031   47.1244   28.8368 H   0  0  0  0  0  0
   61.5152   47.5199   32.3033 H   0  0  0  0  0  0
   60.2033   45.9066   31.1694 H   0  0  0  0  0  0
   64.3556   46.0526   35.1378 H   0  0  0  0  0  0
   56.5968   46.7919   28.6799 H   0  0  0  0  0  0
   60.4077   47.1953   26.3509 H   0  0  0  0  0  0
   58.3139   46.3812   27.3395 H   0  0  0  0  0  0
   66.6356   44.6593   32.5087 H   0  0  0  0  0  0
   61.1754   47.9362   34.5865 H   0  0  0  0  0  0
   64.0231   48.5223   26.7320 H   0  0  0  0  0  0
   63.8124   46.8741   26.1395 H   0  0  0  0  0  0
   62.5042   48.0784   25.9338 H   0  0  0  0  0  0
   54.7373   47.1817   28.8034 H   0  0  0  0  0  0
   58.5466   43.6775   30.5848 H   0  0  0  0  0  0
   58.4082   44.8998   31.8745 H   0  0  0  0  0  0
   57.0221   44.0369   31.3342 H   0  0  0  0  0  0
   64.8642   43.1205   33.3708 H   0  0  0  0  0  0
   66.4080   42.8770   34.1388 H   0  0  0  0  0  0
   65.1336   43.7384   34.9868 H   0  0  0  0  0  0
   67.5648   46.4791   33.7426 H   0  0  0  0  0  0
   66.6638   46.0698   35.1992 H   0  0  0  0  0  0
   67.9213   44.9848   34.6042 H   0  0  0  0  0  0
   64.9539   44.9572   28.9337 H   0  0  0  0  0  0
   66.0857   44.0429   29.8118 H   0  0  0  0  0  0
   63.3010   49.0054   35.4825 H   0  0  0  0  0  0
   62.0085   48.7320   36.6494 H   0  0  0  0  0  0
   63.4224   47.6738   36.6180 H   0  0  0  0  0  0
   60.6783   45.5988   35.0007 H   0  0  0  0  0  0
   62.1169   45.3999   36.0263 H   0  0  0  0  0  0
   60.8051   46.4265   36.5406 H   0  0  0  0  0  0
   64.4103   42.8472   31.0056 H   0  0  0  0  0  0
   63.2085   44.0848   30.8585 H   0  0  0  0  0  0
   64.1413   42.4732   28.4791 H   0  0  0  0  0  0
   62.7755   42.0708   29.5122 H   0  0  0  0  0  0
   62.0090   43.1047   27.4450 H   0  0  0  0  0  0
   61.6038   44.0867   28.8419 H   0  0  0  0  0  0
   62.9356   44.5520   27.7765 H   0  0  0  0  0  0
  1  2  1  0  0  0
  1  3  1  0  0  0
  1  4  2  0  0  0
  2  7  1  0  0  0
  2  9  2  0  0  0
  3  6  2  0  0  0
  3 10  1  0  0  0
  4  5  1  0  0  0
  4 34  1  0  0  0
  5 23  1  0  0  0
  5  6  1  0  0  0
  6 17  1  0  0  0
  7  8  2  0  0  0
  7 22  1  0  0  0
  8 20  1  0  0  0
  8 11  1  0  0  0
  9 12  1  0  0  0
  9 35  1  0  0  0
 10 15  2  0  0  0
 10 36  1  0  0  0
 11 12  2  0  0  0
 11 37  1  0  0  0
 12 21  1  0  0  0
 13 15  1  0  0  0
 13 14  2  0  0  0
 13 25  1  0  0  0
 14 16  1  0  0  0
 14 38  1  0  0  0
 15 18  1  0  0  0
 16 19  2  0  0  0
 16 24  1  0  0  0
 17 18  2  0  0  0
 17 39  1  0  0  0
 18 40  1  0  0  0
 20 26  1  0  0  0
 20 27  1  0  0  0
 20 41  1  0  0  0
 21 29  1  0  0  0
 21 30  1  0  0  0
 21 42  1  0  0  0
 22 28  1  0  0  0
 23 43  1  0  0  0
 23 44  1  0  0  0
 23 45  1  0  0  0
 24 46  1  0  0  0
 25 47  1  0  0  0
 25 48  1  0  0  0
 25 49  1  0  0  0
 26 50  1  0  0  0
 26 51  1  0  0  0
 26 52  1  0  0  0
 27 53  1  0  0  0
 27 54  1  0  0  0
 27 55  1  0  0  0
 28 31  1  0  0  0
 28 56  1  0  0  0
 28 57  1  0  0  0
 29 58  1  0  0  0
 29 59  1  0  0  0
 29 60  1  0  0  0
 30 61  1  0  0  0
 30 62  1  0  0  0
 30 63  1  0  0  0
 31 32  1  0  0  0
 31 64  1  0  0  0
 31 65  1  0  0  0
 32 33  1  0  0  0
 32 66  1  0  0  0
 32 67  1  0  0  0
 33 68  1  0  0  0
 33 69  1  0  0  0
 33 70  1  0  0  0
M  END
> <s_m_entry_id>
30843

> <s_m_entry_name>
dock_pv.56

> <s_m_Source_Path>
/home/csk/Desktop/cluster/DUD-E-result/rxra

> <s_m_Source_File>
dock_pv.maegz

> <i_m_Source_File_Index>
56

> <chembl_id>
CHEMBL421748

> <chembl_pref_name>
None

> <i_lp_mmshare_version>
53161

> <r_lp_tautomer_probability>
1

> <s_lp_Force_Field>
OPLS_2005

> <r_lp_Energy>
29.309083

> <b_lp_Chiralities_Consistent>
1

> <s_lp_Variant>
CHEMBL2061_lig333-1

> <s_i_glide_gridfile>
glide-grid_1mv9

> <i_i_glide_lignum>
393

> <i_i_glide_rotatable_bonds>
10

> <r_i_docking_score>
-11.42018491625

> <r_i_glide_ligand_efficiency>
-0.346066209583332

> <r_i_glide_ligand_efficiency_sa>
-1.11001924639634

> <r_i_glide_ligand_efficiency_ln>
-2.5397899948211

> <r_i_glide_gscore>
-11.42018491625

> <r_i_glide_lipo>
-7.30826093561311

> <r_i_glide_hbond>
0

> <r_i_glide_metal>
0

> <r_i_glide_rewards>
-1.94325238718795

> <r_i_glide_evdw>
-49.5083465576172

> <r_i_glide_ecoul>
-1.95315670967102

> <r_i_glide_erotb>
0.599719240882602

> <r_i_glide_esite>
0

> <r_i_glide_emodel>
-48.6597159581753

> <r_i_glide_energy>
-51.4615032672882

> <r_i_glide_einternal>
10.4581871032715

> <i_i_glide_confnum>
70

> <i_i_glide_posenum>
283

> <r_i_glide_eff_state_penalty>
0

> <s_user_duplicate_titles>
CHEMBL2061_lig333,151548

> <i_f3d_flags>
0

> <s_m_subgroup_title>
dock_pv

> <s_m_subgroupid>
dock_pv

> <b_m_subgroup_collapsed>
1

$$$$
CHEMBL2061_lig431
                    3D
 Schrodinger Suite 2021-1.
 52 55  0  0  1  0            999 V2000
   65.6823   45.3615   33.1761 C   0  0  0  0  0  0
   64.9016   45.5081   32.0712 N   0  0  0  0  0  0
   66.8079   44.8770   33.1979 O   0  0  0  0  0  0
   63.5843   46.0420   32.1209 C   0  0  0  0  0  0
   63.0412   46.4762   33.3463 C   0  0  0  0  0  0
   61.7103   46.8234   33.4967 C   0  0  0  0  0  0
   60.8917   46.7046   32.4068 C   0  0  0  0  0  0
   61.4157   46.3540   31.1688 C   0  0  0  0  0  0
   62.7530   46.0320   31.0211 C   0  0  0  0  0  0
   60.5476   46.3089   30.0232 C   0  0  0  0  0  0
   59.2763   45.7418   30.1870 C   0  0  0  0  0  0
   58.3453   45.8828   29.1856 C   0  0  0  0  0  0
   58.7698   46.4767   28.0254 C   0  0  0  0  0  0
   60.0341   46.9702   27.7890 C   0  0  0  0  0  0
   60.9518   46.9077   28.8171 C   0  0  0  0  0  0
   62.2068   47.4760   28.6955 O   0  0  0  0  0  0
   62.9387   47.2363   27.4959 C   0  0  0  0  0  0
   64.2306   47.4420   27.7389 F   0  0  0  0  0  0
   62.8079   45.9724   27.0875 F   0  0  0  0  0  0
   62.5633   48.0767   26.5390 F   0  0  0  0  0  0
   56.9124   45.5837   29.2882 C   0  0  0  0  0  0
   56.2081   45.3837   30.4108 C   0  0  0  0  0  0
   54.7928   45.2120   30.3167 C   0  0  0  0  0  0
   54.4081   44.0776   30.9390 O   0  0  0  0  0  0
   54.0204   45.9775   29.7389 O   0  0  0  0  0  0
   65.3829   44.8690   30.8216 C   0  0  0  0  0  0
   64.7384   43.4780   30.5970 C   0  0  0  0  0  0
   63.8332   46.3323   34.5235 C   0  0  0  0  0  0
   65.0500   45.7880   34.4111 C   0  0  0  0  0  0
   65.6080   45.5540   35.7390 C   0  0  0  0  0  0
   64.5914   46.0794   36.7370 C   0  0  0  0  0  0
   63.4089   46.5796   35.9472 C   0  0  0  0  0  0
   61.2873   47.0963   34.4519 H   0  0  0  0  0  0
   59.8387   46.8770   32.5391 H   0  0  0  0  0  0
   63.1052   45.7065   30.0561 H   0  0  0  0  0  0
   58.9826   45.2939   31.1243 H   0  0  0  0  0  0
   58.0080   46.5978   27.3390 H   0  0  0  0  0  0
   60.2603   47.4583   26.8545 H   0  0  0  0  0  0
   56.3851   45.5444   28.3409 H   0  0  0  0  0  0
   56.6512   45.3684   31.3958 H   0  0  0  0  0  0
   55.1785   43.6083   31.2691 H   0  0  0  0  0  0
   66.4713   44.7790   30.8063 H   0  0  0  0  0  0
   65.1762   45.5221   29.9732 H   0  0  0  0  0  0
   65.2078   42.9295   29.7842 H   0  0  0  0  0  0
   64.8080   42.8522   31.4877 H   0  0  0  0  0  0
   63.6820   43.5500   30.3410 H   0  0  0  0  0  0
   66.5541   46.0770   35.7390 H   0  0  0  0  0  0
   65.7497   44.4771   35.7390 H   0  0  0  0  0  0
   65.0143   46.8772   37.3391 H   0  0  0  0  0  0
   64.2807   45.2938   37.4233 H   0  0  0  0  0  0
   63.2039   47.6348   36.1348 H   0  0  0  0  0  0
   62.5105   45.9929   36.1389 H   0  0  0  0  0  0
  1 29  1  0  0  0
  1  2  1  0  0  0
  1  3  2  0  0  0
  2  4  1  0  0  0
  2 26  1  0  0  0
  4  5  2  0  0  0
  4  9  1  0  0  0
  5 28  1  0  0  0
  5  6  1  0  0  0
  6  7  2  0  0  0
  6 33  1  0  0  0
  7  8  1  0  0  0
  7 34  1  0  0  0
  8  9  2  0  0  0
  8 10  1  0  0  0
  9 35  1  0  0  0
 10 11  2  0  0  0
 10 15  1  0  0  0
 11 12  1  0  0  0
 11 36  1  0  0  0
 12 21  1  0  0  0
 12 13  2  0  0  0
 13 14  1  0  0  0
 13 37  1  0  0  0
 14 15  2  0  0  0
 14 38  1  0  0  0
 15 16  1  0  0  0
 16 17  1  0  0  0
 17 19  1  0  0  0
 17 20  1  0  0  0
 17 18  1  0  0  0
 21 22  2  0  0  0
 21 39  1  0  0  0
 22 23  1  0  0  0
 22 40  1  0  0  0
 23 24  1  0  0  0
 23 25  2  0  0  0
 24 41  1  0  0  0
 26 27  1  0  0  0
 26 42  1  0  0  0
 26 43  1  0  0  0
 27 44  1  0  0  0
 27 45  1  0  0  0
 27 46  1  0  0  0
 28 29  2  0  0  0
 28 32  1  0  0  0
 29 30  1  0  0  0
 30 31  1  0  0  0
 30 47  1  0  0  0
 30 48  1  0  0  0
 31 32  1  0  0  0
 31 49  1  0  0  0
 31 50  1  0  0  0
 32 51  1  0  0  0
 32 52  1  0  0  0
M  END
> <s_m_entry_id>
30844

> <s_m_entry_name>
dock_pv.57

> <s_m_Source_Path>
/home/csk/Desktop/cluster/DUD-E-result/rxra

> <s_m_Source_File>
dock_pv.maegz

> <i_m_Source_File_Index>
57

> <chembl_id>
CHEMBL247011

> <chembl_pref_name>
None

> <i_lp_mmshare_version>
53161

> <r_lp_tautomer_probability>
1

> <s_lp_Force_Field>
OPLS_2005

> <r_lp_Energy>
50.768509

> <b_lp_Chiralities_Consistent>
1

> <s_lp_Variant>
CHEMBL2061_lig431-1

> <s_i_glide_gridfile>
glide-grid_1mv9

> <i_i_glide_lignum>
502

> <i_i_glide_rotatable_bonds>
7

> <r_i_docking_score>
-11.413282096921

> <r_i_glide_ligand_efficiency>
-0.35666506552878

> <r_i_glide_ligand_efficiency_sa>
-1.13234099913325

> <r_i_glide_ligand_efficiency_ln>
-2.55574497582035

> <r_i_glide_gscore>
-11.413282096921

> <r_i_glide_lipo>
-6.11687492353874

> <r_i_glide_hbond>
-0.131907347358487

> <r_i_glide_metal>
0

> <r_i_glide_rewards>
-3.17791031401967

> <r_i_glide_evdw>
-31.8395099639893

> <r_i_glide_ecoul>
-5.34215402603149

> <r_i_glide_erotb>
0.40670909010013

> <r_i_glide_esite>
0

> <r_i_glide_emodel>
-78.9053914103657

> <r_i_glide_energy>
-37.1816639900208

> <r_i_glide_einternal>
6.4938440322876

> <i_i_glide_confnum>
9

> <i_i_glide_posenum>
383

> <r_i_glide_eff_state_penalty>
0

> <s_user_duplicate_titles>
CHEMBL2061_lig431

> <i_f3d_flags>
0

> <s_m_subgroup_title>
dock_pv

> <s_m_subgroupid>
dock_pv

> <b_m_subgroup_collapsed>
1

$$$$
CHEMBL2061_lig428
                    3D
 Schrodinger Suite 2021-1.
 59 61  0  0  1  0            999 V2000
   62.1909   46.1518   30.8745 C   0  0  0  0  0  0
   61.0363   46.4220   29.9834 C   0  0  0  0  0  0
   59.7694   46.0123   30.4017 C   0  0  0  0  0  0
   58.6732   46.0292   29.5459 C   0  0  0  0  0  0
   58.8696   46.4771   28.2415 C   0  0  0  0  0  0
   60.1000   46.9918   27.8352 C   0  0  0  0  0  0
   61.1908   46.9959   28.7129 C   0  0  0  0  0  0
   62.4159   47.5530   28.3998 O   0  0  0  0  0  0
   57.3561   45.6162   30.0686 C   0  0  0  0  0  0
   56.1639   45.8618   29.4808 C   0  0  0  0  0  0
   54.8852   45.4953   30.0348 C   0  0  0  0  0  0
   53.8474   46.0771   29.7390 O   0  0  0  0  0  0
   54.9304   44.4770   30.9388 O   0  0  0  0  0  0
   62.7901   47.7078   27.0328 C   0  0  0  0  0  0
   64.2874   48.0339   26.9513 C   0  0  0  0  0  0
   64.8076   47.8824   25.7390 F   0  0  0  0  0  0
   64.5550   49.2770   27.3390 F   0  0  0  0  0  0
   64.9422   47.2008   27.7390 F   0  0  0  0  0  0
   64.0790   46.6801   35.3675 C   0  0  0  0  0  0
   65.4366   46.3389   34.7375 C   0  0  0  0  0  0
   65.3907   45.2086   33.6702 C   0  0  0  0  0  0
   63.0378   46.5585   34.4988 N   0  0  0  0  0  0
   64.0080   47.0365   36.5390 O   0  0  0  0  0  0
   65.0934   43.8328   34.3036 C   0  0  0  0  0  0
   66.7731   45.2493   33.0053 C   0  0  0  0  0  0
   63.1631   46.2679   33.1125 C   0  0  0  0  0  0
   64.2786   45.5337   32.6661 C   0  0  0  0  0  0
   64.2992   45.0714   31.3458 C   0  0  0  0  0  0
   63.2546   45.3288   30.4655 C   0  0  0  0  0  0
   62.1623   46.6120   32.1935 C   0  0  0  0  0  0
   61.6883   46.8100   35.0577 C   0  0  0  0  0  0
   61.3926   48.2923   35.3222 C   0  0  0  0  0  0
   63.2536   44.5948   29.1265 C   0  0  0  0  0  0
   59.6420   45.6770   31.4192 H   0  0  0  0  0  0
   58.0495   46.4770   27.5508 H   0  0  0  0  0  0
   60.1897   47.4035   26.8436 H   0  0  0  0  0  0
   57.3934   45.0873   31.0113 H   0  0  0  0  0  0
   56.0948   46.4004   28.5478 H   0  0  0  0  0  0
   55.8076   44.0965   31.0017 H   0  0  0  0  0  0
   62.6208   46.7539   26.5390 H   0  0  0  0  0  0
   62.1996   48.4769   26.5390 H   0  0  0  0  0  0
   65.7939   47.2743   34.3034 H   0  0  0  0  0  0
   66.1224   46.0770   35.5399 H   0  0  0  0  0  0
   65.9204   43.5279   34.9391 H   0  0  0  0  0  0
   64.1835   43.8319   34.9047 H   0  0  0  0  0  0
   64.9827   43.0587   33.5427 H   0  0  0  0  0  0
   67.5665   45.0866   33.7389 H   0  0  0  0  0  0
   66.8649   44.4771   32.2476 H   0  0  0  0  0  0
   66.9429   46.2188   32.5389 H   0  0  0  0  0  0
   65.1082   44.4419   31.0092 H   0  0  0  0  0  0
   61.3199   47.2111   32.5046 H   0  0  0  0  0  0
   60.9142   46.3941   34.4130 H   0  0  0  0  0  0
   61.5778   46.2488   35.9877 H   0  0  0  0  0  0
   60.3516   48.4497   35.5967 H   0  0  0  0  0  0
   61.9951   48.6818   36.1429 H   0  0  0  0  0  0
   61.6080   48.8770   34.4312 H   0  0  0  0  0  0
   63.8750   43.6987   29.1603 H   0  0  0  0  0  0
   62.2502   44.2511   28.8722 H   0  0  0  0  0  0
   63.6090   45.2293   28.3202 H   0  0  0  0  0  0
  1  2  1  0  0  0
  1 29  1  0  0  0
  1 30  2  0  0  0
  2  3  2  0  0  0
  2  7  1  0  0  0
  3  4  1  0  0  0
  3 34  1  0  0  0
  4  5  2  0  0  0
  4  9  1  0  0  0
  5  6  1  0  0  0
  5 35  1  0  0  0
  6  7  2  0  0  0
  6 36  1  0  0  0
  7  8  1  0  0  0
  8 14  1  0  0  0
  9 10  2  0  0  0
  9 37  1  0  0  0
 10 11  1  0  0  0
 10 38  1  0  0  0
 11 12  2  0  0  0
 11 13  1  0  0  0
 13 39  1  0  0  0
 14 15  1  0  0  0
 14 40  1  0  0  0
 14 41  1  0  0  0
 15 16  1  0  0  0
 15 17  1  0  0  0
 15 18  1  0  0  0
 19 23  2  0  0  0
 19 20  1  0  0  0
 19 22  1  0  0  0
 20 21  1  0  0  0
 20 42  1  0  0  0
 20 43  1  0  0  0
 21 24  1  0  0  0
 21 25  1  0  0  0
 21 27  1  0  0  0
 22 31  1  0  0  0
 22 26  1  0  0  0
 24 44  1  0  0  0
 24 45  1  0  0  0
 24 46  1  0  0  0
 25 47  1  0  0  0
 25 48  1  0  0  0
 25 49  1  0  0  0
 26 30  1  0  0  0
 26 27  2  0  0  0
 27 28  1  0  0  0
 28 29  2  0  0  0
 28 50  1  0  0  0
 29 33  1  0  0  0
 30 51  1  0  0  0
 31 32  1  0  0  0
 31 52  1  0  0  0
 31 53  1  0  0  0
 32 54  1  0  0  0
 32 55  1  0  0  0
 32 56  1  0  0  0
 33 57  1  0  0  0
 33 58  1  0  0  0
 33 59  1  0  0  0
M  END
> <s_m_entry_id>
30845

> <s_m_entry_name>
dock_pv.58

> <s_m_Source_Path>
/home/csk/Desktop/cluster/DUD-E-result/rxra

> <s_m_Source_File>
dock_pv.maegz

> <i_m_Source_File_Index>
58

> <chembl_id>
CHEMBL400557

> <chembl_pref_name>
None

> <i_lp_mmshare_version>
53161

> <r_lp_tautomer_probability>
1

> <s_lp_Force_Field>
OPLS_2005

> <r_lp_Energy>
40.30039

> <b_lp_Chiralities_Consistent>
1

> <s_lp_Variant>
CHEMBL2061_lig428-1

> <s_i_glide_gridfile>
glide-grid_1mv9

> <i_i_glide_lignum>
499

> <i_i_glide_rotatable_bonds>
8

> <r_i_docking_score>
-11.4028094933411

> <r_i_glide_ligand_efficiency>
-0.345539681616396

> <r_i_glide_ligand_efficiency_sa>
-1.10833038986866

> <r_i_glide_ligand_efficiency_ln>
-2.53592579073128

> <r_i_glide_gscore>
-11.4028094933411

> <r_i_glide_lipo>
-6.27163876101847

> <r_i_glide_hbond>
-0.171012262357655

> <r_i_glide_metal>
0

> <r_i_glide_rewards>
-2.38192537975192

> <r_i_glide_evdw>
-48.712833404541

> <r_i_glide_ecoul>
-4.10248374938965

> <r_i_glide_erotb>
0.472781142422455

> <r_i_glide_esite>
0

> <r_i_glide_emodel>
-80.9642041819074

> <r_i_glide_energy>
-52.8153171539307

> <r_i_glide_einternal>
4.39224576950073

> <i_i_glide_confnum>
291

> <i_i_glide_posenum>
305

> <r_i_glide_eff_state_penalty>
0

> <s_user_duplicate_titles>
CHEMBL2061_lig428,414778

> <i_f3d_flags>
0

> <s_m_subgroup_title>
dock_pv

> <s_m_subgroupid>
dock_pv

> <b_m_subgroup_collapsed>
1

$$$$
CHEMBL2061_lig457
                    3D
 Schrodinger Suite 2021-1.
 59 62  0  0  1  0            999 V2000
   64.0077   46.9541   35.3962 C   0  0  0  0  0  0
   65.3578   46.4218   34.8832 C   0  0  0  0  0  0
   65.3015   45.3069   33.8015 C   0  0  0  0  0  0
   63.0209   46.9222   34.4610 N   0  0  0  0  0  0
   63.9066   47.3984   36.5390 O   0  0  0  0  0  0
   64.9592   43.9468   34.4406 C   0  0  0  0  0  0
   66.6934   45.3143   33.1379 C   0  0  0  0  0  0
   63.1559   46.4780   33.1182 C   0  0  0  0  0  0
   64.2279   45.6368   32.7639 C   0  0  0  0  0  0
   64.2548   45.0677   31.4853 C   0  0  0  0  0  0
   63.2541   45.3090   30.5554 C   0  0  0  0  0  0
   62.2190   46.1984   30.8809 C   0  0  0  0  0  0
   62.1861   46.7761   32.1504 C   0  0  0  0  0  0
   61.0989   46.4411   29.9507 C   0  0  0  0  0  0
   59.8198   46.0454   30.3406 C   0  0  0  0  0  0
   58.7559   46.0820   29.4515 C   0  0  0  0  0  0
   58.9979   46.4793   28.1391 C   0  0  0  0  0  0
   60.2483   46.9554   27.7546 C   0  0  0  0  0  0
   61.3059   46.9726   28.6705 C   0  0  0  0  0  0
   57.3703   45.6997   29.9459 C   0  0  2  0  0  0
   62.5529   47.4879   28.3788 O   0  0  0  0  0  0
   61.7190   47.4827   34.8776 C   0  0  0  0  0  0
   63.2724   44.5007   29.2606 C   0  0  0  0  0  0
   56.8443   44.3251   29.7393 C   0  0  0  0  0  0
   56.1847   45.4903   29.0100 C   0  0  1  0  0  0
   54.8543   45.9959   29.5723 C   0  0  0  0  0  0
   54.2553   46.8775   28.7245 O   0  0  0  0  0  0
   54.4082   45.6736   30.6702 O   0  0  0  0  0  0
   62.9545   47.5921   27.0184 C   0  0  0  0  0  0
   64.4588   47.8519   26.9573 C   0  0  0  0  0  0
   65.0852   46.9872   27.7390 F   0  0  0  0  0  0
   64.9473   47.6770   25.7390 F   0  0  0  0  0  0
   64.7747   49.0869   27.3388 F   0  0  0  0  0  0
   65.8577   47.3069   34.4896 H   0  0  0  0  0  0
   65.9398   46.0770   35.7377 H   0  0  0  0  0  0
   65.8008   43.6017   35.0333 H   0  0  0  0  0  0
   64.0783   43.9943   35.0822 H   0  0  0  0  0  0
   64.7765   43.1796   33.6867 H   0  0  0  0  0  0
   67.4939   45.2340   33.8750 H   0  0  0  0  0  0
   66.8085   44.4772   32.4558 H   0  0  0  0  0  0
   66.8448   46.2322   32.5690 H   0  0  0  0  0  0
   65.0369   44.3729   31.2214 H   0  0  0  0  0  0
   61.3585   47.4291   32.3818 H   0  0  0  0  0  0
   59.6548   45.6780   31.3433 H   0  0  0  0  0  0
   58.2101   46.4771   27.4139 H   0  0  0  0  0  0
   60.3826   47.3230   26.7492 H   0  0  0  0  0  0
   57.1735   46.0770   30.9520 H   0  0  0  0  0  0
   61.5916   47.5509   35.9599 H   0  0  0  0  0  0
   61.6079   48.4879   34.4719 H   0  0  0  0  0  0
   60.8976   46.8647   34.5135 H   0  0  0  0  0  0
   63.7868   45.0425   28.4717 H   0  0  0  0  0  0
   63.7725   43.5406   29.4014 H   0  0  0  0  0  0
   62.2642   44.2597   28.9206 H   0  0  0  0  0  0
   56.3388   43.8215   30.5639 H   0  0  0  0  0  0
   57.5449   43.6771   29.2353 H   0  0  0  0  0  0
   56.3036   45.5640   27.9305 H   0  0  0  0  0  0
   54.8049   47.0470   27.9576 H   0  0  0  0  0  0
   62.7600   46.6340   26.5388 H   0  0  0  0  0  0
   62.4081   48.3746   26.4937 H   0  0  0  0  0  0
  1  5  2  0  0  0
  1  2  1  0  0  0
  1  4  1  0  0  0
  2  3  1  0  0  0
  2 34  1  0  0  0
  2 35  1  0  0  0
  3  9  1  0  0  0
  3  6  1  0  0  0
  3  7  1  0  0  0
  4  8  1  0  0  0
  4 22  1  0  0  0
  6 36  1  0  0  0
  6 37  1  0  0  0
  6 38  1  0  0  0
  7 39  1  0  0  0
  7 40  1  0  0  0
  7 41  1  0  0  0
  8  9  2  0  0  0
  8 13  1  0  0  0
  9 10  1  0  0  0
 10 11  2  0  0  0
 10 42  1  0  0  0
 11 23  1  0  0  0
 11 12  1  0  0  0
 12 14  1  0  0  0
 12 13  2  0  0  0
 13 43  1  0  0  0
 14 19  1  0  0  0
 14 15  2  0  0  0
 15 16  1  0  0  0
 15 44  1  0  0  0
 16 17  2  0  0  0
 16 20  1  0  0  0
 17 18  1  0  0  0
 17 45  1  0  0  0
 18 19  2  0  0  0
 18 46  1  0  0  0
 19 21  1  0  0  0
 20 24  1  0  0  0
 20 25  1  0  0  0
 20 47  1  0  0  0
 21 29  1  0  0  0
 22 48  1  0  0  0
 22 49  1  0  0  0
 22 50  1  0  0  0
 23 51  1  0  0  0
 23 52  1  0  0  0
 23 53  1  0  0  0
 24 25  1  0  0  0
 24 54  1  0  0  0
 24 55  1  0  0  0
 25 26  1  0  0  0
 25 56  1  0  0  0
 26 27  1  0  0  0
 26 28  2  0  0  0
 27 57  1  0  0  0
 29 30  1  0  0  0
 29 58  1  0  0  0
 29 59  1  0  0  0
 30 31  1  0  0  0
 30 32  1  0  0  0
 30 33  1  0  0  0
M  END
> <s_m_entry_id>
30846

> <s_m_entry_name>
dock_pv.59

> <s_m_Source_Path>
/home/csk/Desktop/cluster/DUD-E-result/rxra

> <s_m_Source_File>
dock_pv.maegz

> <i_m_Source_File_Index>
59

> <chembl_id>
CHEMBL247400

> <chembl_pref_name>
None

> <i_lp_mmshare_version>
53161

> <r_lp_tautomer_probability>
1

> <s_lp_Force_Field>
OPLS_2005

> <r_lp_Energy>
42.482003

> <b_lp_Chiralities_Consistent>
1

> <s_lp_Variant>
CHEMBL2061_lig457-1

> <s_i_glide_gridfile>
glide-grid_1mv9

> <i_i_glide_lignum>
533

> <i_i_glide_rotatable_bonds>
7

> <r_i_docking_score>
-11.3925181489047

> <r_i_glide_ligand_efficiency>
-0.345227822694082

> <r_i_glide_ligand_efficiency_sa>
-1.10733009167038

> <r_i_glide_ligand_efficiency_ln>
-2.53363704901436

> <r_i_glide_gscore>
-11.3925181489047

> <r_i_glide_lipo>
-6.47793647421376

> <r_i_glide_hbond>
-0.16

> <r_i_glide_metal>
0

> <r_i_glide_rewards>
-2.27438771087407

> <r_i_glide_evdw>
-48.7852783203125

> <r_i_glide_ecoul>
-3.42474126815796

> <r_i_glide_erotb>
0.472781142422455

> <r_i_glide_esite>
0

> <r_i_glide_emodel>
-80.5280488325023

> <r_i_glide_energy>
-52.2100195884705

> <r_i_glide_einternal>
5.46401453018188

> <i_i_glide_confnum>
382

> <i_i_glide_posenum>
226

> <r_i_glide_eff_state_penalty>
0

> <s_user_duplicate_titles>
CHEMBL2061_lig457

> <i_f3d_flags>
0

> <s_m_subgroup_title>
dock_pv

> <s_m_subgroupid>
dock_pv

> <b_m_subgroup_collapsed>
1

$$$$
CHEMBL2061_lig511
                    3D
 Schrodinger Suite 2021-1.
 59 63  0  0  1  0            999 V2000
   64.4079   45.0927   35.2465 C   0  0  0  0  0  0
   63.9362   46.5231   35.4403 C   0  0  0  0  0  0
   62.8188   46.9584   34.4556 C   0  0  0  0  0  0
   64.9711   44.8202   33.8279 C   0  0  0  0  0  0
   64.0284   45.3940   32.7453 C   0  0  0  0  0  0
   63.0657   46.4110   33.0254 C   0  0  0  0  0  0
   62.2439   46.8621   31.9720 C   0  0  0  0  0  0
   64.1364   44.9185   31.4249 C   0  0  0  0  0  0
   66.3484   45.5089   33.6678 C   0  0  0  0  0  0
   65.0670   43.2770   33.7123 C   0  0  0  0  0  0
   61.4272   46.4766   34.9361 C   0  0  0  0  0  0
   62.8895   48.4835   34.4702 C   0  0  0  0  0  0
   63.2603   45.3447   30.4501 C   0  0  0  0  0  0
   62.3018   46.2915   30.7015 C   0  0  0  0  0  0
   63.2455   44.8555   29.1765 O   0  0  0  0  0  0
   62.2825   45.6125   28.4525 C   0  0  1  0  0  0
   61.4886   46.5132   29.4440 C   0  0  2  0  0  0
   61.6359   47.9287   28.8486 C   0  0  0  0  0  0
   62.1604   47.8018   27.4209 C   0  0  0  0  0  0
   63.0200   46.5527   27.4893 C   0  0  0  0  0  0
   59.9935   46.1157   29.5771 C   0  0  0  0  0  0
   59.4379   45.6921   30.7898 C   0  0  0  0  0  0
   58.0953   45.3635   30.9134 C   0  0  0  0  0  0
   57.2557   45.4930   29.8129 C   0  0  0  0  0  0
   57.7857   45.9462   28.5996 C   0  0  0  0  0  0
   59.1396   46.2374   28.4781 C   0  0  0  0  0  0
   55.7890   45.2171   29.9555 C   0  0  0  0  0  0
   55.2079   44.8771   28.7832 O   0  0  0  0  0  0
   55.1789   45.2772   31.0230 O   0  0  0  0  0  0
   61.6392   44.9263   27.8989 H   0  0  0  0  0  0
   63.5754   44.4294   35.4751 H   0  0  0  0  0  0
   65.1683   44.8772   35.9953 H   0  0  0  0  0  0
   64.8081   47.1658   35.3314 H   0  0  0  0  0  0
   63.6198   46.6723   36.4738 H   0  0  0  0  0  0
   61.4931   47.6125   32.1668 H   0  0  0  0  0  0
   64.8866   44.1986   31.1434 H   0  0  0  0  0  0
   67.0443   45.2068   34.4519 H   0  0  0  0  0  0
   66.8067   45.2439   32.7148 H   0  0  0  0  0  0
   66.2764   46.5967   33.6930 H   0  0  0  0  0  0
   65.9296   42.8924   34.2524 H   0  0  0  0  0  0
   64.1748   42.7714   34.0855 H   0  0  0  0  0  0
   65.2071   42.9061   32.7037 H   0  0  0  0  0  0
   61.3425   46.4426   36.0220 H   0  0  0  0  0  0
   60.6385   47.1425   34.5840 H   0  0  0  0  0  0
   61.1678   45.4991   34.5394 H   0  0  0  0  0  0
   62.7397   48.8750   35.4780 H   0  0  0  0  0  0
   63.8587   48.8538   34.1384 H   0  0  0  0  0  0
   62.1337   48.9448   33.8355 H   0  0  0  0  0  0
   62.3626   48.4771   29.4435 H   0  0  0  0  0  0
   60.6988   48.4770   28.8792 H   0  0  0  0  0  0
   62.7285   48.6793   27.1077 H   0  0  0  0  0  0
   61.3413   47.6717   26.7128 H   0  0  0  0  0  0
   64.0160   46.7934   27.8678 H   0  0  0  0  0  0
   63.1547   46.0970   26.5132 H   0  0  0  0  0  0
   60.0305   45.6770   31.6872 H   0  0  0  0  0  0
   57.7143   45.0577   31.8780 H   0  0  0  0  0  0
   57.1519   46.0783   27.7391 H   0  0  0  0  0  0
   59.5156   46.5754   27.5247 H   0  0  0  0  0  0
   55.8674   44.6406   28.1302 H   0  0  0  0  0  0
  1  2  1  0  0  0
  1  4  1  0  0  0
  1 31  1  0  0  0
  1 32  1  0  0  0
  2  3  1  0  0  0
  2 33  1  0  0  0
  2 34  1  0  0  0
  3  6  1  0  0  0
  3 11  1  0  0  0
  3 12  1  0  0  0
  4  5  1  0  0  0
  4  9  1  0  0  0
  4 10  1  0  0  0
  5  6  2  0  0  0
  5  8  1  0  0  0
  6  7  1  0  0  0
  7 14  2  0  0  0
  7 35  1  0  0  0
  8 13  2  0  0  0
  8 36  1  0  0  0
  9 37  1  0  0  0
  9 38  1  0  0  0
  9 39  1  0  0  0
 10 40  1  0  0  0
 10 41  1  0  0  0
 10 42  1  0  0  0
 11 43  1  0  0  0
 11 44  1  0  0  0
 11 45  1  0  0  0
 12 46  1  0  0  0
 12 47  1  0  0  0
 12 48  1  0  0  0
 13 14  1  0  0  0
 13 15  1  0  0  0
 14 17  1  0  0  0
 15 16  1  0  0  0
 16 17  1  0  0  0
 16 20  1  0  0  0
 16 30  1  0  0  0
 17 18  1  0  0  0
 17 21  1  0  0  0
 18 19  1  0  0  0
 18 49  1  0  0  0
 18 50  1  0  0  0
 19 20  1  0  0  0
 19 51  1  0  0  0
 19 52  1  0  0  0
 20 53  1  0  0  0
 20 54  1  0  0  0
 21 22  2  0  0  0
 21 26  1  0  0  0
 22 23  1  0  0  0
 22 55  1  0  0  0
 23 24  2  0  0  0
 23 56  1  0  0  0
 24 25  1  0  0  0
 24 27  1  0  0  0
 25 26  2  0  0  0
 25 57  1  0  0  0
 26 58  1  0  0  0
 27 28  1  0  0  0
 27 29  2  0  0  0
 28 59  1  0  0  0
M  END
> <s_m_entry_id>
30847

> <s_m_entry_name>
dock_pv.60

> <s_m_Source_Path>
/home/csk/Desktop/cluster/DUD-E-result/rxra

> <s_m_Source_File>
dock_pv.maegz

> <i_m_Source_File_Index>
60

> <chembl_id>
CHEMBL3781132

> <chembl_pref_name>
None

> <i_lp_mmshare_version>
53161

> <r_lp_tautomer_probability>
1

> <s_lp_Force_Field>
OPLS_2005

> <r_lp_Energy>
52.48862

> <b_lp_Chiralities_Consistent>
1

> <s_lp_Variant>
CHEMBL2061_lig511-1

> <s_i_glide_gridfile>
glide-grid_1mv9

> <i_i_glide_lignum>
604

> <i_i_glide_rotatable_bonds>
3

> <r_i_docking_score>
-11.3839766459791

> <r_i_glide_ligand_efficiency>
-0.392550918826866

> <r_i_glide_ligand_efficiency_sa>
-1.20604079149652

> <r_i_glide_ligand_efficiency_ln>
-2.60664197918884

> <r_i_glide_gscore>
-11.3839766459791

> <r_i_glide_lipo>
-6.92537740008112

> <r_i_glide_hbond>
0

> <r_i_glide_metal>
0

> <r_i_glide_rewards>
-2.09095461201261

> <r_i_glide_evdw>
-49.5389213562012

> <r_i_glide_ecoul>
-0.97668194770813

> <r_i_glide_erotb>
0.255803726080893

> <r_i_glide_esite>
0

> <r_i_glide_emodel>
-71.6372297341018

> <r_i_glide_energy>
-50.5156033039093

> <r_i_glide_einternal>
3.23795032501221

> <i_i_glide_confnum>
6

> <i_i_glide_posenum>
363

> <r_i_glide_eff_state_penalty>
0

> <s_user_duplicate_titles>
CHEMBL2061_lig511,CHEMBL2061_lig516

> <i_f3d_flags>
0

> <s_m_subgroup_title>
dock_pv

> <s_m_subgroupid>
dock_pv

> <b_m_subgroup_collapsed>
1

$$$$
CHEMBL2061_lig313
                    3D
 Schrodinger Suite 2021-1.
 51 53  0  0  1  0            999 V2000
   62.9446   46.4524   33.0709 C   0  0  0  0  0  0
   55.9028   45.5369   29.5908 C   0  0  0  0  0  0
   57.0708   45.0924   30.7861 S   0  0  0  0  0  0
   64.1122   45.7309   32.6851 C   0  0  0  0  0  0
   58.3624   45.7248   29.8139 C   0  0  0  0  0  0
   61.9631   46.6789   32.0931 C   0  0  0  0  0  0
   59.6802   45.8636   30.3966 C   0  0  0  0  0  0
   60.8880   46.1825   29.8790 C   0  0  0  0  0  0
   54.5110   45.4278   29.8699 C   0  0  0  0  0  0
   56.5144   45.9981   28.4370 C   0  0  0  0  0  0
   62.0597   46.1868   30.7868 C   0  0  0  0  0  0
   62.7233   46.9870   34.5142 C   0  0  0  0  0  0
   65.1989   45.3087   33.7017 C   0  0  0  0  0  0
   57.9059   46.0770   28.5513 C   0  0  0  0  0  0
   64.2306   45.3162   31.3477 C   0  0  0  0  0  0
   63.2287   45.5338   30.4146 C   0  0  0  0  0  0
   54.0081   44.5298   30.5389 O   0  0  0  0  0  0
   63.6763   46.2823   35.5122 C   0  0  0  0  0  0
   65.1027   46.1794   34.9709 C   0  0  0  0  0  0
   53.8186   46.4771   29.3388 O   0  0  0  0  0  0
   61.1200   46.5373   28.4161 C   0  0  0  0  0  0
   63.0353   48.4931   34.5301 C   0  0  0  0  0  0
   61.2818   46.7132   35.0177 C   0  0  0  0  0  0
   64.9645   43.8262   34.0870 C   0  0  0  0  0  0
   66.6155   45.5376   33.1283 C   0  0  0  0  0  0
   61.0682   47.2137   32.3698 H   0  0  0  0  0  0
   59.6456   45.6769   31.4591 H   0  0  0  0  0  0
   55.9826   46.2832   27.5406 H   0  0  0  0  0  0
   58.5315   46.4472   27.7550 H   0  0  0  0  0  0
   65.0873   44.7475   31.0231 H   0  0  0  0  0  0
   63.3386   45.1181   29.4236 H   0  0  0  0  0  0
   63.3106   45.2829   35.7515 H   0  0  0  0  0  0
   63.6901   46.8100   36.4679 H   0  0  0  0  0  0
   65.7575   45.7815   35.7393 H   0  0  0  0  0  0
   65.4799   47.1800   34.7637 H   0  0  0  0  0  0
   54.4097   47.0819   28.8848 H   0  0  0  0  0  0
   62.1593   46.8104   28.2256 H   0  0  0  0  0  0
   60.8794   45.6903   27.7733 H   0  0  0  0  0  0
   60.5166   47.3986   28.1297 H   0  0  0  0  0  0
   62.9828   48.8771   35.5483 H   0  0  0  0  0  0
   64.0261   48.7207   34.1440 H   0  0  0  0  0  0
   62.3237   49.0506   33.9200 H   0  0  0  0  0  0
   61.1770   46.9541   36.0764 H   0  0  0  0  0  0
   60.5319   47.3017   34.4967 H   0  0  0  0  0  0
   60.9949   45.6766   34.8891 H   0  0  0  0  0  0
   65.5911   43.5375   34.9325 H   0  0  0  0  0  0
   63.9295   43.6226   34.3638 H   0  0  0  0  0  0
   65.2054   43.1568   33.2604 H   0  0  0  0  0  0
   67.3854   45.3303   33.8732 H   0  0  0  0  0  0
   66.8080   44.8769   32.2854 H   0  0  0  0  0  0
   66.7562   46.5645   32.7862 H   0  0  0  0  0  0
  1  4  2  0  0  0
  1  6  1  0  0  0
  1 12  1  0  0  0
  2  3  1  0  0  0
  2  9  1  0  0  0
  2 10  2  0  0  0
  3  5  1  0  0  0
  4 13  1  0  0  0
  4 15  1  0  0  0
  5  7  1  0  0  0
  5 14  2  0  0  0
  6 11  2  0  0  0
  6 26  1  0  0  0
  7  8  2  0  0  0
  7 27  1  0  0  0
  8 11  1  0  0  0
  8 21  1  0  0  0
  9 17  2  0  0  0
  9 20  1  0  0  0
 10 14  1  0  0  0
 10 28  1  0  0  0
 11 16  1  0  0  0
 12 18  1  0  0  0
 12 22  1  0  0  0
 12 23  1  0  0  0
 13 24  1  0  0  0
 13 25  1  0  0  0
 13 19  1  0  0  0
 14 29  1  0  0  0
 15 16  2  0  0  0
 15 30  1  0  0  0
 16 31  1  0  0  0
 18 19  1  0  0  0
 18 32  1  0  0  0
 18 33  1  0  0  0
 19 34  1  0  0  0
 19 35  1  0  0  0
 20 36  1  0  0  0
 21 37  1  0  0  0
 21 38  1  0  0  0
 21 39  1  0  0  0
 22 40  1  0  0  0
 22 41  1  0  0  0
 22 42  1  0  0  0
 23 43  1  0  0  0
 23 44  1  0  0  0
 23 45  1  0  0  0
 24 46  1  0  0  0
 24 47  1  0  0  0
 24 48  1  0  0  0
 25 49  1  0  0  0
 25 50  1  0  0  0
 25 51  1  0  0  0
M  END
> <s_m_entry_id>
30848

> <s_m_entry_name>
dock_pv.61

> <s_m_Source_Path>
/home/csk/Desktop/cluster/DUD-E-result/rxra

> <s_m_Source_File>
dock_pv.maegz

> <i_m_Source_File_Index>
61

> <chembl_id>
CHEMBL93538

> <chembl_pref_name>
None

> <i_lp_mmshare_version>
53161

> <r_lp_tautomer_probability>
1

> <s_lp_Force_Field>
OPLS_2005

> <r_lp_Energy>
24.850352

> <b_lp_Chiralities_Consistent>
1

> <s_lp_Variant>
CHEMBL2061_lig313-1

> <s_i_glide_gridfile>
glide-grid_1mv9

> <i_i_glide_lignum>
361

> <i_i_glide_rotatable_bonds>
4

> <r_i_docking_score>
-11.3716672018829

> <r_i_glide_ligand_efficiency>
-0.454866688075315

> <r_i_glide_ligand_efficiency_sa>
-1.33003826302728

> <r_i_glide_ligand_efficiency_ln>
-2.69542590821291

> <r_i_glide_gscore>
-11.3716672018829

> <r_i_glide_lipo>
-6.12892636628638

> <r_i_glide_hbond>
-0.32

> <r_i_glide_metal>
0

> <r_i_glide_rewards>
-2.3962898409191

> <r_i_glide_evdw>
-43.8410873413086

> <r_i_glide_ecoul>
-5.27041625976562

> <r_i_glide_erotb>
0.456165811352881

> <r_i_glide_esite>
0

> <r_i_glide_emodel>
-72.2189158653393

> <r_i_glide_energy>
-49.1115036010742

> <r_i_glide_einternal>
5.13925218582153

> <i_i_glide_confnum>
22

> <i_i_glide_posenum>
173

> <r_i_glide_eff_state_penalty>
0

> <s_user_duplicate_titles>
CHEMBL2061_lig313

> <i_f3d_flags>
0

> <s_m_subgroup_title>
dock_pv

> <s_m_subgroupid>
dock_pv

> <b_m_subgroup_collapsed>
1

$$$$
CHEMBL2061_lig368
                    3D
 Schrodinger Suite 2021-1.
 57 59  0  0  1  0            999 V2000
   62.8288   46.4836   32.8415 C   0  0  0  0  0  0
   63.9365   45.6770   32.4647 C   0  0  0  0  0  0
   61.9541   46.3407   30.5311 C   0  0  0  0  0  0
   60.8840   46.7091   29.5564 C   0  0  0  0  0  0
   61.9031   46.8358   31.8407 C   0  0  0  0  0  0
   63.9966   45.2113   31.1427 C   0  0  0  0  0  0
   63.0264   45.5041   30.1868 C   0  0  0  0  0  0
   62.6173   46.9840   34.2994 C   0  0  0  0  0  0
   65.0327   45.2289   33.4629 C   0  0  0  0  0  0
   55.3866   44.9589   30.3173 C   0  0  0  0  0  0
   59.5055   46.1246   29.6990 C   0  0  0  0  0  0
   56.8310   45.2770   30.0668 C   0  0  0  0  0  0
   61.2030   47.5629   28.5601 C   0  0  0  0  0  0
   64.9637   46.0582   34.7697 C   0  0  0  0  0  0
   63.5360   46.2204   35.2913 C   0  0  0  0  0  0
   54.8080   45.3028   31.3390 O   0  0  0  0  0  0
   58.5982   46.0959   28.6275 C   0  0  0  0  0  0
   59.0420   45.6770   30.9390 C   0  0  0  0  0  0
   57.7285   45.2770   31.1317 C   0  0  0  0  0  0
   57.2785   45.6770   28.8061 C   0  0  0  0  0  0
   54.7695   44.2567   29.3390 O   0  0  0  0  0  0
   63.1720   44.8524   28.8123 C   0  0  0  0  0  0
   62.9672   48.4851   34.3822 C   0  0  0  0  0  0
   64.8121   43.7323   33.7974 C   0  0  0  0  0  0
   66.4358   45.4988   32.8705 C   0  0  0  0  0  0
   61.1638   46.7064   34.7616 C   0  0  0  0  0  0
   62.6680   43.4004   28.7953 C   0  0  0  0  0  0
   61.0892   47.4954   32.0987 H   0  0  0  0  0  0
   64.8045   44.5561   30.8536 H   0  0  0  0  0  0
   62.2030   47.9642   28.4755 H   0  0  0  0  0  0
   60.4901   47.8867   27.8177 H   0  0  0  0  0  0
   65.5869   45.6037   35.5415 H   0  0  0  0  0  0
   65.3935   47.0474   34.6105 H   0  0  0  0  0  0
   63.1330   45.2326   35.5106 H   0  0  0  0  0  0
   63.5634   46.7313   36.2551 H   0  0  0  0  0  0
   58.8980   46.4195   27.6426 H   0  0  0  0  0  0
   59.6737   45.6777   31.8107 H   0  0  0  0  0  0
   57.4202   45.0038   32.1292 H   0  0  0  0  0  0
   56.6056   45.7123   27.9606 H   0  0  0  0  0  0
   55.3747   43.9361   28.6640 H   0  0  0  0  0  0
   62.6646   45.4219   28.0363 H   0  0  0  0  0  0
   64.2271   44.8770   28.5390 H   0  0  0  0  0  0
   62.8080   48.8703   35.3902 H   0  0  0  0  0  0
   64.0080   48.6867   34.1390 H   0  0  0  0  0  0
   62.3533   49.0805   33.7058 H   0  0  0  0  0  0
   65.5302   43.3824   34.5390 H   0  0  0  0  0  0
   63.8127   43.5333   34.1842 H   0  0  0  0  0  0
   64.9385   43.1023   32.9168 H   0  0  0  0  0  0
   67.2142   45.2873   33.6040 H   0  0  0  0  0  0
   66.6512   44.8770   32.0026 H   0  0  0  0  0  0
   66.5510   46.5392   32.5618 H   0  0  0  0  0  0
   61.0247   46.9632   35.8126 H   0  0  0  0  0  0
   60.4272   47.2770   34.2033 H   0  0  0  0  0  0
   60.8919   45.6611   34.6423 H   0  0  0  0  0  0
   62.7981   42.9466   27.8132 H   0  0  0  0  0  0
   63.2080   42.7837   29.5147 H   0  0  0  0  0  0
   61.6080   43.3477   29.0413 H   0  0  0  0  0  0
  1  2  2  0  0  0
  1  5  1  0  0  0
  1  8  1  0  0  0
  2  6  1  0  0  0
  2  9  1  0  0  0
  3  5  2  0  0  0
  3  4  1  0  0  0
  3  7  1  0  0  0
  4 11  1  0  0  0
  4 13  2  0  0  0
  5 28  1  0  0  0
  6  7  2  0  0  0
  6 29  1  0  0  0
  7 22  1  0  0  0
  8 15  1  0  0  0
  8 23  1  0  0  0
  8 26  1  0  0  0
  9 24  1  0  0  0
  9 25  1  0  0  0
  9 14  1  0  0  0
 10 12  1  0  0  0
 10 16  2  0  0  0
 10 21  1  0  0  0
 11 17  2  0  0  0
 11 18  1  0  0  0
 12 19  1  0  0  0
 12 20  2  0  0  0
 13 30  1  0  0  0
 13 31  1  0  0  0
 14 15  1  0  0  0
 14 32  1  0  0  0
 14 33  1  0  0  0
 15 34  1  0  0  0
 15 35  1  0  0  0
 17 20  1  0  0  0
 17 36  1  0  0  0
 18 19  2  0  0  0
 18 37  1  0  0  0
 19 38  1  0  0  0
 20 39  1  0  0  0
 21 40  1  0  0  0
 22 27  1  0  0  0
 22 41  1  0  0  0
 22 42  1  0  0  0
 23 43  1  0  0  0
 23 44  1  0  0  0
 23 45  1  0  0  0
 24 46  1  0  0  0
 24 47  1  0  0  0
 24 48  1  0  0  0
 25 49  1  0  0  0
 25 50  1  0  0  0
 25 51  1  0  0  0
 26 52  1  0  0  0
 26 53  1  0  0  0
 26 54  1  0  0  0
 27 55  1  0  0  0
 27 56  1  0  0  0
 27 57  1  0  0  0
M  END
> <s_m_entry_id>
30849

> <s_m_entry_name>
dock_pv.62

> <s_m_Source_Path>
/home/csk/Desktop/cluster/DUD-E-result/rxra

> <s_m_Source_File>
dock_pv.maegz

> <i_m_Source_File_Index>
62

> <chembl_id>
CHEMBL100623

> <chembl_pref_name>
None

> <i_lp_mmshare_version>
53161

> <r_lp_tautomer_probability>
1

> <s_lp_Force_Field>
OPLS_2005

> <r_lp_Energy>
30.303619

> <b_lp_Chiralities_Consistent>
1

> <s_lp_Variant>
CHEMBL2061_lig368-1

> <s_i_glide_gridfile>
glide-grid_1mv9

> <i_i_glide_lignum>
428

> <i_i_glide_rotatable_bonds>
5

> <r_i_docking_score>
-11.3684638762811

> <r_i_glide_ligand_efficiency>
-0.421054217640042

> <r_i_glide_ligand_efficiency_sa>
-1.2631626515324

> <r_i_glide_ligand_efficiency_ln>
-2.64639096662328

> <r_i_glide_gscore>
-11.3684638762811

> <r_i_glide_lipo>
-6.77950758459649

> <r_i_glide_hbond>
-0.0336722987746282

> <r_i_glide_metal>
0

> <r_i_glide_rewards>
-2.17867597851335

> <r_i_glide_evdw>
-45.6331253051758

> <r_i_glide_ecoul>
-3.55559372901917

> <r_i_glide_erotb>
0.438387310214999

> <r_i_glide_esite>
0

> <r_i_glide_emodel>
-77.263309655797

> <r_i_glide_energy>
-49.1887190341949

> <r_i_glide_einternal>
6.13221502304077

> <i_i_glide_confnum>
16

> <i_i_glide_posenum>
327

> <r_i_glide_eff_state_penalty>
0

> <s_user_duplicate_titles>
CHEMBL2061_lig368,163521

> <i_f3d_flags>
0

> <s_m_subgroup_title>
dock_pv

> <s_m_subgroupid>
dock_pv

> <b_m_subgroup_collapsed>
1

$$$$
CHEMBL2061_lig335
                    3D
 Schrodinger Suite 2021-1.
 57 59  0  0  1  0            999 V2000
   62.7854   46.5217   29.9875 C   0  0  0  0  0  0
   63.2532   46.3638   31.3890 C   0  0  0  0  0  0
   61.4325   46.4360   29.5596 C   0  0  0  0  0  0
   64.3443   45.5441   31.7117 C   0  0  0  0  0  0
   63.6152   46.7732   28.9135 C   0  0  0  0  0  0
   64.8015   45.4993   33.0351 C   0  0  0  0  0  0
   62.8125   47.1317   27.4237 S   0  0  0  0  0  0
   62.5780   47.0564   32.4025 C   0  0  0  0  0  0
   64.1103   46.1924   34.0337 C   0  0  0  0  0  0
   60.2888   46.0761   30.2849 C   0  0  0  0  0  0
   62.9953   46.9697   33.7312 C   0  0  0  0  0  0
   57.7996   45.6757   30.5244 C   0  0  0  0  0  0
   56.5892   45.4671   29.9230 C   0  0  0  0  0  0
   59.0106   46.0762   29.7050 C   0  0  0  0  0  0
   61.2861   46.7755   28.1958 C   0  0  0  0  0  0
   55.3130   45.1239   30.5158 C   0  0  0  0  0  0
   58.9248   46.4566   28.3539 C   0  0  0  0  0  0
   54.4488   44.4764   29.9331 O   0  0  0  0  0  0
   60.0429   46.8000   27.5910 C   0  0  0  0  0  0
   66.0184   44.6650   33.4062 C   0  0  0  0  0  0
   62.2305   47.6940   34.8378 C   0  0  0  0  0  0
   64.9692   44.7811   30.7493 O   0  0  0  0  0  0
   55.1000   45.6765   31.7363 O   0  0  0  0  0  0
   58.0344   45.5175   32.0439 C   0  0  0  0  0  0
   65.5635   43.3206   33.9844 C   0  0  0  0  0  0
   66.9881   45.4242   34.3265 C   0  0  0  0  0  0
   63.1428   48.4625   35.8133 C   0  0  0  0  0  0
   61.3073   46.7226   35.5912 C   0  0  0  0  0  0
   64.2549   43.6020   30.3850 C   0  0  0  0  0  0
   64.6949   46.8374   28.9436 H   0  0  0  0  0  0
   61.7329   47.6821   32.1542 H   0  0  0  0  0  0
   64.4253   46.1068   35.0616 H   0  0  0  0  0  0
   60.4403   45.7630   31.3018 H   0  0  0  0  0  0
   56.4864   45.5285   28.8529 H   0  0  0  0  0  0
   57.9792   46.4758   27.8423 H   0  0  0  0  0  0
   60.0078   47.0674   26.5459 H   0  0  0  0  0  0
   66.5944   44.4776   32.5011 H   0  0  0  0  0  0
   61.6083   48.4531   34.3645 H   0  0  0  0  0  0
   55.8606   46.1979   32.0030 H   0  0  0  0  0  0
   58.4075   44.5146   32.2475 H   0  0  0  0  0  0
   58.7660   46.2178   32.4373 H   0  0  0  0  0  0
   57.1818   45.6698   32.6913 H   0  0  0  0  0  0
   64.8771   42.8014   33.3166 H   0  0  0  0  0  0
   66.4080   42.6603   34.1389 H   0  0  0  0  0  0
   65.0532   43.4525   34.9386 H   0  0  0  0  0  0
   67.3072   46.3521   33.8509 H   0  0  0  0  0  0
   66.5306   45.6812   35.2797 H   0  0  0  0  0  0
   67.8835   44.8436   34.5373 H   0  0  0  0  0  0
   63.7638   49.1864   35.2863 H   0  0  0  0  0  0
   62.5413   49.0111   36.5389 H   0  0  0  0  0  0
   63.8001   47.8044   36.3815 H   0  0  0  0  0  0
   60.5411   46.3106   34.9333 H   0  0  0  0  0  0
   61.8624   45.8866   36.0195 H   0  0  0  0  0  0
   60.8083   47.2306   36.4148 H   0  0  0  0  0  0
   64.9019   42.9307   29.8240 H   0  0  0  0  0  0
   63.9036   43.0458   31.2550 H   0  0  0  0  0  0
   63.3947   43.8318   29.7551 H   0  0  0  0  0  0
  1  2  1  0  0  0
  1  3  1  0  0  0
  1  5  2  0  0  0
  2  4  1  0  0  0
  2  8  2  0  0  0
  3 10  1  0  0  0
  3 15  2  0  0  0
  4  6  2  0  0  0
  4 22  1  0  0  0
  5  7  1  0  0  0
  5 30  1  0  0  0
  6 20  1  0  0  0
  6  9  1  0  0  0
  7 15  1  0  0  0
  8 11  1  0  0  0
  8 31  1  0  0  0
  9 11  2  0  0  0
  9 32  1  0  0  0
 10 14  2  0  0  0
 10 33  1  0  0  0
 11 21  1  0  0  0
 12 14  1  0  0  0
 12 13  2  0  0  0
 12 24  1  0  0  0
 13 16  1  0  0  0
 13 34  1  0  0  0
 14 17  1  0  0  0
 15 19  1  0  0  0
 16 18  2  0  0  0
 16 23  1  0  0  0
 17 19  2  0  0  0
 17 35  1  0  0  0
 19 36  1  0  0  0
 20 25  1  0  0  0
 20 26  1  0  0  0
 20 37  1  0  0  0
 21 27  1  0  0  0
 21 28  1  0  0  0
 21 38  1  0  0  0
 22 29  1  0  0  0
 23 39  1  0  0  0
 24 40  1  0  0  0
 24 41  1  0  0  0
 24 42  1  0  0  0
 25 43  1  0  0  0
 25 44  1  0  0  0
 25 45  1  0  0  0
 26 46  1  0  0  0
 26 47  1  0  0  0
 26 48  1  0  0  0
 27 49  1  0  0  0
 27 50  1  0  0  0
 27 51  1  0  0  0
 28 52  1  0  0  0
 28 53  1  0  0  0
 28 54  1  0  0  0
 29 55  1  0  0  0
 29 56  1  0  0  0
 29 57  1  0  0  0
M  END
> <s_m_entry_id>
30850

> <s_m_entry_name>
dock_pv.63

> <s_m_Source_Path>
/home/csk/Desktop/cluster/DUD-E-result/rxra

> <s_m_Source_File>
dock_pv.maegz

> <i_m_Source_File_Index>
63

> <chembl_id>
CHEMBL314745

> <chembl_pref_name>
None

> <i_lp_mmshare_version>
53161

> <r_lp_tautomer_probability>
1

> <s_lp_Force_Field>
OPLS_2005

> <r_lp_Energy>
30.812597

> <b_lp_Chiralities_Consistent>
1

> <s_lp_Variant>
CHEMBL2061_lig335-1

> <s_i_glide_gridfile>
glide-grid_1mv9

> <i_i_glide_lignum>
395

> <i_i_glide_rotatable_bonds>
7

> <r_i_docking_score>
-11.3520551421159

> <r_i_glide_ligand_efficiency>
-0.391450177314343

> <r_i_glide_ligand_efficiency_sa>
-1.20265896483066

> <r_i_glide_ligand_efficiency_ln>
-2.59933276426367

> <r_i_glide_gscore>
-11.3520551421159

> <r_i_glide_lipo>
-6.97164089911716

> <r_i_glide_hbond>
-0.0208530545439271

> <r_i_glide_metal>
0

> <r_i_glide_rewards>
-1.74940693341674

> <r_i_glide_evdw>
-49.7807807922363

> <r_i_glide_ecoul>
-3.16579151153564

> <r_i_glide_erotb>
0.353753511304053

> <r_i_glide_esite>
0

> <r_i_glide_emodel>
-72.6438263815018

> <r_i_glide_energy>
-52.946572303772

> <r_i_glide_einternal>
3.89152455329895

> <i_i_glide_confnum>
8

> <i_i_glide_posenum>
209

> <r_i_glide_eff_state_penalty>
0

> <s_user_duplicate_titles>
CHEMBL2061_lig335,151497

> <i_f3d_flags>
0

> <s_m_subgroup_title>
dock_pv

> <s_m_subgroupid>
dock_pv

> <b_m_subgroup_collapsed>
1

$$$$
CHEMBL2061_lig440
                    3D
 Schrodinger Suite 2021-1.
 61 63  0  0  1  0            999 V2000
   63.7505   46.9819   35.3486 C   0  0  0  0  0  0
   64.6619   45.7432   35.3313 C   0  0  0  0  0  0
   65.3239   45.4060   33.9601 C   0  0  0  0  0  0
   63.0564   47.1577   34.1915 N   0  0  0  0  0  0
   63.6380   47.6711   36.3629 O   0  0  0  0  0  0
   65.7643   43.9395   34.0608 C   0  0  0  0  0  0
   66.5178   46.3390   33.6934 C   0  0  0  0  0  0
   63.2213   46.4244   32.9827 C   0  0  0  0  0  0
   64.3228   45.5685   32.8137 C   0  0  0  0  0  0
   64.4876   44.9084   31.5860 C   0  0  0  0  0  0
   63.5998   45.0820   30.5299 C   0  0  0  0  0  0
   62.5162   45.9524   30.6860 C   0  0  0  0  0  0
   62.3289   46.5789   31.9128 C   0  0  0  0  0  0
   61.5431   46.2498   29.6113 C   0  0  0  0  0  0
   60.1918   45.9708   29.8531 C   0  0  0  0  0  0
   59.2118   46.2409   28.9025 C   0  0  0  0  0  0
   59.6143   46.8768   27.7389 C   0  0  0  0  0  0
   60.9406   47.1954   27.4846 C   0  0  0  0  0  0
   61.9391   46.8735   28.4130 C   0  0  0  0  0  0
   57.7097   46.0445   29.1262 C   0  0  0  0  0  0
   57.1153   44.7489   29.7422 C   0  0  2  0  0  0
   55.6616   45.0153   30.1839 C   0  0  0  0  0  0
   54.7625   44.4536   29.3390 O   0  0  0  0  0  0
   55.3533   45.6730   31.1756 O   0  0  0  0  0  0
   63.2963   47.1050   28.2300 O   0  0  0  0  0  0
   63.8293   48.0391   27.2861 C   0  0  0  0  0  0
   65.0808   47.6772   27.0190 F   0  0  0  0  0  0
   63.2081   48.0761   26.1383 F   0  0  0  0  0  0
   63.8385   49.2770   27.7390 F   0  0  0  0  0  0
   62.0046   48.1951   34.2287 C   0  0  0  0  0  0
   62.2913   49.4283   33.3434 C   0  0  0  0  0  0
   63.8055   44.2731   29.2599 C   0  0  0  0  0  0
   57.8807   44.1072   30.9061 C   0  0  0  0  0  0
   65.4138   45.8681   36.1104 H   0  0  0  0  0  0
   64.0193   44.9247   35.6607 H   0  0  0  0  0  0
   66.3721   43.7960   34.9391 H   0  0  0  0  0  0
   64.9270   43.2407   34.0969 H   0  0  0  0  0  0
   66.4078   43.6772   33.2358 H   0  0  0  0  0  0
   67.3481   46.0771   34.3523 H   0  0  0  0  0  0
   66.8765   46.2270   32.6710 H   0  0  0  0  0  0
   66.2634   47.3915   33.8246 H   0  0  0  0  0  0
   65.3275   44.2499   31.4364 H   0  0  0  0  0  0
   61.4647   47.2180   31.9947 H   0  0  0  0  0  0
   59.9231   45.5808   30.8177 H   0  0  0  0  0  0
   58.8782   47.1536   27.0139 H   0  0  0  0  0  0
   61.1306   47.6834   26.5466 H   0  0  0  0  0  0
   57.1950   46.2047   28.1764 H   0  0  0  0  0  0
   57.4394   46.8770   29.7390 H   0  0  0  0  0  0
   57.0969   44.0133   28.9445 H   0  0  0  0  0  0
   55.1714   43.9307   28.6409 H   0  0  0  0  0  0
   61.0754   47.6771   33.9849 H   0  0  0  0  0  0
   61.8119   48.5598   35.2389 H   0  0  0  0  0  0
   61.5012   50.1733   33.3655 H   0  0  0  0  0  0
   63.1801   49.9269   33.7389 H   0  0  0  0  0  0
   62.4079   49.1849   32.2908 H   0  0  0  0  0  0
   64.3014   43.3266   29.4767 H   0  0  0  0  0  0
   62.8559   44.0145   28.7909 H   0  0  0  0  0  0
   64.4075   44.8382   28.5486 H   0  0  0  0  0  0
   57.3310   43.2770   31.3389 H   0  0  0  0  0  0
   58.8084   43.6817   30.5391 H   0  0  0  0  0  0
   58.0796   44.8130   31.7142 H   0  0  0  0  0  0
  1  5  2  0  0  0
  1  2  1  0  0  0
  1  4  1  0  0  0
  2  3  1  0  0  0
  2 34  1  0  0  0
  2 35  1  0  0  0
  3  9  1  0  0  0
  3  6  1  0  0  0
  3  7  1  0  0  0
  4  8  1  0  0  0
  4 30  1  0  0  0
  6 36  1  0  0  0
  6 37  1  0  0  0
  6 38  1  0  0  0
  7 39  1  0  0  0
  7 40  1  0  0  0
  7 41  1  0  0  0
  8  9  2  0  0  0
  8 13  1  0  0  0
  9 10  1  0  0  0
 10 11  2  0  0  0
 10 42  1  0  0  0
 11 12  1  0  0  0
 11 32  1  0  0  0
 12 14  1  0  0  0
 12 13  2  0  0  0
 13 43  1  0  0  0
 14 19  1  0  0  0
 14 15  2  0  0  0
 15 16  1  0  0  0
 15 44  1  0  0  0
 16 17  2  0  0  0
 16 20  1  0  0  0
 17 18  1  0  0  0
 17 45  1  0  0  0
 18 19  2  0  0  0
 18 46  1  0  0  0
 19 25  1  0  0  0
 20 21  1  0  0  0
 20 47  1  0  0  0
 20 48  1  0  0  0
 21 22  1  0  0  0
 21 33  1  0  0  0
 21 49  1  0  0  0
 22 23  1  0  0  0
 22 24  2  0  0  0
 23 50  1  0  0  0
 25 26  1  0  0  0
 26 27  1  0  0  0
 26 28  1  0  0  0
 26 29  1  0  0  0
 30 31  1  0  0  0
 30 51  1  0  0  0
 30 52  1  0  0  0
 31 53  1  0  0  0
 31 54  1  0  0  0
 31 55  1  0  0  0
 32 56  1  0  0  0
 32 57  1  0  0  0
 32 58  1  0  0  0
 33 59  1  0  0  0
 33 60  1  0  0  0
 33 61  1  0  0  0
M  END
> <s_m_entry_id>
30851

> <s_m_entry_name>
dock_pv.64

> <s_m_Source_Path>
/home/csk/Desktop/cluster/DUD-E-result/rxra

> <s_m_Source_File>
dock_pv.maegz

> <i_m_Source_File_Index>
64

> <chembl_id>
CHEMBL246827

> <chembl_pref_name>
None

> <i_lp_mmshare_version>
53161

> <r_lp_tautomer_probability>
1

> <s_lp_Force_Field>
OPLS_2005

> <r_lp_Energy>
37.496817

> <b_lp_Chiralities_Consistent>
1

> <s_lp_Variant>
CHEMBL2061_lig440-1

> <s_i_glide_gridfile>
glide-grid_1mv9

> <i_i_glide_lignum>
512

> <i_i_glide_rotatable_bonds>
8

> <r_i_docking_score>
-11.3430969407742

> <r_i_glide_ligand_efficiency>
-0.343730210326492

> <r_i_glide_ligand_efficiency_sa>
-1.10252644859391

> <r_i_glide_ligand_efficiency_ln>
-2.52264602821547

> <r_i_glide_gscore>
-11.3430969407742

> <r_i_glide_lipo>
-6.11742115838886

> <r_i_glide_hbond>
0

> <r_i_glide_metal>
0

> <r_i_glide_rewards>
-2.89918623700773

> <r_i_glide_evdw>
-43.9838333129883

> <r_i_glide_ecoul>
-3.97559142112732

> <r_i_glide_erotb>
0.46904083344087

> <r_i_glide_esite>
0

> <r_i_glide_emodel>
-63.8059379670619

> <r_i_glide_energy>
-47.9594247341156

> <r_i_glide_einternal>
6.41484642028809

> <i_i_glide_confnum>
118

> <i_i_glide_posenum>
129

> <r_i_glide_eff_state_penalty>
0

> <s_user_duplicate_titles>
CHEMBL2061_lig440

> <i_f3d_flags>
0

> <s_m_subgroup_title>
dock_pv

> <s_m_subgroupid>
dock_pv

> <b_m_subgroup_collapsed>
1

$$$$
CHEMBL2061_lig580
                    3D
 Schrodinger Suite 2021-1.
 60 62  0  0  1  0            999 V2000
   62.6151   46.9498   34.2849 C   0  0  0  0  0  0
   63.3610   46.2424   35.4393 C   0  0  0  0  0  0
   64.8420   46.0553   35.1492 C   0  0  0  0  0  0
   65.0966   45.1337   33.9374 C   0  0  0  0  0  0
   62.9041   48.4617   34.3942 C   0  0  0  0  0  0
   61.1168   46.6185   34.4752 C   0  0  0  0  0  0
   64.6493   43.6868   34.2581 C   0  0  0  0  0  0
   66.6152   45.2335   33.6617 C   0  0  0  0  0  0
   63.1063   46.4528   32.8984 C   0  0  0  0  0  0
   64.2660   45.6384   32.7333 C   0  0  0  0  0  0
   64.6294   45.2478   31.4319 C   0  0  0  0  0  0
   63.9177   45.6626   30.3157 C   0  0  0  0  0  0
   62.8035   46.4773   30.4686 C   0  0  0  0  0  0
   62.4111   46.8572   31.7474 C   0  0  0  0  0  0
   62.1187   46.9729   29.3609 N   0  0  0  0  0  0
   61.1169   46.1929   28.6281 C   0  0  2  0  0  0
   60.8600   46.9735   27.3388 C   0  0  0  0  0  0
   62.2549   47.4663   27.0189 C   0  0  0  0  0  0
   62.7983   47.8312   28.3884 C   0  0  0  0  0  0
   59.8730   45.8725   29.4521 C   0  0  0  0  0  0
   58.5908   45.9805   29.0423 C   0  0  0  0  0  0
   57.4133   45.6743   29.8487 C   0  0  0  0  0  0
   56.2105   45.8155   29.2393 C   0  0  0  0  0  0
   57.5861   45.2748   31.3149 C   0  0  0  0  0  0
   54.9125   45.5861   29.8261 C   0  0  0  0  0  0
   54.6243   44.7171   30.6482 O   0  0  0  0  0  0
   54.0071   46.4781   29.3389 O   0  0  0  0  0  0
   62.9186   45.2713   35.6512 H   0  0  0  0  0  0
   63.2503   46.8102   36.3637 H   0  0  0  0  0  0
   65.3404   45.6757   36.0421 H   0  0  0  0  0  0
   65.2843   47.0316   34.9507 H   0  0  0  0  0  0
   62.7208   48.8411   35.4003 H   0  0  0  0  0  0
   63.9386   48.6943   34.1414 H   0  0  0  0  0  0
   62.2785   49.0412   33.7158 H   0  0  0  0  0  0
   60.8086   46.7596   35.5111 H   0  0  0  0  0  0
   60.4867   47.2677   33.8723 H   0  0  0  0  0  0
   60.8810   45.5921   34.1903 H   0  0  0  0  0  0
   64.8638   43.4141   35.2908 H   0  0  0  0  0  0
   63.5803   43.5484   34.1227 H   0  0  0  0  0  0
   65.1405   42.9569   33.6113 H   0  0  0  0  0  0
   67.2035   45.0367   34.5584 H   0  0  0  0  0  0
   66.9363   44.4976   32.9271 H   0  0  0  0  0  0
   66.8994   46.2209   33.2941 H   0  0  0  0  0  0
   65.4828   44.6066   31.2733 H   0  0  0  0  0  0
   64.2429   45.3558   29.3317 H   0  0  0  0  0  0
   61.5543   47.5077   31.8433 H   0  0  0  0  0  0
   61.5938   45.2457   28.3679 H   0  0  0  0  0  0
   60.4252   46.3621   26.5463 H   0  0  0  0  0  0
   60.1947   47.8230   27.5120 H   0  0  0  0  0  0
   62.8650   46.6932   26.5453 H   0  0  0  0  0  0
   62.2642   48.3204   26.3478 H   0  0  0  0  0  0
   63.8711   47.6338   28.3365 H   0  0  0  0  0  0
   62.5416   48.8767   28.5367 H   0  0  0  0  0  0
   60.0855   45.5212   30.4504 H   0  0  0  0  0  0
   58.4269   46.3189   28.0304 H   0  0  0  0  0  0
   56.1694   46.1305   28.2044 H   0  0  0  0  0  0
   58.2999   45.9459   31.7957 H   0  0  0  0  0  0
   56.6823   45.3543   31.9135 H   0  0  0  0  0  0
   58.0088   44.2730   31.3803 H   0  0  0  0  0  0
   54.4301   47.0837   28.7266 H   0  0  0  0  0  0
  1  6  1  0  0  0
  1  9  1  0  0  0
  1  2  1  0  0  0
  1  5  1  0  0  0
  2  3  1  0  0  0
  2 28  1  0  0  0
  2 29  1  0  0  0
  3  4  1  0  0  0
  3 30  1  0  0  0
  3 31  1  0  0  0
  4  7  1  0  0  0
  4  8  1  0  0  0
  4 10  1  0  0  0
  5 32  1  0  0  0
  5 33  1  0  0  0
  5 34  1  0  0  0
  6 35  1  0  0  0
  6 36  1  0  0  0
  6 37  1  0  0  0
  7 38  1  0  0  0
  7 39  1  0  0  0
  7 40  1  0  0  0
  8 41  1  0  0  0
  8 42  1  0  0  0
  8 43  1  0  0  0
  9 14  1  0  0  0
  9 10  2  0  0  0
 10 11  1  0  0  0
 11 12  2  0  0  0
 11 44  1  0  0  0
 12 13  1  0  0  0
 12 45  1  0  0  0
 13 14  2  0  0  0
 13 15  1  0  0  0
 14 46  1  0  0  0
 15 16  1  0  0  0
 15 19  1  0  0  0
 16 17  1  0  0  0
 16 20  1  0  0  0
 16 47  1  0  0  0
 17 18  1  0  0  0
 17 48  1  0  0  0
 17 49  1  0  0  0
 18 19  1  0  0  0
 18 50  1  0  0  0
 18 51  1  0  0  0
 19 52  1  0  0  0
 19 53  1  0  0  0
 20 21  2  0  0  0
 20 54  1  0  0  0
 21 22  1  0  0  0
 21 55  1  0  0  0
 22 23  2  0  0  0
 22 24  1  0  0  0
 23 25  1  0  0  0
 23 56  1  0  0  0
 24 57  1  0  0  0
 24 58  1  0  0  0
 24 59  1  0  0  0
 25 26  2  0  0  0
 25 27  1  0  0  0
 27 60  1  0  0  0
M  END
> <s_m_entry_id>
30853

> <s_m_entry_name>
dock_pv.66

> <s_m_Source_Path>
/home/csk/Desktop/cluster/DUD-E-result/rxra

> <s_m_Source_File>
dock_pv.maegz

> <i_m_Source_File_Index>
66

> <chembl_id>
CHEMBL208503

> <chembl_pref_name>
None

> <i_lp_mmshare_version>
53161

> <r_lp_tautomer_probability>
1

> <s_lp_Force_Field>
OPLS_2005

> <r_lp_Energy>
48.22349

> <b_lp_Chiralities_Consistent>
1

> <s_lp_Variant>
CHEMBL2061_lig580-1

> <s_i_glide_gridfile>
glide-grid_1mv9

> <i_i_glide_lignum>
711

> <i_i_glide_rotatable_bonds>
5

> <r_i_docking_score>
-11.3288534978061

> <r_i_glide_ligand_efficiency>
-0.419587166585412

> <r_i_glide_ligand_efficiency_sa>
-1.25876149837335

> <r_i_glide_ligand_efficiency_ln>
-2.63717032354243

> <r_i_glide_gscore>
-11.3288534978061

> <r_i_glide_lipo>
-6.54690091903777

> <r_i_glide_hbond>
-0.0875967300084626

> <r_i_glide_metal>
0

> <r_i_glide_rewards>
-2.21773402042526

> <r_i_glide_evdw>
-51.5709533691406

> <r_i_glide_ecoul>
-3.12277817726135

> <r_i_glide_erotb>
0.570342566711589

> <r_i_glide_esite>
0

> <r_i_glide_emodel>
-85.7789133999389

> <r_i_glide_energy>
-54.693731546402

> <r_i_glide_einternal>
7.78608798980713

> <i_i_glide_confnum>
92

> <i_i_glide_posenum>
145

> <r_i_glide_eff_state_penalty>
0

> <s_user_duplicate_titles>
CHEMBL2061_lig580,345620

> <i_f3d_flags>
0

> <s_m_subgroup_title>
dock_pv

> <s_m_subgroupid>
dock_pv

> <b_m_subgroup_collapsed>
1

$$$$
CHEMBL2061_lig582
                    3D
 Schrodinger Suite 2021-1.
 56 58  0  0  1  0            999 V2000
   64.1352   45.5117   31.2577 C   0  0  0  0  0  0
   63.1790   45.8378   30.2992 C   0  0  0  0  0  0
   61.9771   46.4260   30.6899 C   0  0  0  0  0  0
   61.8354   46.7894   32.0339 C   0  0  0  0  0  0
   60.9143   46.7326   29.6699 C   0  0  0  0  0  0
   59.5269   46.1565   29.7920 C   0  0  0  0  0  0
   61.2195   47.3506   28.6489 O   0  0  0  0  0  0
   58.6508   46.1895   28.6992 C   0  0  0  0  0  0
   57.3234   45.7921   28.8429 C   0  0  0  0  0  0
   56.8506   45.3439   30.0806 C   0  0  0  0  0  0
   57.7238   45.2770   31.1601 C   0  0  0  0  0  0
   59.0393   45.6770   31.0105 C   0  0  0  0  0  0
   63.4573   45.6335   28.9702 O   0  0  0  0  0  0
   64.5634   46.3950   28.4840 C   0  0  0  0  0  0
   55.4009   45.0406   30.2898 C   0  0  0  0  0  0
   54.8080   45.2770   31.3390 O   0  0  0  0  0  0
   54.8080   44.4770   29.2163 O   0  0  0  0  0  0
   63.9873   45.8240   32.6152 C   0  0  0  0  0  0
   62.7983   46.4930   33.0181 C   0  0  0  0  0  0
   62.5666   46.9633   34.4778 C   0  0  0  0  0  0
   63.5180   46.2213   35.4539 C   0  0  0  0  0  0
   64.9574   46.1672   34.9468 C   0  0  0  0  0  0
   65.1005   45.4028   33.6088 C   0  0  0  0  0  0
   62.8693   48.4770   34.5391 C   0  0  0  0  0  0
   61.1244   46.6444   34.9486 C   0  0  0  0  0  0
   64.9692   43.8831   33.8717 C   0  0  0  0  0  0
   66.5013   45.7781   33.0614 C   0  0  0  0  0  0
   64.1597   47.3609   27.3347 C   0  0  0  0  0  0
   63.2425   46.8059   26.5534 F   0  0  0  0  0  0
   63.6385   48.5150   27.7394 F   0  0  0  0  0  0
   65.2006   47.6768   26.5652 F   0  0  0  0  0  0
   65.0281   45.0114   30.9169 H   0  0  0  0  0  0
   60.9527   47.3352   32.3282 H   0  0  0  0  0  0
   58.9784   46.5632   27.7387 H   0  0  0  0  0  0
   56.6668   45.8835   27.9888 H   0  0  0  0  0  0
   57.3892   44.9732   32.1390 H   0  0  0  0  0  0
   59.6354   45.6770   31.9053 H   0  0  0  0  0  0
   65.1224   46.8770   29.2740 H   0  0  0  0  0  0
   65.2970   45.6770   28.1390 H   0  0  0  0  0  0
   55.4468   44.1971   28.5556 H   0  0  0  0  0  0
   63.1710   45.2041   35.6355 H   0  0  0  0  0  0
   63.5128   46.7061   36.4313 H   0  0  0  0  0  0
   65.5999   45.7238   35.7094 H   0  0  0  0  0  0
   65.3149   47.1899   34.8339 H   0  0  0  0  0  0
   62.8085   48.8574   35.5599 H   0  0  0  0  0  0
   63.8611   48.7195   34.1593 H   0  0  0  0  0  0
   62.1598   49.0427   33.9345 H   0  0  0  0  0  0
   61.0123   46.8004   36.0225 H   0  0  0  0  0  0
   60.3810   47.2770   34.4710 H   0  0  0  0  0  0
   60.8381   45.6180   34.7337 H   0  0  0  0  0  0
   65.6976   43.5464   34.6093 H   0  0  0  0  0  0
   63.9792   43.6042   34.2327 H   0  0  0  0  0  0
   65.1510   43.3070   32.9638 H   0  0  0  0  0  0
   67.2750   45.6147   33.8128 H   0  0  0  0  0  0
   66.7856   45.1757   32.1994 H   0  0  0  0  0  0
   66.5527   46.8268   32.7641 H   0  0  0  0  0  0
  1 18  1  0  0  0
  1  2  2  0  0  0
  1 32  1  0  0  0
  2  3  1  0  0  0
  2 13  1  0  0  0
  3  4  2  0  0  0
  3  5  1  0  0  0
  4 19  1  0  0  0
  4 33  1  0  0  0
  5  6  1  0  0  0
  5  7  2  0  0  0
  6  8  2  0  0  0
  6 12  1  0  0  0
  8  9  1  0  0  0
  8 34  1  0  0  0
  9 10  2  0  0  0
  9 35  1  0  0  0
 10 11  1  0  0  0
 10 15  1  0  0  0
 11 12  2  0  0  0
 11 36  1  0  0  0
 12 37  1  0  0  0
 13 14  1  0  0  0
 14 28  1  0  0  0
 14 38  1  0  0  0
 14 39  1  0  0  0
 15 16  2  0  0  0
 15 17  1  0  0  0
 17 40  1  0  0  0
 18 19  2  0  0  0
 18 23  1  0  0  0
 19 20  1  0  0  0
 20 21  1  0  0  0
 20 24  1  0  0  0
 20 25  1  0  0  0
 21 22  1  0  0  0
 21 41  1  0  0  0
 21 42  1  0  0  0
 22 23  1  0  0  0
 22 43  1  0  0  0
 22 44  1  0  0  0
 23 26  1  0  0  0
 23 27  1  0  0  0
 24 45  1  0  0  0
 24 46  1  0  0  0
 24 47  1  0  0  0
 25 48  1  0  0  0
 25 49  1  0  0  0
 25 50  1  0  0  0
 26 51  1  0  0  0
 26 52  1  0  0  0
 26 53  1  0  0  0
 27 54  1  0  0  0
 27 55  1  0  0  0
 27 56  1  0  0  0
 28 29  1  0  0  0
 28 30  1  0  0  0
 28 31  1  0  0  0
M  END
> <s_m_entry_id>
30854

> <s_m_entry_name>
dock_pv.67

> <s_m_Source_Path>
/home/csk/Desktop/cluster/DUD-E-result/rxra

> <s_m_Source_File>
dock_pv.maegz

> <i_m_Source_File_Index>
67

> <chembl_id>
CHEMBL3719130

> <chembl_pref_name>
None

> <i_lp_mmshare_version>
53161

> <r_lp_tautomer_probability>
1

> <s_lp_Force_Field>
OPLS_2005

> <r_lp_Energy>
33.984487

> <b_lp_Chiralities_Consistent>
1

> <s_lp_Variant>
CHEMBL2061_lig582-1

> <s_i_glide_gridfile>
glide-grid_1mv9

> <i_i_glide_lignum>
713

> <i_i_glide_rotatable_bonds>
7

> <r_i_docking_score>
-11.3257740353308

> <r_i_glide_ligand_efficiency>
-0.3653475495268

> <r_i_glide_ligand_efficiency_sa>
-1.14769572216837

> <r_i_glide_ligand_efficiency_ln>
-2.55430913825695

> <r_i_glide_gscore>
-11.3257740353308

> <r_i_glide_lipo>
-6.05514233098668

> <r_i_glide_hbond>
-0.0285386002913521

> <r_i_glide_metal>
0

> <r_i_glide_rewards>
-3.04681919461549

> <r_i_glide_evdw>
-43.7439880371094

> <r_i_glide_ecoul>
-3.57106494903564

> <r_i_glide_erotb>
0.527585234773531

> <r_i_glide_esite>
0

> <r_i_glide_emodel>
-63.1424429098776

> <r_i_glide_energy>
-47.315052986145

> <r_i_glide_einternal>
12.5127992630005

> <i_i_glide_confnum>
395

> <i_i_glide_posenum>
300

> <r_i_glide_eff_state_penalty>
0

> <s_user_duplicate_titles>
CHEMBL2061_lig582

> <i_f3d_flags>
0

> <s_m_subgroup_title>
dock_pv

> <s_m_subgroupid>
dock_pv

> <b_m_subgroup_collapsed>
1

$$$$
CHEMBL2061_lig360
                    3D
 Schrodinger Suite 2021-1.
 60 62  0  0  1  0            999 V2000
   61.6501   46.4536   30.6510 C   0  0  0  0  0  0
   62.7147   46.4909   32.8783 C   0  0  0  0  0  0
   63.7574   45.6621   32.3826 C   0  0  0  0  0  0
   62.5986   45.5253   30.2100 C   0  0  0  0  0  0
   60.5548   46.9148   29.7539 C   0  0  0  0  0  0
   61.7247   46.9122   31.9714 C   0  0  0  0  0  0
   63.6597   45.1997   31.0596 C   0  0  0  0  0  0
   62.6428   46.9522   34.3625 C   0  0  0  0  0  0
   64.9402   45.1737   33.2590 C   0  0  0  0  0  0
   55.1690   44.9391   30.3306 C   0  0  0  0  0  0
   59.2497   46.1997   29.7912 C   0  0  0  0  0  0
   56.6098   45.2850   30.1000 C   0  0  0  0  0  0
   60.7748   47.9596   28.9295 C   0  0  0  0  0  0
   64.9946   45.9505   34.5994 C   0  0  0  0  0  0
   63.6181   46.1239   35.2427 C   0  0  0  0  0  0
   54.8079   44.0799   31.1280 O   0  0  0  0  0  0
   58.3752   46.1751   28.7006 C   0  0  0  0  0  0
   58.8072   45.6767   31.0072 C   0  0  0  0  0  0
   57.5123   45.2087   31.1602 C   0  0  0  0  0  0
   57.0625   45.7241   28.8524 C   0  0  0  0  0  0
   62.4932   44.9025   28.8092 C   0  0  0  0  0  0
   54.3049   45.7661   29.6809 O   0  0  0  0  0  0
   63.0325   48.4460   34.4558 C   0  0  0  0  0  0
   64.7429   43.6658   33.5605 C   0  0  0  0  0  0
   66.2864   45.4599   32.5480 C   0  0  0  0  0  0
   61.2278   46.6897   34.9420 C   0  0  0  0  0  0
   62.9452   43.4283   28.7264 C   0  0  0  0  0  0
   63.2084   45.8003   27.8011 C   0  0  0  0  0  0
   60.9636   47.5972   32.3094 H   0  0  0  0  0  0
   64.4208   44.5281   30.6988 H   0  0  0  0  0  0
   61.7295   48.4634   28.9151 H   0  0  0  0  0  0
   60.0149   48.3377   28.2620 H   0  0  0  0  0  0
   65.6627   45.4480   35.3005 H   0  0  0  0  0  0
   65.4383   46.9360   34.4519 H   0  0  0  0  0  0
   63.2071   45.1343   35.4448 H   0  0  0  0  0  0
   63.7322   46.5881   36.2225 H   0  0  0  0  0  0
   58.6904   46.5488   27.7377 H   0  0  0  0  0  0
   59.4357   45.6781   31.8822 H   0  0  0  0  0  0
   57.2078   44.8774   32.1388 H   0  0  0  0  0  0
   56.4094   45.7513   27.9917 H   0  0  0  0  0  0
   61.4432   44.8721   28.5187 H   0  0  0  0  0  0
   54.8126   46.3930   29.1623 H   0  0  0  0  0  0
   62.9506   48.8122   35.4802 H   0  0  0  0  0  0
   64.0557   48.6333   34.1388 H   0  0  0  0  0  0
   62.3866   49.0645   33.8313 H   0  0  0  0  0  0
   65.5193   43.2835   34.2236 H   0  0  0  0  0  0
   63.7790   43.4558   34.0236 H   0  0  0  0  0  0
   64.7933   43.0664   32.6511 H   0  0  0  0  0  0
   67.1279   45.2103   33.1952 H   0  0  0  0  0  0
   66.4107   44.8770   31.6361 H   0  0  0  0  0  0
   66.3798   46.5113   32.2727 H   0  0  0  0  0  0
   61.2072   46.8278   36.0234 H   0  0  0  0  0  0
   60.4764   47.3626   34.5382 H   0  0  0  0  0  0
   60.8874   45.6770   34.7384 H   0  0  0  0  0  0
   62.4025   42.7985   29.4261 H   0  0  0  0  0  0
   62.7529   43.0128   27.7392 H   0  0  0  0  0  0
   64.0060   43.3024   28.9290 H   0  0  0  0  0  0
   62.7482   46.7806   27.7128 H   0  0  0  0  0  0
   64.2360   45.9654   28.1390 H   0  0  0  0  0  0
   63.1997   45.3694   26.8029 H   0  0  0  0  0  0
  1  4  1  0  0  0
  1  5  1  0  0  0
  1  6  2  0  0  0
  2  6  1  0  0  0
  2  3  2  0  0  0
  2  8  1  0  0  0
  3  9  1  0  0  0
  3  7  1  0  0  0
  4  7  2  0  0  0
  4 21  1  0  0  0
  5 11  1  0  0  0
  5 13  2  0  0  0
  6 29  1  0  0  0
  7 30  1  0  0  0
  8 15  1  0  0  0
  8 23  1  0  0  0
  8 26  1  0  0  0
  9 24  1  0  0  0
  9 25  1  0  0  0
  9 14  1  0  0  0
 10 12  1  0  0  0
 10 16  2  0  0  0
 10 22  1  0  0  0
 11 17  2  0  0  0
 11 18  1  0  0  0
 12 19  1  0  0  0
 12 20  2  0  0  0
 13 31  1  0  0  0
 13 32  1  0  0  0
 14 15  1  0  0  0
 14 33  1  0  0  0
 14 34  1  0  0  0
 15 35  1  0  0  0
 15 36  1  0  0  0
 17 20  1  0  0  0
 17 37  1  0  0  0
 18 19  2  0  0  0
 18 38  1  0  0  0
 19 39  1  0  0  0
 20 40  1  0  0  0
 21 27  1  0  0  0
 21 28  1  0  0  0
 21 41  1  0  0  0
 22 42  1  0  0  0
 23 43  1  0  0  0
 23 44  1  0  0  0
 23 45  1  0  0  0
 24 46  1  0  0  0
 24 47  1  0  0  0
 24 48  1  0  0  0
 25 49  1  0  0  0
 25 50  1  0  0  0
 25 51  1  0  0  0
 26 52  1  0  0  0
 26 53  1  0  0  0
 26 54  1  0  0  0
 27 55  1  0  0  0
 27 56  1  0  0  0
 27 57  1  0  0  0
 28 58  1  0  0  0
 28 59  1  0  0  0
 28 60  1  0  0  0
M  END
> <s_m_entry_id>
30855

> <s_m_entry_name>
dock_pv.68

> <s_m_Source_Path>
/home/csk/Desktop/cluster/DUD-E-result/rxra

> <s_m_Source_File>
dock_pv.maegz

> <i_m_Source_File_Index>
68

> <chembl_id>
CHEMBL99325

> <chembl_pref_name>
None

> <i_lp_mmshare_version>
53161

> <r_lp_tautomer_probability>
1

> <s_lp_Force_Field>
OPLS_2005

> <r_lp_Energy>
31.185549

> <b_lp_Chiralities_Consistent>
1

> <s_lp_Variant>
CHEMBL2061_lig360-1

> <s_i_glide_gridfile>
glide-grid_1mv9

> <i_i_glide_lignum>
420

> <i_i_glide_rotatable_bonds>
5

> <r_i_docking_score>
-11.3167651168423

> <r_i_glide_ligand_efficiency>
-0.404170182744369

> <r_i_glide_ligand_efficiency_sa>
-1.22729871831932

> <r_i_glide_ligand_efficiency_ln>
-2.61224166362928

> <r_i_glide_gscore>
-11.3167651168423

> <r_i_glide_lipo>
-6.85698071423951

> <r_i_glide_hbond>
-0.219698972894681

> <r_i_glide_metal>
0

> <r_i_glide_rewards>
-2.17137161753722

> <r_i_glide_evdw>
-42.8734550476074

> <r_i_glide_ecoul>
-2.23116254806519

> <r_i_glide_erotb>
0.40963332241923

> <r_i_glide_esite>
0

> <r_i_glide_emodel>
-61.2619953020117

> <r_i_glide_energy>
-45.1046175956726

> <r_i_glide_einternal>
5.81858921051025

> <i_i_glide_confnum>
21

> <i_i_glide_posenum>
99

> <r_i_glide_eff_state_penalty>
0

> <s_user_duplicate_titles>
CHEMBL2061_lig360,163520

> <i_f3d_flags>
0

> <s_m_subgroup_title>
dock_pv

> <s_m_subgroupid>
dock_pv

> <b_m_subgroup_collapsed>
1

$$$$
CHEMBL2061_lig559 
                    3D
 Schrodinger Suite 2021-1.
 55 58  0  0  1  0            999 V2000
   62.6396   48.6676   34.1034 C   0  0  0  0  0  0
   62.9583   47.1663   34.2539 C   0  0  0  0  0  0
   61.9649   46.4860   35.2271 C   0  0  0  0  0  0
   65.1452   43.5898   33.5649 C   0  0  0  0  0  0
   65.1170   45.1311   33.3978 C   0  0  0  0  0  0
   66.4084   45.7033   32.7746 C   0  0  0  0  0  0
   64.9833   45.7064   34.8323 C   0  0  0  0  0  0
   64.3934   47.1116   34.8473 C   0  0  0  0  0  0
   63.9330   45.5381   32.4831 C   0  0  0  0  0  0
   62.9165   46.4531   32.8730 C   0  0  0  0  0  0
   61.8476   46.6813   31.9750 C   0  0  0  0  0  0
   61.7844   46.0774   30.7106 C   0  0  0  0  0  0
   62.8243   45.2247   30.3154 C   0  0  0  0  0  0
   63.8715   44.9851   31.1959 C   0  0  0  0  0  0
   60.6924   46.3204   29.8353 N   0  0  0  0  0  0
   59.6145   46.8774   27.9230 N   0  0  0  0  0  0
   60.7442   46.9425   28.5919 C   0  0  0  0  0  0
   58.7229   46.3215   28.7903 C   0  0  0  0  0  0
   59.3549   45.9806   30.0030 C   0  0  0  0  0  0
   58.7284   45.4396   31.0497 N   0  0  0  0  0  0
   57.3874   45.2682   30.9084 C   0  0  0  0  0  0
   56.6470   45.6077   29.7733 C   0  0  0  0  0  0
   57.3450   46.0770   28.6553 C   0  0  0  0  0  0
   55.1438   45.5076   29.7855 C   0  0  0  0  0  0
   54.5194   46.4659   29.0398 O   0  0  0  0  0  0
   54.5331   44.6974   30.4828 O   0  0  0  0  0  0
   61.9800   47.6294   28.0266 C   0  0  0  0  0  0
   61.6418   48.7108   27.3403 F   0  0  0  0  0  0
   62.8060   48.0518   28.9754 F   0  0  0  0  0  0
   62.6626   46.8304   27.2112 F   0  0  0  0  0  0
   62.8224   44.4341   29.0090 C   0  0  0  0  0  0
   63.2292   49.2791   34.7834 H   0  0  0  0  0  0
   62.8063   49.0380   33.0983 H   0  0  0  0  0  0
   61.6081   48.8769   34.3445 H   0  0  0  0  0  0
   61.8534   47.0731   36.1388 H   0  0  0  0  0  0
   60.9710   46.3922   34.7872 H   0  0  0  0  0  0
   62.2832   45.4951   35.5331 H   0  0  0  0  0  0
   66.0028   43.2769   34.1610 H   0  0  0  0  0  0
   64.2462   43.2197   34.0605 H   0  0  0  0  0  0
   65.2067   43.0625   32.6162 H   0  0  0  0  0  0
   67.2667   45.5117   33.4168 H   0  0  0  0  0  0
   66.6281   45.2490   31.8078 H   0  0  0  0  0  0
   66.3503   46.7811   32.6191 H   0  0  0  0  0  0
   65.9515   45.7119   35.3362 H   0  0  0  0  0  0
   64.3698   45.0612   35.4599 H   0  0  0  0  0  0
   65.0593   47.7712   34.2872 H   0  0  0  0  0  0
   64.4003   47.4941   35.8696 H   0  0  0  0  0  0
   61.0490   47.3436   32.2735 H   0  0  0  0  0  0
   64.6512   44.3095   30.8767 H   0  0  0  0  0  0
   56.8831   44.8776   31.7720 H   0  0  0  0  0  0
   56.8323   46.3095   27.7389 H   0  0  0  0  0  0
   55.1512   47.0784   28.6601 H   0  0  0  0  0  0
   63.0361   43.3841   29.2134 H   0  0  0  0  0  0
   61.8714   44.4507   28.4815 H   0  0  0  0  0  0
   63.6079   44.7944   28.3479 H   0  0  0  0  0  0
  1  2  1  0  0  0
  1 32  1  0  0  0
  1 33  1  0  0  0
  1 34  1  0  0  0
  2  3  1  0  0  0
  2  8  1  0  0  0
  2 10  1  0  0  0
  3 35  1  0  0  0
  3 36  1  0  0  0
  3 37  1  0  0  0
  4  5  1  0  0  0
  4 38  1  0  0  0
  4 39  1  0  0  0
  4 40  1  0  0  0
  5  6  1  0  0  0
  5  7  1  0  0  0
  5  9  1  0  0  0
  6 41  1  0  0  0
  6 42  1  0  0  0
  6 43  1  0  0  0
  7  8  1  0  0  0
  7 44  1  0  0  0
  7 45  1  0  0  0
  8 46  1  0  0  0
  8 47  1  0  0  0
  9 10  2  0  0  0
  9 14  1  0  0  0
 10 11  1  0  0  0
 11 12  2  0  0  0
 11 48  1  0  0  0
 12 13  1  0  0  0
 12 15  1  0  0  0
 13 14  2  0  0  0
 13 31  1  0  0  0
 14 49  1  0  0  0
 15 19  1  0  0  0
 15 17  1  0  0  0
 16 18  1  0  0  0
 16 17  2  0  0  0
 17 27  1  0  0  0
 18 19  2  0  0  0
 18 23  1  0  0  0
 19 20  1  0  0  0
 20 21  2  0  0  0
 21 22  1  0  0  0
 21 50  1  0  0  0
 22 23  2  0  0  0
 22 24  1  0  0  0
 23 51  1  0  0  0
 24 25  1  0  0  0
 24 26  2  0  0  0
 25 52  1  0  0  0
 27 28  1  0  0  0
 27 29  1  0  0  0
 27 30  1  0  0  0
 31 53  1  0  0  0
 31 54  1  0  0  0
 31 55  1  0  0  0
M  END
> <s_m_entry_id>
30856

> <s_m_entry_name>
dock_pv.69

> <s_m_Source_Path>
/home/csk/Desktop/cluster/DUD-E-result/rxra

> <s_m_Source_File>
dock_pv.maegz

> <i_m_Source_File_Index>
69

> <chembl_id>
CHEMBL4465555

> <chembl_pref_name>
None

> <i_lp_mmshare_version>
53161

> <r_lp_tautomer_probability>
1

> <s_lp_Force_Field>
OPLS_2005

> <r_lp_Energy>
31.597142

> <b_lp_Chiralities_Consistent>
1

> <s_lp_Variant>
CHEMBL2061_lig559 -1

> <s_i_glide_gridfile>
glide-grid_1mv9

> <i_i_glide_lignum>
659

> <i_i_glide_rotatable_bonds>
4

> <r_i_docking_score>
-11.2681004031821

> <r_i_glide_ligand_efficiency>
-0.363487109780068

> <r_i_glide_ligand_efficiency_sa>
-1.14185137274974

> <r_i_glide_ligand_efficiency_ln>
-2.54130196672286

> <r_i_glide_gscore>
-11.2681004031821

> <r_i_glide_lipo>
-5.56347613250487

> <r_i_glide_hbond>
-0.108804737945598

> <r_i_glide_metal>
0

> <r_i_glide_rewards>
-3.05545304567019

> <r_i_glide_evdw>
-45.8674736022949

> <r_i_glide_ecoul>
-3.07127642631531

> <r_i_glide_erotb>
0.213698657000599

> <r_i_glide_esite>
0

> <r_i_glide_emodel>
-57.9001789926951

> <r_i_glide_energy>
-48.9387500286102

> <r_i_glide_einternal>
3.62468123435974

> <i_i_glide_confnum>
3

> <i_i_glide_posenum>
296

> <r_i_glide_eff_state_penalty>
0

> <s_user_duplicate_titles>
CHEMBL2061_lig559 

> <i_f3d_flags>
0

> <s_m_subgroup_title>
dock_pv

> <s_m_subgroupid>
dock_pv

> <b_m_subgroup_collapsed>
1

$$$$
CHEMBL2061_lig454
                    3D
 Schrodinger Suite 2021-1.
 62 65  0  0  1  0            999 V2000
   64.0607   47.4029   34.9022 C   0  0  0  0  0  0
   65.3746   46.6807   34.5613 C   0  0  0  0  0  0
   65.2610   45.3591   33.7609 C   0  0  0  0  0  0
   63.0453   47.1542   34.0307 N   0  0  0  0  0  0
   64.0080   48.1795   35.8505 O   0  0  0  0  0  0
   66.6681   45.1212   33.1919 C   0  0  0  0  0  0
   64.7848   44.2075   34.6622 C   0  0  0  0  0  0
   63.2064   46.4540   32.7981 C   0  0  0  0  0  0
   64.2524   45.5302   32.6318 C   0  0  0  0  0  0
   64.3138   44.7625   31.4604 C   0  0  0  0  0  0
   63.3428   44.8640   30.4693 C   0  0  0  0  0  0
   62.3091   45.7957   30.6255 C   0  0  0  0  0  0
   62.2885   46.5963   31.7558 C   0  0  0  0  0  0
   61.1590   45.9446   29.7126 C   0  0  0  0  0  0
   59.8669   45.8552   30.2447 C   0  0  0  0  0  0
   58.7437   45.9969   29.4474 C   0  0  0  0  0  0
   58.9198   46.3541   28.1186 C   0  0  0  0  0  0
   60.1987   46.4808   27.5762 C   0  0  0  0  0  0
   61.3249   46.2454   28.3604 C   0  0  0  0  0  0
   57.3828   45.6397   30.0218 C   0  0  2  0  0  0
   62.5903   46.3206   27.8303 O   0  0  0  0  0  0
   63.0533   47.6296   27.5429 C   0  0  0  0  0  0
   62.8077   48.4753   28.5388 F   0  0  0  0  0  0
   64.3688   47.5907   27.3394 F   0  0  0  0  0  0
   62.4759   48.0769   26.4460 F   0  0  0  0  0  0
   61.8151   47.9828   34.1879 C   0  0  0  0  0  0
   62.0081   49.3518   33.4726 C   0  0  0  0  0  0
   63.3814   43.8644   29.3236 C   0  0  0  0  0  0
   56.9330   44.2126   29.8998 C   0  0  0  0  0  0
   56.1609   45.3050   29.1652 C   0  0  1  0  0  0
   54.8127   45.7638   29.7394 C   0  0  0  0  0  0
   54.5641   45.2781   30.9862 O   0  0  0  0  0  0
   54.0321   46.4823   29.1229 O   0  0  0  0  0  0
   61.2021   48.1195   35.6079 C   0  0  0  0  0  0
   65.8941   46.4755   35.4899 H   0  0  0  0  0  0
   65.9659   47.4214   34.0191 H   0  0  0  0  0  0
   67.4532   45.3620   33.9101 H   0  0  0  0  0  0
   66.8118   45.7231   32.2945 H   0  0  0  0  0  0
   66.8042   44.0774   32.9402 H   0  0  0  0  0  0
   65.5888   43.9477   35.3389 H   0  0  0  0  0  0
   63.9026   44.4648   35.2499 H   0  0  0  0  0  0
   64.5525   43.3087   34.0876 H   0  0  0  0  0  0
   65.0965   44.0284   31.3457 H   0  0  0  0  0  0
   61.4773   47.3013   31.8029 H   0  0  0  0  0  0
   59.7323   45.6690   31.2987 H   0  0  0  0  0  0
   58.0649   46.4764   27.4843 H   0  0  0  0  0  0
   60.3281   46.7294   26.5391 H   0  0  0  0  0  0
   57.2210   46.0758   31.0091 H   0  0  0  0  0  0
   61.0183   47.4297   33.6955 H   0  0  0  0  0  0
   61.2357   50.0771   33.7371 H   0  0  0  0  0  0
   62.9530   49.8189   33.7391 H   0  0  0  0  0  0
   61.9939   49.2779   32.3877 H   0  0  0  0  0  0
   63.7949   42.9085   29.6484 H   0  0  0  0  0  0
   62.3878   43.6466   28.9316 H   0  0  0  0  0  0
   64.0083   44.2542   28.5281 H   0  0  0  0  0  0
   57.5919   43.5533   29.3392 H   0  0  0  0  0  0
   56.5383   43.7034   30.7789 H   0  0  0  0  0  0
   56.2295   45.3797   28.0807 H   0  0  0  0  0  0
   55.3203   44.7768   31.2954 H   0  0  0  0  0  0
   60.1765   48.4770   35.5490 H   0  0  0  0  0  0
   61.2010   47.1656   36.1369 H   0  0  0  0  0  0
   61.7180   48.8506   36.2311 H   0  0  0  0  0  0
  1  5  2  0  0  0
  1  2  1  0  0  0
  1  4  1  0  0  0
  2  3  1  0  0  0
  2 35  1  0  0  0
  2 36  1  0  0  0
  3  9  1  0  0  0
  3  6  1  0  0  0
  3  7  1  0  0  0
  4  8  1  0  0  0
  4 26  1  0  0  0
  6 37  1  0  0  0
  6 38  1  0  0  0
  6 39  1  0  0  0
  7 40  1  0  0  0
  7 41  1  0  0  0
  7 42  1  0  0  0
  8  9  2  0  0  0
  8 13  1  0  0  0
  9 10  1  0  0  0
 10 11  2  0  0  0
 10 43  1  0  0  0
 11 12  1  0  0  0
 11 28  1  0  0  0
 12 14  1  0  0  0
 12 13  2  0  0  0
 13 44  1  0  0  0
 14 19  1  0  0  0
 14 15  2  0  0  0
 15 16  1  0  0  0
 15 45  1  0  0  0
 16 17  2  0  0  0
 16 20  1  0  0  0
 17 18  1  0  0  0
 17 46  1  0  0  0
 18 19  2  0  0  0
 18 47  1  0  0  0
 19 21  1  0  0  0
 20 29  1  0  0  0
 20 30  1  0  0  0
 20 48  1  0  0  0
 21 22  1  0  0  0
 22 23  1  0  0  0
 22 24  1  0  0  0
 22 25  1  0  0  0
 26 27  1  0  0  0
 26 34  1  0  0  0
 26 49  1  0  0  0
 27 50  1  0  0  0
 27 51  1  0  0  0
 27 52  1  0  0  0
 28 53  1  0  0  0
 28 54  1  0  0  0
 28 55  1  0  0  0
 29 30  1  0  0  0
 29 56  1  0  0  0
 29 57  1  0  0  0
 30 31  1  0  0  0
 30 58  1  0  0  0
 31 32  1  0  0  0
 31 33  2  0  0  0
 32 59  1  0  0  0
 34 60  1  0  0  0
 34 61  1  0  0  0
 34 62  1  0  0  0
M  END
> <s_m_entry_id>
30857

> <s_m_entry_name>
dock_pv.70

> <s_m_Source_Path>
/home/csk/Desktop/cluster/DUD-E-result/rxra

> <s_m_Source_File>
dock_pv.maegz

> <i_m_Source_File_Index>
70

> <chembl_id>
CHEMBL247402

> <chembl_pref_name>
None

> <i_lp_mmshare_version>
53161

> <r_lp_tautomer_probability>
1

> <s_lp_Force_Field>
OPLS_2005

> <r_lp_Energy>
44.894643

> <b_lp_Chiralities_Consistent>
1

> <s_lp_Variant>
CHEMBL2061_lig454-1

> <s_i_glide_gridfile>
glide-grid_1mv9

> <i_i_glide_lignum>
530

> <i_i_glide_rotatable_bonds>
7

> <r_i_docking_score>
-11.2605870909517

> <r_i_glide_ligand_efficiency>
-0.331193737969168

> <r_i_glide_ligand_efficiency_sa>
-1.07293914077293

> <r_i_glide_ligand_efficiency_ln>
-2.48777953716062

> <r_i_glide_gscore>
-11.2605870909517

> <r_i_glide_lipo>
-6.22418118926877

> <r_i_glide_hbond>
-0.0238075894008058

> <r_i_glide_metal>
0

> <r_i_glide_rewards>
-2.84100131791041

> <r_i_glide_evdw>
-42.8830490112305

> <r_i_glide_ecoul>
-2.5704391002655

> <r_i_glide_erotb>
0.358121321229635

> <r_i_glide_esite>
0

> <r_i_glide_emodel>
-37.291421741625

> <r_i_glide_energy>
-45.453488111496

> <r_i_glide_einternal>
17.8333225250244

> <i_i_glide_confnum>
35

> <i_i_glide_posenum>
175

> <r_i_glide_eff_state_penalty>
0

> <s_user_duplicate_titles>
CHEMBL2061_lig454,CHEMBL2061_lig459,414667,414672

> <i_f3d_flags>
0

> <s_m_subgroup_title>
dock_pv

> <s_m_subgroupid>
dock_pv

> <b_m_subgroup_collapsed>
1

$$$$
CHEMBL2061_lig489
                    3D
 Schrodinger Suite 2021-1.
 54 57  0  0  1  0            999 V2000
   60.8185   46.3201   29.8790 N   0  0  0  0  0  0
   60.9620   46.8189   28.6032 C   0  0  0  0  0  0
   59.7594   46.8182   27.9476 C   0  0  0  0  0  0
   58.7843   46.3187   28.8553 C   0  0  0  0  0  0
   57.4050   46.0751   28.7568 C   0  0  0  0  0  0
   56.6850   45.6770   29.8886 C   0  0  0  0  0  0
   57.3631   45.4750   31.0919 C   0  0  0  0  0  0
   58.7383   45.6768   31.2255 C   0  0  0  0  0  0
   59.4569   46.0769   30.0905 C   0  0  0  0  0  0
   55.1804   45.5563   29.8420 C   0  0  0  0  0  0
   54.5478   44.7616   30.5392 O   0  0  0  0  0  0
   54.5761   46.4769   29.0325 O   0  0  0  0  0  0
   61.7753   46.6375   32.0938 C   0  0  0  0  0  0
   61.8954   46.1585   30.7861 C   0  0  0  0  0  0
   63.0620   45.4675   30.4199 C   0  0  0  0  0  0
   64.0682   45.3008   31.3648 C   0  0  0  0  0  0
   63.9600   45.7601   32.6858 C   0  0  0  0  0  0
   65.1032   45.4284   33.6776 C   0  0  0  0  0  0
   64.9516   46.2351   34.9885 C   0  0  0  0  0  0
   63.5151   46.2703   35.5062 C   0  0  0  0  0  0
   62.5472   46.9654   34.5133 C   0  0  0  0  0  0
   62.7686   46.4382   33.0709 C   0  0  0  0  0  0
   62.8374   48.4772   34.5228 C   0  0  0  0  0  0
   61.1127   46.6623   35.0189 C   0  0  0  0  0  0
   65.0342   43.9198   34.0142 C   0  0  0  0  0  0
   66.4736   45.8369   33.0836 C   0  0  0  0  0  0
   63.2522   44.8040   29.0576 C   0  0  0  0  0  0
   61.9364   47.1359   28.2594 H   0  0  0  0  0  0
   59.6096   47.1525   26.9391 H   0  0  0  0  0  0
   56.9071   46.2207   27.8094 H   0  0  0  0  0  0
   56.7973   45.2609   31.9864 H   0  0  0  0  0  0
   59.2078   45.5572   32.1897 H   0  0  0  0  0  0
   55.2206   47.0670   28.6377 H   0  0  0  0  0  0
   60.8816   47.1791   32.3630 H   0  0  0  0  0  0
   64.9480   44.7467   31.0746 H   0  0  0  0  0  0
   65.2903   47.2596   34.8422 H   0  0  0  0  0  0
   65.6078   45.8300   35.7591 H   0  0  0  0  0  0
   63.5077   46.7817   36.4688 H   0  0  0  0  0  0
   63.1849   45.2523   35.7167 H   0  0  0  0  0  0
   62.7787   48.8739   35.5371 H   0  0  0  0  0  0
   63.8257   48.7234   34.1396 H   0  0  0  0  0  0
   62.1181   49.0184   33.9073 H   0  0  0  0  0  0
   61.0202   46.8574   36.0881 H   0  0  0  0  0  0
   60.3581   47.2773   34.5337 H   0  0  0  0  0  0
   60.8216   45.6288   34.8487 H   0  0  0  0  0  0
   65.7926   43.6496   34.7487 H   0  0  0  0  0  0
   64.0652   43.6244   34.4159 H   0  0  0  0  0  0
   65.2108   43.3027   33.1328 H   0  0  0  0  0  0
   67.2727   45.7194   33.8167 H   0  0  0  0  0  0
   66.7537   45.2270   32.2263 H   0  0  0  0  0  0
   66.4797   46.8776   32.7575 H   0  0  0  0  0  0
   64.0067   44.0148   29.0939 H   0  0  0  0  0  0
   62.3297   44.3210   28.7294 H   0  0  0  0  0  0
   63.5512   45.5327   28.3015 H   0  0  0  0  0  0
  1  2  1  0  0  0
  1  9  1  0  0  0
  1 14  1  0  0  0
  2  3  2  0  0  0
  2 28  1  0  0  0
  3  4  1  0  0  0
  3 29  1  0  0  0
  4  5  1  0  0  0
  4  9  2  0  0  0
  5  6  2  0  0  0
  5 30  1  0  0  0
  6  7  1  0  0  0
  6 10  1  0  0  0
  7  8  2  0  0  0
  7 31  1  0  0  0
  8  9  1  0  0  0
  8 32  1  0  0  0
 10 11  2  0  0  0
 10 12  1  0  0  0
 12 33  1  0  0  0
 13 14  1  0  0  0
 13 22  2  0  0  0
 13 34  1  0  0  0
 14 15  2  0  0  0
 15 16  1  0  0  0
 15 27  1  0  0  0
 16 17  2  0  0  0
 16 35  1  0  0  0
 17 18  1  0  0  0
 17 22  1  0  0  0
 18 19  1  0  0  0
 18 25  1  0  0  0
 18 26  1  0  0  0
 19 20  1  0  0  0
 19 36  1  0  0  0
 19 37  1  0  0  0
 20 21  1  0  0  0
 20 38  1  0  0  0
 20 39  1  0  0  0
 21 22  1  0  0  0
 21 23  1  0  0  0
 21 24  1  0  0  0
 23 40  1  0  0  0
 23 41  1  0  0  0
 23 42  1  0  0  0
 24 43  1  0  0  0
 24 44  1  0  0  0
 24 45  1  0  0  0
 25 46  1  0  0  0
 25 47  1  0  0  0
 25 48  1  0  0  0
 26 49  1  0  0  0
 26 50  1  0  0  0
 26 51  1  0  0  0
 27 52  1  0  0  0
 27 53  1  0  0  0
 27 54  1  0  0  0
M  END
> <s_m_entry_id>
30859

> <s_m_entry_name>
dock_pv.72

> <s_m_Source_Path>
/home/csk/Desktop/cluster/DUD-E-result/rxra

> <s_m_Source_File>
dock_pv.maegz

> <i_m_Source_File_Index>
72

> <chembl_id>
CHEMBL2332890

> <chembl_pref_name>
None

> <i_lp_mmshare_version>
53161

> <r_lp_tautomer_probability>
1

> <s_lp_Force_Field>
OPLS_2005

> <r_lp_Energy>
26.27374

> <b_lp_Chiralities_Consistent>
1

> <s_lp_Variant>
CHEMBL2061_lig489-1

> <s_i_glide_gridfile>
glide-grid_1mv9

> <i_i_glide_lignum>
578

> <i_i_glide_rotatable_bonds>
3

> <r_i_docking_score>
-11.2464083957891

> <r_i_glide_ligand_efficiency>
-0.416533644288486

> <r_i_glide_ligand_efficiency_sa>
-1.24960093149263

> <r_i_glide_ligand_efficiency_ln>
-2.6179784630066

> <r_i_glide_gscore>
-11.2464083957891

> <r_i_glide_lipo>
-6.48571934103429

> <r_i_glide_hbond>
-0.0910560503688537

> <r_i_glide_metal>
0

> <r_i_glide_rewards>
-2.30574209708646

> <r_i_glide_evdw>
-44.2207832336426

> <r_i_glide_ecoul>
-2.97729158401489

> <r_i_glide_erotb>
0.293741991984846

> <r_i_glide_esite>
0

> <r_i_glide_emodel>
-74.6732674103899

> <r_i_glide_energy>
-47.1980748176575

> <r_i_glide_einternal>
2.39613509178162

> <i_i_glide_confnum>
12

> <i_i_glide_posenum>
342

> <r_i_glide_eff_state_penalty>
0

> <s_user_duplicate_titles>
CHEMBL2061_lig489

> <i_f3d_flags>
0

> <s_m_subgroup_title>
dock_pv

> <s_m_subgroupid>
dock_pv

> <b_m_subgroup_collapsed>
1

$$$$
CHEMBL2061_lig106
                    3D
 Schrodinger Suite 2021-1.
 55 55  0  0  1  0            999 V2000
   62.4423   47.5494   28.1237 C   0  0  0  0  0  0
   62.8209   46.9410   29.4865 C   0  0  0  0  0  0
   62.5351   46.8007   31.9094 C   0  0  0  0  0  0
   60.9544   47.3635   27.7488 C   0  0  0  0  0  0
   63.6102   45.9062   31.9816 C   0  0  0  0  0  0
   64.1857   45.4114   30.8018 C   0  0  0  0  0  0
   62.1967   47.3613   30.6692 C   0  0  0  0  0  0
   63.7924   45.9384   29.5691 C   0  0  0  0  0  0
   61.7040   47.0484   33.1134 C   0  0  0  0  0  0
   56.2066   45.2675   31.2017 C   0  0  0  0  0  0
   55.2081   44.8778   30.2302 C   0  0  0  0  0  0
   59.6394   46.0768   32.0949 C   0  0  0  0  0  0
   57.5576   45.1760   31.0816 C   0  0  0  0  0  0
   60.4084   46.6666   33.1808 C   0  0  0  0  0  0
   58.3527   45.6849   32.1961 C   0  0  0  0  0  0
   54.0838   44.4937   30.5387 O   0  0  0  0  0  0
   62.7540   48.8441   28.1379 F   0  0  0  0  0  0
   63.2022   47.0124   27.1639 F   0  0  0  0  0  0
   60.1089   47.9489   28.5968 F   0  0  0  0  0  0
   60.7241   47.8876   26.5501 F   0  0  0  0  0  0
   60.6202   46.0768   27.7005 F   0  0  0  0  0  0
   65.1675   44.2418   30.8480 C   0  0  0  0  0  0
   64.0681   45.4824   33.2093 O   0  0  0  0  0  0
   55.6066   45.0024   28.9356 O   0  0  0  0  0  0
   62.3574   47.7667   34.2846 C   0  0  0  0  0  0
   58.2541   44.5458   29.8745 C   0  0  0  0  0  0
   66.4991   44.5467   30.1516 C   0  0  0  0  0  0
   64.5066   42.9413   30.3491 C   0  0  0  0  0  0
   65.2968   46.0953   33.6097 C   0  0  0  0  0  0
   66.0401   45.1527   34.5556 C   0  0  0  0  0  0
   61.4078   48.0979   30.6315 H   0  0  0  0  0  0
   64.2485   45.5530   28.6693 H   0  0  0  0  0  0
   55.7723   45.6724   32.1053 H   0  0  0  0  0  0
   60.1176   45.9575   31.1355 H   0  0  0  0  0  0
   59.8884   46.8381   34.1134 H   0  0  0  0  0  0
   57.8713   45.7991   33.1581 H   0  0  0  0  0  0
   65.4337   44.0768   31.8879 H   0  0  0  0  0  0
   54.9484   44.6393   28.3399 H   0  0  0  0  0  0
   62.9109   47.0601   34.9013 H   0  0  0  0  0  0
   63.0437   48.5400   33.9354 H   0  0  0  0  0  0
   61.6164   48.2393   34.9314 H   0  0  0  0  0  0
   59.2084   44.0929   30.1389 H   0  0  0  0  0  0
   57.6772   43.7106   29.4787 H   0  0  0  0  0  0
   58.4096   45.2816   29.0854 H   0  0  0  0  0  0
   67.0418   45.3179   30.6836 H   0  0  0  0  0  0
   67.1543   43.6804   30.1287 H   0  0  0  0  0  0
   66.3654   44.8956   29.1380 H   0  0  0  0  0  0
   63.6656   42.6611   30.9845 H   0  0  0  0  0  0
   64.1238   43.0383   29.3317 H   0  0  0  0  0  0
   65.2076   42.1055   30.3584 H   0  0  0  0  0  0
   65.9485   46.3346   32.7654 H   0  0  0  0  0  0
   65.0906   47.0384   34.1150 H   0  0  0  0  0  0
   66.9461   45.6227   34.9398 H   0  0  0  0  0  0
   65.4148   44.8837   35.4065 H   0  0  0  0  0  0
   66.3342   44.2311   34.0523 H   0  0  0  0  0  0
  1  2  1  0  0  0
  1  4  1  0  0  0
  1 17  1  0  0  0
  1 18  1  0  0  0
  2  7  1  0  0  0
  2  8  2  0  0  0
  3  7  2  0  0  0
  3  9  1  0  0  0
  3  5  1  0  0  0
  4 19  1  0  0  0
  4 20  1  0  0  0
  4 21  1  0  0  0
  5  6  2  0  0  0
  5 23  1  0  0  0
  6  8  1  0  0  0
  6 22  1  0  0  0
  7 31  1  0  0  0
  8 32  1  0  0  0
  9 14  2  0  0  0
  9 25  1  0  0  0
 10 13  2  0  0  0
 10 11  1  0  0  0
 10 33  1  0  0  0
 11 16  2  0  0  0
 11 24  1  0  0  0
 12 14  1  0  0  0
 12 15  2  0  0  0
 12 34  1  0  0  0
 13 15  1  0  0  0
 13 26  1  0  0  0
 14 35  1  0  0  0
 15 36  1  0  0  0
 22 27  1  0  0  0
 22 28  1  0  0  0
 22 37  1  0  0  0
 23 29  1  0  0  0
 24 38  1  0  0  0
 25 39  1  0  0  0
 25 40  1  0  0  0
 25 41  1  0  0  0
 26 42  1  0  0  0
 26 43  1  0  0  0
 26 44  1  0  0  0
 27 45  1  0  0  0
 27 46  1  0  0  0
 27 47  1  0  0  0
 28 48  1  0  0  0
 28 49  1  0  0  0
 28 50  1  0  0  0
 29 30  1  0  0  0
 29 51  1  0  0  0
 29 52  1  0  0  0
 30 53  1  0  0  0
 30 54  1  0  0  0
 30 55  1  0  0  0
M  END
> <s_m_entry_id>
30860

> <s_m_entry_name>
dock_pv.73

> <s_m_Source_Path>
/home/csk/Desktop/cluster/DUD-E-result/rxra

> <s_m_Source_File>
dock_pv.maegz

> <i_m_Source_File_Index>
73

> <chembl_id>
CHEMBL133896

> <chembl_pref_name>
None

> <i_lp_mmshare_version>
53161

> <r_lp_tautomer_probability>
1

> <s_lp_Force_Field>
OPLS_2005

> <r_lp_Energy>
24.980163

> <b_lp_Chiralities_Consistent>
1

> <s_lp_Variant>
CHEMBL2061_lig106-1

> <s_i_glide_gridfile>
glide-grid_1mv9

> <i_i_glide_lignum>
145

> <i_i_glide_rotatable_bonds>
10

> <r_i_docking_score>
-11.2422126902123

> <r_i_glide_ligand_efficiency>
-0.374740423007077

> <r_i_glide_ligand_efficiency_sa>
-1.16440562234236

> <r_i_glide_ligand_efficiency_ln>
-2.55435321693447

> <r_i_glide_gscore>
-11.2422126902123

> <r_i_glide_lipo>
-5.05809389699473

> <r_i_glide_hbond>
-0.32

> <r_i_glide_metal>
0

> <r_i_glide_rewards>
-3.66074467045454

> <r_i_glide_evdw>
-40.3173637390137

> <r_i_glide_ecoul>
-5.50659656524658

> <r_i_glide_erotb>
0.638483548974642

> <r_i_glide_esite>
0

> <r_i_glide_emodel>
-72.3612666343952

> <r_i_glide_energy>
-45.8239603042603

> <r_i_glide_einternal>
6.736900806427

> <i_i_glide_confnum>
106

> <i_i_glide_posenum>
165

> <r_i_glide_eff_state_penalty>
0

> <s_user_duplicate_titles>
CHEMBL2061_lig106,217484

> <i_f3d_flags>
0

> <s_m_subgroup_title>
dock_pv

> <s_m_subgroupid>
dock_pv

> <b_m_subgroup_collapsed>
1

$$$$
CHEMBL2061_lig571
                    3D
 Schrodinger Suite 2021-1.
 60 62  0  0  1  0            999 V2000
   62.9119   46.4540   32.8586 C   0  0  0  0  0  0
   64.0075   45.6054   32.5391 C   0  0  0  0  0  0
   62.0551   46.2027   30.5501 C   0  0  0  0  0  0
   61.0242   46.5571   29.5273 C   0  0  0  0  0  0
   62.0142   46.7855   31.8252 C   0  0  0  0  0  0
   64.0546   45.0424   31.2551 C   0  0  0  0  0  0
   63.0915   45.2913   30.2814 C   0  0  0  0  0  0
   62.6659   46.9901   34.2977 C   0  0  0  0  0  0
   65.1028   45.2143   33.5627 C   0  0  0  0  0  0
   55.4432   45.0312   30.2847 C   0  0  0  0  0  0
   61.3228   47.2153   28.4653 N   0  0  0  0  0  0
   59.6066   46.1049   29.6991 C   0  0  0  0  0  0
   56.8992   45.3242   30.0559 C   0  0  0  0  0  0
   64.9985   46.0782   34.8446 C   0  0  0  0  0  0
   63.5583   46.2456   35.3278 C   0  0  0  0  0  0
   54.8676   45.2770   31.3390 O   0  0  0  0  0  0
   58.6906   46.1232   28.6323 C   0  0  0  0  0  0
   59.1166   45.6770   30.9390 C   0  0  0  0  0  0
   57.7978   45.2770   31.1202 C   0  0  0  0  0  0
   57.3583   45.7509   28.8074 C   0  0  0  0  0  0
   54.8081   44.4770   29.2265 O   0  0  0  0  0  0
   63.1838   44.5111   28.9708 C   0  0  0  0  0  0
   63.0068   48.4911   34.3624 C   0  0  0  0  0  0
   61.2016   46.7228   34.7306 C   0  0  0  0  0  0
   64.9186   43.7243   33.9440 C   0  0  0  0  0  0
   66.5042   45.5024   32.9734 C   0  0  0  0  0  0
   62.6762   47.6143   28.4060 O   0  0  0  0  0  0
   63.0569   47.7230   27.0438 C   0  0  0  0  0  0
   64.5429   48.0805   26.9451 C   0  0  0  0  0  0
   61.2221   47.4875   32.0410 H   0  0  0  0  0  0
   64.8478   44.3490   31.0187 H   0  0  0  0  0  0
   65.6080   45.6536   35.6435 H   0  0  0  0  0  0
   65.4229   47.0661   34.6663 H   0  0  0  0  0  0
   63.1503   45.2603   35.5519 H   0  0  0  0  0  0
   63.5609   46.7732   36.2830 H   0  0  0  0  0  0
   59.0002   46.4522   27.6505 H   0  0  0  0  0  0
   59.7413   45.6770   31.8167 H   0  0  0  0  0  0
   57.4817   44.9904   32.1120 H   0  0  0  0  0  0
   56.6898   45.8313   27.9616 H   0  0  0  0  0  0
   55.4212   44.1841   28.5474 H   0  0  0  0  0  0
   63.7878   43.6089   29.0761 H   0  0  0  0  0  0
   62.1980   44.1761   28.6473 H   0  0  0  0  0  0
   63.6080   45.1285   28.1815 H   0  0  0  0  0  0
   62.8210   48.8768   35.3648 H   0  0  0  0  0  0
   64.0508   48.6951   34.1390 H   0  0  0  0  0  0
   62.4026   49.0751   33.6677 H   0  0  0  0  0  0
   61.0358   47.0082   35.7703 H   0  0  0  0  0  0
   60.4793   47.2770   34.1384 H   0  0  0  0  0  0
   60.9339   45.6746   34.6347 H   0  0  0  0  0  0
   65.6381   43.4235   34.7047 H   0  0  0  0  0  0
   63.9211   43.5112   34.3285 H   0  0  0  0  0  0
   65.0751   43.0673   33.0880 H   0  0  0  0  0  0
   67.2847   45.3126   33.7121 H   0  0  0  0  0  0
   66.7299   44.8770   32.1105 H   0  0  0  0  0  0
   66.6025   46.5411   32.6536 H   0  0  0  0  0  0
   62.8925   46.7699   26.5390 H   0  0  0  0  0  0
   62.4544   48.4771   26.5387 H   0  0  0  0  0  0
   64.8683   48.0771   25.9048 H   0  0  0  0  0  0
   64.7427   49.0703   27.3560 H   0  0  0  0  0  0
   65.1579   47.3591   27.4845 H   0  0  0  0  0  0
  1  2  2  0  0  0
  1  5  1  0  0  0
  1  8  1  0  0  0
  2  6  1  0  0  0
  2  9  1  0  0  0
  3  5  2  0  0  0
  3  4  1  0  0  0
  3  7  1  0  0  0
  4 11  2  0  0  0
  4 12  1  0  0  0
  5 30  1  0  0  0
  6  7  2  0  0  0
  6 31  1  0  0  0
  7 22  1  0  0  0
  8 15  1  0  0  0
  8 23  1  0  0  0
  8 24  1  0  0  0
  9 25  1  0  0  0
  9 26  1  0  0  0
  9 14  1  0  0  0
 10 13  1  0  0  0
 10 16  2  0  0  0
 10 21  1  0  0  0
 11 27  1  0  0  0
 12 17  2  0  0  0
 12 18  1  0  0  0
 13 19  1  0  0  0
 13 20  2  0  0  0
 14 15  1  0  0  0
 14 32  1  0  0  0
 14 33  1  0  0  0
 15 34  1  0  0  0
 15 35  1  0  0  0
 17 20  1  0  0  0
 17 36  1  0  0  0
 18 19  2  0  0  0
 18 37  1  0  0  0
 19 38  1  0  0  0
 20 39  1  0  0  0
 21 40  1  0  0  0
 22 41  1  0  0  0
 22 42  1  0  0  0
 22 43  1  0  0  0
 23 44  1  0  0  0
 23 45  1  0  0  0
 23 46  1  0  0  0
 24 47  1  0  0  0
 24 48  1  0  0  0
 24 49  1  0  0  0
 25 50  1  0  0  0
 25 51  1  0  0  0
 25 52  1  0  0  0
 26 53  1  0  0  0
 26 54  1  0  0  0
 26 55  1  0  0  0
 27 28  1  0  0  0
 28 29  1  0  0  0
 28 56  1  0  0  0
 28 57  1  0  0  0
 29 58  1  0  0  0
 29 59  1  0  0  0
 29 60  1  0  0  0
M  END
> <s_m_entry_id>
30861

> <s_m_entry_name>
dock_pv.74

> <s_m_Source_Path>
/home/csk/Desktop/cluster/DUD-E-result/rxra

> <s_m_Source_File>
dock_pv.maegz

> <i_m_Source_File_Index>
74

> <chembl_id>
CHEMBL2110180

> <chembl_pref_name>
None

> <i_lp_mmshare_version>
53161

> <r_lp_tautomer_probability>
1

> <s_lp_Force_Field>
OPLS_2005

> <r_lp_Energy>
35.675594

> <b_lp_Chiralities_Consistent>
1

> <s_lp_Variant>
CHEMBL2061_lig571-1

> <s_i_glide_gridfile>
glide-grid_1mv9

> <i_i_glide_lignum>
702

> <i_i_glide_rotatable_bonds>
6

> <r_i_docking_score>
-11.2419747631684

> <r_i_glide_ligand_efficiency>
-0.387654302178222

> <r_i_glide_ligand_efficiency_sa>
-1.19099683379484

> <r_i_glide_ligand_efficiency_ln>
-2.57412714888225

> <r_i_glide_gscore>
-11.2419747631684

> <r_i_glide_lipo>
-6.48924815113478

> <r_i_glide_hbond>
-0.010008269088341

> <r_i_glide_metal>
0

> <r_i_glide_rewards>
-2.17235689699604

> <r_i_glide_evdw>
-52.3074989318848

> <r_i_glide_ecoul>
-3.06398868560791

> <r_i_glide_erotb>
0.504611803486147

> <r_i_glide_esite>
0

> <r_i_glide_emodel>
-87.1788867008257

> <r_i_glide_energy>
-55.3714876174927

> <r_i_glide_einternal>
6.15279865264893

> <i_i_glide_confnum>
47

> <i_i_glide_posenum>
150

> <r_i_glide_eff_state_penalty>
0

> <s_user_duplicate_titles>
CHEMBL2061_lig571,CHEMBL2061_lig389,272466

> <i_f3d_flags>
0

> <s_m_subgroup_title>
dock_pv

> <s_m_subgroupid>
dock_pv

> <b_m_subgroup_collapsed>
1

$$$$
CHEMBL2061_lig487
                    3D
 Schrodinger Suite 2021-1.
 53 56  0  0  1  0            999 V2000
   60.4981   46.6553   28.4050 C   0  0  0  0  0  0
   59.3443   46.6512   27.7965 N   0  0  0  0  0  0
   58.4644   46.2150   28.7441 C   0  0  0  0  0  0
   59.1283   45.9114   29.9594 C   0  0  0  0  0  0
   60.4728   46.1862   29.7026 N   0  0  0  0  0  0
   57.0700   46.0766   28.6397 C   0  0  0  0  0  0
   56.3473   45.6309   29.7524 C   0  0  0  0  0  0
   57.0328   45.2771   30.9127 C   0  0  0  0  0  0
   58.4086   45.4467   31.0695 C   0  0  0  0  0  0
   54.8412   45.5558   29.7391 C   0  0  0  0  0  0
   54.2018   44.7855   30.4557 O   0  0  0  0  0  0
   54.2471   46.4847   28.9392 O   0  0  0  0  0  0
   61.5471   46.5670   31.8601 C   0  0  0  0  0  0
   61.6050   46.0737   30.5530 C   0  0  0  0  0  0
   62.7723   45.4134   30.1346 C   0  0  0  0  0  0
   63.8346   45.2872   31.0270 C   0  0  0  0  0  0
   63.7879   45.7570   32.3489 C   0  0  0  0  0  0
   64.9790   45.4355   33.2929 C   0  0  0  0  0  0
   64.8823   46.2428   34.6136 C   0  0  0  0  0  0
   63.4630   46.2745   35.1825 C   0  0  0  0  0  0
   62.4503   46.9625   34.2285 C   0  0  0  0  0  0
   62.6031   46.4176   32.7831 C   0  0  0  0  0  0
   62.7489   48.4741   34.2113 C   0  0  0  0  0  0
   61.0440   46.6578   34.8072 C   0  0  0  0  0  0
   64.9302   43.9252   33.6379 C   0  0  0  0  0  0
   66.3234   45.8409   32.6378 C   0  0  0  0  0  0
   62.9010   44.7291   28.7766 C   0  0  0  0  0  0
   61.4302   46.9829   27.9692 H   0  0  0  0  0  0
   56.5734   46.3115   27.7130 H   0  0  0  0  0  0
   56.4565   44.9167   31.7409 H   0  0  0  0  0  0
   58.8773   45.2771   32.0237 H   0  0  0  0  0  0
   54.8987   47.0622   28.5378 H   0  0  0  0  0  0
   60.6495   47.0780   32.1711 H   0  0  0  0  0  0
   64.7071   44.7454   30.6960 H   0  0  0  0  0  0
   65.2274   47.2674   34.4662 H   0  0  0  0  0  0
   65.5629   45.8286   35.3595 H   0  0  0  0  0  0
   63.4788   46.7823   36.1475 H   0  0  0  0  0  0
   63.1486   45.2552   35.4065 H   0  0  0  0  0  0
   62.7881   48.8766   35.2233 H   0  0  0  0  0  0
   63.7041   48.6756   33.7437 H   0  0  0  0  0  0
   62.0078   49.0368   33.6467 H   0  0  0  0  0  0
   61.0032   46.8548   35.8786 H   0  0  0  0  0  0
   60.2697   47.2731   34.3590 H   0  0  0  0  0  0
   60.7542   45.6201   34.6526 H   0  0  0  0  0  0
   65.7229   43.6486   34.3327 H   0  0  0  0  0  0
   63.9833   43.6276   34.0862 H   0  0  0  0  0  0
   65.0568   43.3082   32.7475 H   0  0  0  0  0  0
   67.1503   45.7433   33.3417 H   0  0  0  0  0  0
   66.5709   45.2178   31.7783 H   0  0  0  0  0  0
   66.3047   46.8769   32.2973 H   0  0  0  0  0  0
   63.6480   43.9311   28.7977 H   0  0  0  0  0  0
   61.9635   44.2493   28.4916 H   0  0  0  0  0  0
   63.1827   45.4424   27.9996 H   0  0  0  0  0  0
  1  2  2  0  0  0
  1  5  1  0  0  0
  1 28  1  0  0  0
  2  3  1  0  0  0
  3  4  1  0  0  0
  3  6  2  0  0  0
  4  5  1  0  0  0
  4  9  2  0  0  0
  5 14  1  0  0  0
  6  7  1  0  0  0
  6 29  1  0  0  0
  7  8  2  0  0  0
  7 10  1  0  0  0
  8  9  1  0  0  0
  8 30  1  0  0  0
  9 31  1  0  0  0
 10 11  2  0  0  0
 10 12  1  0  0  0
 12 32  1  0  0  0
 13 14  1  0  0  0
 13 22  2  0  0  0
 13 33  1  0  0  0
 14 15  2  0  0  0
 15 16  1  0  0  0
 15 27  1  0  0  0
 16 17  2  0  0  0
 16 34  1  0  0  0
 17 18  1  0  0  0
 17 22  1  0  0  0
 18 19  1  0  0  0
 18 25  1  0  0  0
 18 26  1  0  0  0
 19 20  1  0  0  0
 19 35  1  0  0  0
 19 36  1  0  0  0
 20 21  1  0  0  0
 20 37  1  0  0  0
 20 38  1  0  0  0
 21 22  1  0  0  0
 21 23  1  0  0  0
 21 24  1  0  0  0
 23 39  1  0  0  0
 23 40  1  0  0  0
 23 41  1  0  0  0
 24 42  1  0  0  0
 24 43  1  0  0  0
 24 44  1  0  0  0
 25 45  1  0  0  0
 25 46  1  0  0  0
 25 47  1  0  0  0
 26 48  1  0  0  0
 26 49  1  0  0  0
 26 50  1  0  0  0
 27 51  1  0  0  0
 27 52  1  0  0  0
 27 53  1  0  0  0
M  END
> <s_m_entry_id>
30862

> <s_m_entry_name>
dock_pv.75

> <s_m_Source_Path>
/home/csk/Desktop/cluster/DUD-E-result/rxra

> <s_m_Source_File>
dock_pv.maegz

> <i_m_Source_File_Index>
75

> <chembl_id>
CHEMBL2332885

> <chembl_pref_name>
None

> <i_lp_mmshare_version>
53161

> <r_lp_tautomer_probability>
1

> <s_lp_Force_Field>
OPLS_2005

> <r_lp_Energy>
27.52312

> <b_lp_Chiralities_Consistent>
1

> <s_lp_Variant>
CHEMBL2061_lig487-1

> <s_i_glide_gridfile>
glide-grid_1mv9

> <i_i_glide_lignum>
576

> <i_i_glide_rotatable_bonds>
3

> <r_i_docking_score>
-11.2391621952211

> <r_i_glide_ligand_efficiency>
-0.416265266489669

> <r_i_glide_ligand_efficiency_sa>
-1.24879579809706

> <r_i_glide_ligand_efficiency_ln>
-2.61629166697731

> <r_i_glide_gscore>
-11.2391621952211

> <r_i_glide_lipo>
-5.81865201554876

> <r_i_glide_hbond>
-0.273670158985943

> <r_i_glide_metal>
0

> <r_i_glide_rewards>
-2.62003570000939

> <r_i_glide_evdw>
-44.5306968688965

> <r_i_glide_ecoul>
-3.95056581497192

> <r_i_glide_erotb>
0.292315395013648

> <r_i_glide_esite>
0

> <r_i_glide_emodel>
-77.6160291205461

> <r_i_glide_energy>
-48.4812626838684

> <r_i_glide_einternal>
4.20221042633057

> <i_i_glide_confnum>
12

> <i_i_glide_posenum>
40

> <r_i_glide_eff_state_penalty>
0

> <s_user_duplicate_titles>
CHEMBL2061_lig487

> <i_f3d_flags>
0

> <s_m_subgroup_title>
dock_pv

> <s_m_subgroupid>
dock_pv

> <b_m_subgroup_collapsed>
1

$$$$
CHEMBL2061_lig77 
                    3D
 Schrodinger Suite 2021-1.
 56 59  0  0  1  0            999 V2000
   64.2131   45.7963   32.7768 C   0  0  0  0  0  0
   64.2537   45.3001   31.4642 C   0  0  0  0  0  0
   63.2307   45.5134   30.5491 C   0  0  0  0  0  0
   62.1368   46.2999   30.9318 C   0  0  0  0  0  0
   62.1312   46.8698   32.2040 C   0  0  0  0  0  0
   63.0981   46.5837   33.1711 C   0  0  0  0  0  0
   62.9077   47.1383   34.6086 C   0  0  0  0  0  0
   63.9003   46.4712   35.5924 C   0  0  0  0  0  0
   65.2937   46.3555   34.9803 C   0  0  0  0  0  0
   65.3407   45.4185   33.7568 C   0  0  0  0  0  0
   65.1478   43.9492   34.1974 C   0  0  0  0  0  0
   66.7157   45.6456   33.0992 C   0  0  0  0  0  0
   63.1975   48.6540   34.5827 C   0  0  0  0  0  0
   61.4855   46.8142   35.1393 C   0  0  0  0  0  0
   60.8830   46.3592   30.1463 C   0  0  0  0  0  0
   60.7872   46.7874   28.8134 C   0  0  0  0  0  0
   59.5699   46.6837   28.1429 C   0  0  0  0  0  0
   58.4645   46.1408   28.8012 C   0  0  0  0  0  0
   58.5517   45.6959   30.1083 C   0  0  0  0  0  0
   59.7345   45.8938   30.7904 C   0  0  0  0  0  0
   57.3235   45.2058   30.7298 C   0  0  0  0  0  0
   56.1246   45.3218   30.1089 C   0  0  0  0  0  0
   56.0643   45.9133   28.7693 C   0  0  0  0  0  0
   57.2634   46.0770   28.1390 O   0  0  0  0  0  0
   55.0801   46.2892   28.1390 O   0  0  0  0  0  0
   54.9050   44.9849   30.7715 C   0  0  0  0  0  0
   54.8089   45.6770   31.9265 O   0  0  0  0  0  0
   54.0085   44.2769   30.3209 O   0  0  0  0  0  0
   61.8612   47.3296   28.1590 O   0  0  0  0  0  0
   63.2953   44.7671   29.2197 C   0  0  0  0  0  0
   65.0685   44.6608   31.1618 H   0  0  0  0  0  0
   61.2849   47.4789   32.4819 H   0  0  0  0  0  0
   63.9551   47.0355   36.5253 H   0  0  0  0  0  0
   63.5545   45.4802   35.8873 H   0  0  0  0  0  0
   65.6077   47.3497   34.6690 H   0  0  0  0  0  0
   66.0080   46.0505   35.7391 H   0  0  0  0  0  0
   65.8943   43.6724   34.9391 H   0  0  0  0  0  0
   64.1626   43.7588   34.6229 H   0  0  0  0  0  0
   65.2661   43.2630   33.3577 H   0  0  0  0  0  0
   67.5314   45.4754   33.8034 H   0  0  0  0  0  0
   66.8586   44.9573   32.2698 H   0  0  0  0  0  0
   66.8104   46.6605   32.7102 H   0  0  0  0  0  0
   63.2079   49.0760   35.5883 H   0  0  0  0  0  0
   64.1631   48.8771   34.1390 H   0  0  0  0  0  0
   62.4517   49.1906   33.9955 H   0  0  0  0  0  0
   61.3629   47.1475   36.1694 H   0  0  0  0  0  0
   60.6995   47.3055   34.5691 H   0  0  0  0  0  0
   61.2783   45.7442   35.1145 H   0  0  0  0  0  0
   59.4910   47.0285   27.1250 H   0  0  0  0  0  0
   59.7714   45.6770   31.8471 H   0  0  0  0  0  0
   57.3913   44.7907   31.7252 H   0  0  0  0  0  0
   55.5961   46.2026   32.0912 H   0  0  0  0  0  0
   62.6414   47.3448   28.7182 H   0  0  0  0  0  0
   63.8912   43.8573   29.3062 H   0  0  0  0  0  0
   62.3092   44.4389   28.8901 H   0  0  0  0  0  0
   63.7384   45.3921   28.4454 H   0  0  0  0  0  0
  1  2  2  0  0  0
  1  6  1  0  0  0
  1 10  1  0  0  0
  2  3  1  0  0  0
  2 31  1  0  0  0
  3  4  2  0  0  0
  3 30  1  0  0  0
  4  5  1  0  0  0
  4 15  1  0  0  0
  5  6  2  0  0  0
  5 32  1  0  0  0
  6  7  1  0  0  0
  7  8  1  0  0  0
  7 13  1  0  0  0
  7 14  1  0  0  0
  8  9  1  0  0  0
  8 33  1  0  0  0
  8 34  1  0  0  0
  9 10  1  0  0  0
  9 35  1  0  0  0
  9 36  1  0  0  0
 10 11  1  0  0  0
 10 12  1  0  0  0
 11 37  1  0  0  0
 11 38  1  0  0  0
 11 39  1  0  0  0
 12 40  1  0  0  0
 12 41  1  0  0  0
 12 42  1  0  0  0
 13 43  1  0  0  0
 13 44  1  0  0  0
 13 45  1  0  0  0
 14 46  1  0  0  0
 14 47  1  0  0  0
 14 48  1  0  0  0
 15 16  2  0  0  0
 15 20  1  0  0  0
 16 17  1  0  0  0
 16 29  1  0  0  0
 17 18  2  0  0  0
 17 49  1  0  0  0
 18 19  1  0  0  0
 18 24  1  0  0  0
 19 20  2  0  0  0
 19 21  1  0  0  0
 20 50  1  0  0  0
 21 22  2  0  0  0
 21 51  1  0  0  0
 22 23  1  0  0  0
 22 26  1  0  0  0
 23 24  1  0  0  0
 23 25  2  0  0  0
 26 27  1  0  0  0
 26 28  2  0  0  0
 27 52  1  0  0  0
 29 53  1  0  0  0
 30 54  1  0  0  0
 30 55  1  0  0  0
 30 56  1  0  0  0
M  END
> <s_m_entry_id>
30863

> <s_m_entry_name>
dock_pv.76

> <s_m_Source_Path>
/home/csk/Desktop/cluster/DUD-E-result/rxra

> <s_m_Source_File>
dock_pv.maegz

> <i_m_Source_File_Index>
76

> <chembl_id>
CHEMBL4449685

> <chembl_pref_name>
None

> <i_lp_mmshare_version>
53161

> <r_lp_tautomer_probability>
1

> <s_lp_Force_Field>
OPLS_2005

> <r_lp_Energy>
38.055133

> <b_lp_Chiralities_Consistent>
1

> <s_lp_Variant>
CHEMBL2061_lig77 -1

> <s_i_glide_gridfile>
glide-grid_1mv9

> <i_i_glide_lignum>
104

> <i_i_glide_rotatable_bonds>
4

> <r_i_docking_score>
-11.231154483643

> <r_i_glide_ligand_efficiency>
-0.374371816121433

> <r_i_glide_ligand_efficiency_sa>
-1.16326027504667

> <r_i_glide_ligand_efficiency_ln>
-2.55184067191311

> <r_i_glide_gscore>
-11.231154483643

> <r_i_glide_lipo>
-6.64370910777204

> <r_i_glide_hbond>
-0.32

> <r_i_glide_metal>
0

> <r_i_glide_rewards>
-1.58017549981707

> <r_i_glide_evdw>
-43.3153610229492

> <r_i_glide_ecoul>
-5.06347370147705

> <r_i_glide_erotb>
0.238019230315134

> <r_i_glide_esite>
0

> <r_i_glide_emodel>
-51.2776590215805

> <r_i_glide_energy>
-48.3788347244263

> <r_i_glide_einternal>
5.00597620010376

> <i_i_glide_confnum>
19

> <i_i_glide_posenum>
222

> <r_i_glide_eff_state_penalty>
0

> <s_user_duplicate_titles>
CHEMBL2061_lig77 

> <i_f3d_flags>
0

> <s_m_subgroup_title>
dock_pv

> <s_m_subgroupid>
dock_pv

> <b_m_subgroup_collapsed>
1

$$$$
CHEMBL2061_lig269
                    3D
 Schrodinger Suite 2021-1.
 56 59  0  0  1  0            999 V2000
   61.3067   46.3263   29.2854 C   0  0  0  0  0  0
   62.9376   46.4077   32.8336 C   0  0  0  0  0  0
   64.0679   45.5680   32.6498 C   0  0  0  0  0  0
   62.2981   46.0600   30.4666 C   0  0  0  0  0  0
   62.1437   46.7013   31.7066 C   0  0  0  0  0  0
   62.5406   46.9605   34.2279 C   0  0  0  0  0  0
   65.0513   45.2099   33.7843 C   0  0  0  0  0  0
   55.6085   45.0508   30.2603 C   0  0  0  0  0  0
   61.8735   45.5070   27.7392 S   0  0  0  0  0  0
   61.4321   48.0770   28.8468 S   0  0  0  0  0  0
   64.2600   44.9804   31.3947 C   0  0  0  0  0  0
   59.7944   46.0109   29.5545 C   0  0  0  0  0  0
   57.0582   45.3582   29.9925 C   0  0  0  0  0  0
   63.3844   45.1859   30.3456 C   0  0  0  0  0  0
   63.3329   46.2582   35.3604 C   0  0  0  0  0  0
   64.8089   46.0885   35.0340 C   0  0  0  0  0  0
   55.0662   45.2772   31.3390 O   0  0  0  0  0  0
   58.8496   46.0773   28.5173 C   0  0  0  0  0  0
   59.3020   45.6770   30.8224 C   0  0  0  0  0  0
   57.9736   45.3285   31.0416 C   0  0  0  0  0  0
   57.5039   45.7614   28.7295 C   0  0  0  0  0  0
   54.9494   44.4770   29.2233 O   0  0  0  0  0  0
   62.8264   48.4727   34.2880 C   0  0  0  0  0  0
   61.0598   46.6456   34.5223 C   0  0  0  0  0  0
   64.8450   43.7208   34.1455 C   0  0  0  0  0  0
   66.4973   45.5112   33.3391 C   0  0  0  0  0  0
   63.1710   46.6998   27.3577 C   0  0  0  0  0  0
   62.4365   48.0193   27.3468 C   0  0  0  0  0  0
   61.3270   47.3986   31.8185 H   0  0  0  0  0  0
   65.0837   44.3024   31.2317 H   0  0  0  0  0  0
   63.5944   44.6376   29.4420 H   0  0  0  0  0  0
   62.9139   45.2771   35.5819 H   0  0  0  0  0  0
   63.2379   46.8231   36.2879 H   0  0  0  0  0  0
   65.3301   45.6758   35.8987 H   0  0  0  0  0  0
   65.2355   47.0815   34.8918 H   0  0  0  0  0  0
   59.1625   46.3724   27.5263 H   0  0  0  0  0  0
   59.9353   45.6770   31.6884 H   0  0  0  0  0  0
   57.6623   45.0718   32.0450 H   0  0  0  0  0  0
   56.8195   45.8448   27.8971 H   0  0  0  0  0  0
   55.5469   44.1973   28.5249 H   0  0  0  0  0  0
   62.5578   48.8767   35.2628 H   0  0  0  0  0  0
   63.8810   48.6988   34.1391 H   0  0  0  0  0  0
   62.2631   49.0249   33.5352 H   0  0  0  0  0  0
   60.8066   46.9063   35.5506 H   0  0  0  0  0  0
   60.4007   47.2172   33.8791 H   0  0  0  0  0  0
   60.8179   45.5935   34.3747 H   0  0  0  0  0  0
   65.5255   43.4217   34.9389 H   0  0  0  0  0  0
   63.8288   43.5046   34.4749 H   0  0  0  0  0  0
   65.0534   43.0635   33.3007 H   0  0  0  0  0  0
   67.2083   45.3363   34.1484 H   0  0  0  0  0  0
   66.8079   44.8764   32.5111 H   0  0  0  0  0  0
   66.6181   46.5467   33.0155 H   0  0  0  0  0  0
   63.9581   46.6703   28.1114 H   0  0  0  0  0  0
   63.6079   46.4775   26.3880 H   0  0  0  0  0  0
   63.1204   48.8683   27.3226 H   0  0  0  0  0  0
   61.7670   48.0773   26.4883 H   0  0  0  0  0  0
  1  4  1  0  0  0
  1  9  1  0  0  0
  1 10  1  0  0  0
  1 12  1  0  0  0
  2  5  1  0  0  0
  2  6  1  0  0  0
  2  3  2  0  0  0
  3 11  1  0  0  0
  3  7  1  0  0  0
  4  5  2  0  0  0
  4 14  1  0  0  0
  5 29  1  0  0  0
  6 15  1  0  0  0
  6 23  1  0  0  0
  6 24  1  0  0  0
  7 16  1  0  0  0
  7 25  1  0  0  0
  7 26  1  0  0  0
  8 13  1  0  0  0
  8 17  2  0  0  0
  8 22  1  0  0  0
  9 27  1  0  0  0
 10 28  1  0  0  0
 11 14  2  0  0  0
 11 30  1  0  0  0
 12 18  2  0  0  0
 12 19  1  0  0  0
 13 20  1  0  0  0
 13 21  2  0  0  0
 14 31  1  0  0  0
 15 16  1  0  0  0
 15 32  1  0  0  0
 15 33  1  0  0  0
 16 34  1  0  0  0
 16 35  1  0  0  0
 18 21  1  0  0  0
 18 36  1  0  0  0
 19 20  2  0  0  0
 19 37  1  0  0  0
 20 38  1  0  0  0
 21 39  1  0  0  0
 22 40  1  0  0  0
 23 41  1  0  0  0
 23 42  1  0  0  0
 23 43  1  0  0  0
 24 44  1  0  0  0
 24 45  1  0  0  0
 24 46  1  0  0  0
 25 47  1  0  0  0
 25 48  1  0  0  0
 25 49  1  0  0  0
 26 50  1  0  0  0
 26 51  1  0  0  0
 26 52  1  0  0  0
 27 28  1  0  0  0
 27 53  1  0  0  0
 27 54  1  0  0  0
 28 55  1  0  0  0
 28 56  1  0  0  0
M  END
> <s_m_entry_id>
30864

> <s_m_entry_name>
dock_pv.77

> <s_m_Source_Path>
/home/csk/Desktop/cluster/DUD-E-result/rxra

> <s_m_Source_File>
dock_pv.maegz

> <i_m_Source_File_Index>
77

> <chembl_id>
CHEMBL323626

> <chembl_pref_name>
None

> <i_lp_mmshare_version>
53161

> <r_lp_tautomer_probability>
1

> <s_lp_Force_Field>
OPLS_2005

> <r_lp_Energy>
37.761369

> <b_lp_Chiralities_Consistent>
1

> <s_lp_Variant>
CHEMBL2061_lig269-1

> <s_i_glide_gridfile>
glide-grid_1mv9

> <i_i_glide_lignum>
312

> <i_i_glide_rotatable_bonds>
4

> <r_i_docking_score>
-11.231048339998

> <r_i_glide_ligand_efficiency>
-0.401108869285643

> <r_i_glide_ligand_efficiency_sa>
-1.21800276764142

> <r_i_glide_ligand_efficiency_ln>
-2.59245571477968

> <r_i_glide_gscore>
-11.231048339998

> <r_i_glide_lipo>
-6.81739824142603

> <r_i_glide_hbond>
0

> <r_i_glide_metal>
0

> <r_i_glide_rewards>
-1.89327791101612

> <r_i_glide_evdw>
-49.5546073913574

> <r_i_glide_ecoul>
-2.60097670555115

> <r_i_glide_erotb>
0.347504687844687

> <r_i_glide_esite>
0

> <r_i_glide_emodel>
-78.2543212998958

> <r_i_glide_energy>
-52.1555840969086

> <r_i_glide_einternal>
6.98584890365601

> <i_i_glide_confnum>
176

> <i_i_glide_posenum>
73

> <r_i_glide_eff_state_penalty>
0

> <s_user_duplicate_titles>
CHEMBL2061_lig269,187006

> <i_f3d_flags>
0

> <s_m_subgroup_title>
dock_pv

> <s_m_subgroupid>
dock_pv

> <b_m_subgroup_collapsed>
1

$$$$
CHEMBL2061_lig397
                    3D
 Schrodinger Suite 2021-1.
 60 63  0  0  1  0            999 V2000
   60.6881   46.7408   29.6451 C   0  0  0  0  0  0
   60.0244   46.7920   28.4347 C   0  0  0  0  0  0
   63.2706   46.6019   33.3514 C   0  0  0  0  0  0
   58.4633   46.0770   28.5391 S   0  0  0  0  0  0
   64.2501   45.6075   33.0697 C   0  0  0  0  0  0
   59.9183   46.0754   30.6160 C   0  0  0  0  0  0
   62.0293   47.4444   29.8400 C   0  0  1  0  0  0
   62.6000   47.1838   32.2694 C   0  0  0  0  0  0
   58.6433   45.6778   30.2146 C   0  0  0  0  0  0
   62.8473   46.8108   30.9505 C   0  0  0  0  0  0
   62.9711   47.1132   34.7833 C   0  0  0  0  0  0
   65.0283   44.8679   34.1713 C   0  0  0  0  0  0
   64.4698   45.2330   31.7354 C   0  0  0  0  0  0
   55.1529   45.3037   29.9349 C   0  0  0  0  0  0
   63.7849   45.8189   30.6881 C   0  0  0  0  0  0
   63.5325   46.1351   35.8339 C   0  0  0  0  0  0
   64.9204   45.6318   35.5042 C   0  0  0  0  0  0
   54.0854   45.2399   30.5385 O   0  0  0  0  0  0
   57.5215   45.0793   31.0505 C   0  0  0  0  0  0
   56.3689   44.4178   30.2459 C   0  0  0  0  0  0
   60.6383   47.2833   27.1429 C   0  0  0  0  0  0
   55.3745   46.1352   28.8846 O   0  0  0  0  0  0
   62.7500   47.5716   28.4694 C   0  0  0  0  0  0
   63.6622   48.4851   34.9480 C   0  0  0  0  0  0
   61.4496   47.1856   35.0591 C   0  0  0  0  0  0
   64.3879   43.4632   34.3284 C   0  0  0  0  0  0
   66.5419   44.8509   33.8256 C   0  0  0  0  0  0
   61.8426   48.1876   27.4137 C   0  0  0  0  0  0
   60.2518   45.9584   31.6357 H   0  0  0  0  0  0
   61.8281   48.4689   30.1710 H   0  0  0  0  0  0
   61.8698   47.9560   32.4567 H   0  0  0  0  0  0
   65.1721   44.4508   31.4951 H   0  0  0  0  0  0
   63.9835   45.4726   29.6865 H   0  0  0  0  0  0
   62.8722   45.2763   35.9694 H   0  0  0  0  0  0
   63.6080   46.6366   36.7988 H   0  0  0  0  0  0
   65.2150   45.0006   36.3293 H   0  0  0  0  0  0
   65.6037   46.4738   35.5065 H   0  0  0  0  0  0
   57.1218   45.8665   31.6910 H   0  0  0  0  0  0
   57.9577   44.3462   31.7308 H   0  0  0  0  0  0
   55.9654   43.6522   30.9015 H   0  0  0  0  0  0
   56.7202   43.8547   29.3811 H   0  0  0  0  0  0
   60.9359   46.3972   26.5982 H   0  0  0  0  0  0
   59.9562   47.8452   26.5394 H   0  0  0  0  0  0
   54.6062   46.6678   28.6877 H   0  0  0  0  0  0
   63.1050   46.6082   28.1026 H   0  0  0  0  0  0
   63.6081   48.2207   28.5386 H   0  0  0  0  0  0
   63.6038   48.8562   35.9724 H   0  0  0  0  0  0
   64.7136   48.4283   34.6701 H   0  0  0  0  0  0
   63.2080   49.2441   34.3080 H   0  0  0  0  0  0
   61.2370   47.3383   36.1198 H   0  0  0  0  0  0
   60.9966   48.0269   34.5463 H   0  0  0  0  0  0
   60.9316   46.2766   34.7457 H   0  0  0  0  0  0
   64.4654   43.0670   35.3373 H   0  0  0  0  0  0
   63.3240   43.4735   34.1144 H   0  0  0  0  0  0
   64.8359   42.7404   33.6467 H   0  0  0  0  0  0
   67.1428   44.4776   34.6495 H   0  0  0  0  0  0
   66.7647   44.2186   32.9715 H   0  0  0  0  0  0
   66.9124   45.8499   33.5910 H   0  0  0  0  0  0
   62.4067   48.3637   26.4967 H   0  0  0  0  0  0
   61.5019   49.1727   27.7389 H   0  0  0  0  0  0
  1  2  2  0  0  0
  1  6  1  0  0  0
  1  7  1  0  0  0
  2  4  1  0  0  0
  2 21  1  0  0  0
  3  8  2  0  0  0
  3 11  1  0  0  0
  3  5  1  0  0  0
  4  9  1  0  0  0
  5 13  2  0  0  0
  5 12  1  0  0  0
  6  9  2  0  0  0
  6 29  1  0  0  0
  7 10  1  0  0  0
  7 23  1  0  0  0
  7 30  1  0  0  0
  8 10  1  0  0  0
  8 31  1  0  0  0
  9 19  1  0  0  0
 10 15  2  0  0  0
 11 16  1  0  0  0
 11 24  1  0  0  0
 11 25  1  0  0  0
 12 17  1  0  0  0
 12 26  1  0  0  0
 12 27  1  0  0  0
 13 15  1  0  0  0
 13 32  1  0  0  0
 14 20  1  0  0  0
 14 18  2  0  0  0
 14 22  1  0  0  0
 15 33  1  0  0  0
 16 17  1  0  0  0
 16 34  1  0  0  0
 16 35  1  0  0  0
 17 36  1  0  0  0
 17 37  1  0  0  0
 19 20  1  0  0  0
 19 38  1  0  0  0
 19 39  1  0  0  0
 20 40  1  0  0  0
 20 41  1  0  0  0
 21 28  1  0  0  0
 21 42  1  0  0  0
 21 43  1  0  0  0
 22 44  1  0  0  0
 23 28  1  0  0  0
 23 45  1  0  0  0
 23 46  1  0  0  0
 24 47  1  0  0  0
 24 48  1  0  0  0
 24 49  1  0  0  0
 25 50  1  0  0  0
 25 51  1  0  0  0
 25 52  1  0  0  0
 26 53  1  0  0  0
 26 54  1  0  0  0
 26 55  1  0  0  0
 27 56  1  0  0  0
 27 57  1  0  0  0
 27 58  1  0  0  0
 28 59  1  0  0  0
 28 60  1  0  0  0
M  END
> <s_m_entry_id>
30865

> <s_m_entry_name>
dock_pv.78

> <s_m_Source_Path>
/home/csk/Desktop/cluster/DUD-E-result/rxra

> <s_m_Source_File>
dock_pv.maegz

> <i_m_Source_File_Index>
78

> <chembl_id>
CHEMBL60090

> <chembl_pref_name>
None

> <i_lp_mmshare_version>
53161

> <r_lp_tautomer_probability>
1

> <s_lp_Force_Field>
OPLS_2005

> <r_lp_Energy>
19.660606

> <b_lp_Chiralities_Consistent>
1

> <s_lp_Variant>
CHEMBL2061_lig397-2

> <s_i_glide_gridfile>
glide-grid_1mv9

> <i_i_glide_lignum>
464

> <i_i_glide_rotatable_bonds>
5

> <r_i_docking_score>
-11.2284266795147

> <r_i_glide_ligand_efficiency>
-0.401015238554095

> <r_i_glide_ligand_efficiency_sa>
-1.21771844959489

> <r_i_glide_ligand_efficiency_ln>
-2.59185055856482

> <r_i_glide_gscore>
-11.2284266795147

> <r_i_glide_lipo>
-7.1008655955658

> <r_i_glide_hbond>
-0.267920936710925

> <r_i_glide_metal>
0

> <r_i_glide_rewards>
-1.90395108655986

> <r_i_glide_evdw>
-43.0445137023926

> <r_i_glide_ecoul>
-2.00718927383423

> <r_i_glide_erotb>
0.497615015516699

> <r_i_glide_esite>
0

> <r_i_glide_emodel>
-54.6685697732389

> <r_i_glide_energy>
-45.0517029762268

> <r_i_glide_einternal>
6.52967691421509

> <i_i_glide_confnum>
133

> <i_i_glide_posenum>
96

> <r_i_glide_eff_state_penalty>
0

> <s_user_duplicate_titles>
CHEMBL2061_lig397

> <i_f3d_flags>
0

> <s_m_subgroup_title>
dock_pv

> <s_m_subgroupid>
dock_pv

> <b_m_subgroup_collapsed>
1

$$$$
CHEMBL2061_lig432
                    3D
 Schrodinger Suite 2021-1.
 54 56  0  0  1  0            999 V2000
   64.4761   46.2318   34.8248 C   0  0  0  0  0  0
   65.7110   45.9014   33.8928 C   0  0  0  0  0  0
   65.3317   44.8946   32.9327 O   0  0  0  0  0  0
   63.3326   46.3582   34.0916 N   0  0  0  0  0  0
   64.5257   46.3185   36.0562 O   0  0  0  0  0  0
   63.2570   46.0770   32.7091 C   0  0  0  0  0  0
   64.2455   45.2432   32.1677 C   0  0  0  0  0  0
   64.1466   44.7077   30.8939 C   0  0  0  0  0  0
   63.0302   45.0128   30.1220 C   0  0  0  0  0  0
   62.0896   45.9478   30.6017 C   0  0  0  0  0  0
   62.2045   46.4770   31.8870 C   0  0  0  0  0  0
   60.9176   46.2923   29.7988 C   0  0  0  0  0  0
   59.7011   45.6769   30.0729 C   0  0  0  0  0  0
   58.6140   45.7957   29.2370 C   0  0  0  0  0  0
   58.8081   46.4770   28.0482 C   0  0  0  0  0  0
   59.9746   47.2169   27.8071 C   0  0  0  0  0  0
   61.0225   47.1757   28.7280 C   0  0  0  0  0  0
   62.0860   48.0545   28.7023 O   0  0  0  0  0  0
   63.0176   47.9839   27.6375 C   0  0  0  0  0  0
   63.8298   49.0307   27.7389 F   0  0  0  0  0  0
   63.7641   46.8849   27.6982 F   0  0  0  0  0  0
   62.4162   48.0770   26.4673 F   0  0  0  0  0  0
   62.8078   44.2351   28.8268 C   0  0  0  0  0  0
   57.3166   45.2637   29.6823 C   0  0  0  0  0  0
   56.1448   45.9090   29.4946 C   0  0  0  0  0  0
   54.8643   45.4967   30.0153 C   0  0  0  0  0  0
   54.9167   44.4769   30.9166 O   0  0  0  0  0  0
   53.8207   46.0770   29.7389 O   0  0  0  0  0  0
   62.0909   46.7279   34.8033 C   0  0  0  0  0  0
   61.9695   48.2339   35.0702 C   0  0  0  0  0  0
   66.8168   45.2570   34.7073 C   0  0  0  0  0  0
   66.1514   47.2157   33.1985 C   0  0  0  0  0  0
   64.8970   44.0142   30.5432 H   0  0  0  0  0  0
   61.4392   47.1473   32.2499 H   0  0  0  0  0  0
   59.5708   45.0862   30.9390 H   0  0  0  0  0  0
   58.0079   46.4771   27.3413 H   0  0  0  0  0  0
   60.0342   47.8534   26.9388 H   0  0  0  0  0  0
   63.6863   43.6590   28.5391 H   0  0  0  0  0  0
   61.9755   43.5417   28.9520 H   0  0  0  0  0  0
   62.5495   44.8829   27.9923 H   0  0  0  0  0  0
   57.3642   44.3145   30.1981 H   0  0  0  0  0  0
   56.1137   46.8354   28.9390 H   0  0  0  0  0  0
   55.8121   44.1751   31.0708 H   0  0  0  0  0  0
   61.2143   46.3908   34.2501 H   0  0  0  0  0  0
   62.0295   46.1795   35.7451 H   0  0  0  0  0  0
   61.0245   48.4624   35.5633 H   0  0  0  0  0  0
   62.7693   48.5839   35.7246 H   0  0  0  0  0  0
   62.0081   48.8061   34.1420 H   0  0  0  0  0  0
   67.2968   45.9993   35.3390 H   0  0  0  0  0  0
   66.4080   44.4553   35.3243 H   0  0  0  0  0  0
   67.5992   44.8544   34.0659 H   0  0  0  0  0  0
   66.0148   48.0771   33.8452 H   0  0  0  0  0  0
   67.2080   47.1782   32.9381 H   0  0  0  0  0  0
   65.6081   47.4043   32.2752 H   0  0  0  0  0  0
  1  2  1  0  0  0
  1  4  1  0  0  0
  1  5  2  0  0  0
  2  3  1  0  0  0
  2 31  1  0  0  0
  2 32  1  0  0  0
  3  7  1  0  0  0
  4  6  1  0  0  0
  4 29  1  0  0  0
  6  7  2  0  0  0
  6 11  1  0  0  0
  7  8  1  0  0  0
  8  9  2  0  0  0
  8 33  1  0  0  0
  9 23  1  0  0  0
  9 10  1  0  0  0
 10 11  2  0  0  0
 10 12  1  0  0  0
 11 34  1  0  0  0
 12 13  2  0  0  0
 12 17  1  0  0  0
 13 14  1  0  0  0
 13 35  1  0  0  0
 14 24  1  0  0  0
 14 15  2  0  0  0
 15 16  1  0  0  0
 15 36  1  0  0  0
 16 17  2  0  0  0
 16 37  1  0  0  0
 17 18  1  0  0  0
 18 19  1  0  0  0
 19 20  1  0  0  0
 19 21  1  0  0  0
 19 22  1  0  0  0
 23 38  1  0  0  0
 23 39  1  0  0  0
 23 40  1  0  0  0
 24 25  2  0  0  0
 24 41  1  0  0  0
 25 26  1  0  0  0
 25 42  1  0  0  0
 26 27  1  0  0  0
 26 28  2  0  0  0
 27 43  1  0  0  0
 29 30  1  0  0  0
 29 44  1  0  0  0
 29 45  1  0  0  0
 30 46  1  0  0  0
 30 47  1  0  0  0
 30 48  1  0  0  0
 31 49  1  0  0  0
 31 50  1  0  0  0
 31 51  1  0  0  0
 32 52  1  0  0  0
 32 53  1  0  0  0
 32 54  1  0  0  0
M  END
> <s_m_entry_id>
30866

> <s_m_entry_name>
dock_pv.79

> <s_m_Source_Path>
/home/csk/Desktop/cluster/DUD-E-result/rxra

> <s_m_Source_File>
dock_pv.maegz

> <i_m_Source_File_Index>
79

> <chembl_id>
CHEMBL247856

> <chembl_pref_name>
None

> <i_lp_mmshare_version>
53161

> <r_lp_tautomer_probability>
1

> <s_lp_Force_Field>
OPLS_2005

> <r_lp_Energy>
37.382677

> <b_lp_Chiralities_Consistent>
1

> <s_lp_Variant>
CHEMBL2061_lig432-1

> <s_i_glide_gridfile>
glide-grid_1mv9

> <i_i_glide_lignum>
503

> <i_i_glide_rotatable_bonds>
7

> <r_i_docking_score>
-11.2183363361161

> <r_i_glide_ligand_efficiency>
-0.350573010503629

> <r_i_glide_ligand_efficiency_sa>
-1.11299993004445

> <r_i_glide_ligand_efficiency_ln>
-2.51209130595541

> <r_i_glide_gscore>
-11.2183363361161

> <r_i_glide_lipo>
-5.74663912039091

> <r_i_glide_hbond>
-0.177405150274133

> <r_i_glide_metal>
0

> <r_i_glide_rewards>
-2.89245857945462

> <r_i_glide_evdw>
-42.0024909973145

> <r_i_glide_ecoul>
-4.65732383728027

> <r_i_glide_erotb>
0.396889639461294

> <r_i_glide_esite>
0

> <r_i_glide_emodel>
-53.9221957071187

> <r_i_glide_energy>
-46.6598148345947

> <r_i_glide_einternal>
9.25969982147217

> <i_i_glide_confnum>
18

> <i_i_glide_posenum>
3

> <r_i_glide_eff_state_penalty>
0

> <s_user_duplicate_titles>
CHEMBL2061_lig432,414792

> <i_f3d_flags>
0

> <s_m_subgroup_title>
dock_pv

> <s_m_subgroupid>
dock_pv

> <b_m_subgroup_collapsed>
1

$$$$
CHEMBL2061_lig95 
                    3D
 Schrodinger Suite 2021-1.
 58 60  0  0  1  0            999 V2000
   64.7698   43.7108   33.4023 C   0  0  0  0  0  0
   64.8931   45.2023   32.9920 C   0  0  0  0  0  0
   66.2617   45.5254   32.3427 C   0  0  0  0  0  0
   62.5544   48.3111   33.8602 C   0  0  0  0  0  0
   62.3621   46.7823   33.8431 C   0  0  0  0  0  0
   60.9576   46.3477   34.3454 C   0  0  0  0  0  0
   63.7704   44.9888   30.7185 C   0  0  0  0  0  0
   62.7164   45.1167   29.8160 C   0  0  0  0  0  0
   61.5954   45.8970   30.1592 C   0  0  0  0  0  0
   61.5812   46.4766   31.4311 C   0  0  0  0  0  0
   63.7381   45.5313   32.0120 C   0  0  0  0  0  0
   62.5834   46.2633   32.3965 C   0  0  0  0  0  0
   63.3881   46.1637   34.8345 C   0  0  0  0  0  0
   64.8079   46.0850   34.2649 C   0  0  0  0  0  0
   60.4957   46.0884   29.2761 N   0  0  0  0  0  0
   59.0965   45.9024   29.5272 C   0  0  0  0  0  0
   60.8975   46.7011   27.9921 C   0  0  0  0  0  0
   58.6072   45.4957   30.7759 C   0  0  0  0  0  0
   57.2522   45.2767   31.0109 C   0  0  0  0  0  0
   56.3110   45.4828   30.0034 C   0  0  0  0  0  0
   56.7711   45.8728   28.7491 C   0  0  0  0  0  0
   58.1306   46.0771   28.5254 C   0  0  0  0  0  0
   54.8474   45.2751   30.2640 C   0  0  0  0  0  0
   54.4088   44.3515   30.9390 O   0  0  0  0  0  0
   54.0547   46.2336   29.7144 O   0  0  0  0  0  0
   60.6491   48.2104   27.9442 C   0  0  0  0  0  0
   55.8995   46.0769   27.7390 F   0  0  0  0  0  0
   62.7875   44.2855   28.5390 C   0  0  0  0  0  0
   65.5686   43.4168   34.0839 H   0  0  0  0  0  0
   63.8226   43.4870   33.8927 H   0  0  0  0  0  0
   64.8248   43.0492   32.5378 H   0  0  0  0  0  0
   67.0730   45.3995   33.0613 H   0  0  0  0  0  0
   66.4898   44.8784   31.4967 H   0  0  0  0  0  0
   66.3014   46.5533   31.9811 H   0  0  0  0  0  0
   62.2302   48.7352   34.8089 H   0  0  0  0  0  0
   63.6019   48.5664   33.7391 H   0  0  0  0  0  0
   62.0085   48.8159   33.0643 H   0  0  0  0  0  0
   60.8320   46.5561   35.4084 H   0  0  0  0  0  0
   60.1547   46.8764   33.8349 H   0  0  0  0  0  0
   60.7833   45.2790   34.1956 H   0  0  0  0  0  0
   64.6098   44.3737   30.4321 H   0  0  0  0  0  0
   60.7354   47.0859   31.7003 H   0  0  0  0  0  0
   63.4021   46.7312   35.7669 H   0  0  0  0  0  0
   63.0873   45.1625   35.1337 H   0  0  0  0  0  0
   65.1656   47.0934   34.0538 H   0  0  0  0  0  0
   65.4866   45.7069   35.0319 H   0  0  0  0  0  0
   61.9583   46.5784   27.7871 H   0  0  0  0  0  0
   60.4030   46.2085   27.1555 H   0  0  0  0  0  0
   59.2537   45.3609   31.6174 H   0  0  0  0  0  0
   56.9494   45.0115   32.0073 H   0  0  0  0  0  0
   58.4090   46.3857   27.5343 H   0  0  0  0  0  0
   54.6018   46.7788   29.1420 H   0  0  0  0  0  0
   60.8037   48.5948   26.9394 H   0  0  0  0  0  0
   59.6383   48.4772   28.2529 H   0  0  0  0  0  0
   61.3594   48.7221   28.5926 H   0  0  0  0  0  0
   63.3955   43.3904   28.6767 H   0  0  0  0  0  0
   61.8004   43.9306   28.2457 H   0  0  0  0  0  0
   63.2085   44.8692   27.7250 H   0  0  0  0  0  0
  1  2  1  0  0  0
  1 29  1  0  0  0
  1 30  1  0  0  0
  1 31  1  0  0  0
  2  3  1  0  0  0
  2 11  1  0  0  0
  2 14  1  0  0  0
  3 32  1  0  0  0
  3 33  1  0  0  0
  3 34  1  0  0  0
  4  5  1  0  0  0
  4 35  1  0  0  0
  4 36  1  0  0  0
  4 37  1  0  0  0
  5  6  1  0  0  0
  5 12  1  0  0  0
  5 13  1  0  0  0
  6 38  1  0  0  0
  6 39  1  0  0  0
  6 40  1  0  0  0
  7 11  1  0  0  0
  7  8  2  0  0  0
  7 41  1  0  0  0
  8  9  1  0  0  0
  8 28  1  0  0  0
  9 10  2  0  0  0
  9 15  1  0  0  0
 10 12  1  0  0  0
 10 42  1  0  0  0
 11 12  2  0  0  0
 13 14  1  0  0  0
 13 43  1  0  0  0
 13 44  1  0  0  0
 14 45  1  0  0  0
 14 46  1  0  0  0
 15 16  1  0  0  0
 15 17  1  0  0  0
 16 18  2  0  0  0
 16 22  1  0  0  0
 17 26  1  0  0  0
 17 47  1  0  0  0
 17 48  1  0  0  0
 18 19  1  0  0  0
 18 49  1  0  0  0
 19 20  2  0  0  0
 19 50  1  0  0  0
 20 21  1  0  0  0
 20 23  1  0  0  0
 21 22  2  0  0  0
 21 27  1  0  0  0
 22 51  1  0  0  0
 23 24  2  0  0  0
 23 25  1  0  0  0
 25 52  1  0  0  0
 26 53  1  0  0  0
 26 54  1  0  0  0
 26 55  1  0  0  0
 28 56  1  0  0  0
 28 57  1  0  0  0
 28 58  1  0  0  0
M  END
> <s_m_entry_id>
30867

> <s_m_entry_name>
dock_pv.80

> <s_m_Source_Path>
/home/csk/Desktop/cluster/DUD-E-result/rxra

> <s_m_Source_File>
dock_pv.maegz

> <i_m_Source_File_Index>
80

> <chembl_id>
CHEMBL4476213

> <chembl_pref_name>
None

> <i_lp_mmshare_version>
53161

> <r_lp_tautomer_probability>
1

> <s_lp_Force_Field>
OPLS_2005

> <r_lp_Energy>
31.872597

> <b_lp_Chiralities_Consistent>
1

> <s_lp_Variant>
CHEMBL2061_lig95 -1

> <s_i_glide_gridfile>
glide-grid_1mv9

> <i_i_glide_lignum>
134

> <i_i_glide_rotatable_bonds>
5

> <r_i_docking_score>
-11.2139081531177

> <r_i_glide_ligand_efficiency>
-0.400496719754202

> <r_i_glide_ligand_efficiency_sa>
-1.21614392112717

> <r_i_glide_ligand_efficiency_ln>
-2.58849925638994

> <r_i_glide_gscore>
-11.2139081531177

> <r_i_glide_lipo>
-6.37155728737882

> <r_i_glide_hbond>
-0.32

> <r_i_glide_metal>
0

> <r_i_glide_rewards>
-2.20927554262054

> <r_i_glide_evdw>
-42.5699844360352

> <r_i_glide_ecoul>
-3.87313795089722

> <r_i_glide_erotb>
0.396394591318045

> <r_i_glide_esite>
0

> <r_i_glide_emodel>
-72.0695048740968

> <r_i_glide_energy>
-46.4431223869324

> <r_i_glide_einternal>
5.12802648544312

> <i_i_glide_confnum>
22

> <i_i_glide_posenum>
370

> <r_i_glide_eff_state_penalty>
0

> <s_user_duplicate_titles>
CHEMBL2061_lig95 

> <i_f3d_flags>
0

> <s_m_subgroup_title>
dock_pv

> <s_m_subgroupid>
dock_pv

> <b_m_subgroup_collapsed>
1

$$$$
CHEMBL2061_lig292
                    3D
 Schrodinger Suite 2021-1.
 60 62  0  0  1  0            999 V2000
   62.0902   46.1562   30.4018 C   0  0  0  0  0  0
   62.9933   46.3781   32.6864 C   0  0  0  0  0  0
   63.9265   45.3369   32.4099 C   0  0  0  0  0  0
   61.0823   46.6256   29.4046 C   0  0  0  0  0  0
   62.1358   46.7841   31.6497 C   0  0  0  0  0  0
   63.9371   44.7842   31.1156 C   0  0  0  0  0  0
   63.0039   45.1310   30.1389 C   0  0  0  0  0  0
   62.7790   46.9599   34.1126 C   0  0  0  0  0  0
   64.9047   44.7899   33.4826 C   0  0  0  0  0  0
   55.5104   45.0273   30.2989 C   0  0  0  0  0  0
   61.5063   47.4731   28.4165 C   0  0  0  0  0  0
   59.6600   46.1200   29.5920 C   0  0  0  0  0  0
   56.9635   45.3065   30.0257 C   0  0  0  0  0  0
   64.4156   45.1469   34.9121 C   0  0  0  0  0  0
   63.9638   46.5970   35.0488 C   0  0  0  0  0  0
   54.9765   45.2796   31.3717 O   0  0  0  0  0  0
   58.7233   46.0770   28.5458 C   0  0  0  0  0  0
   59.2064   45.6771   30.8438 C   0  0  0  0  0  0
   57.8924   45.2772   31.0656 C   0  0  0  0  0  0
   57.3967   45.6992   28.7587 C   0  0  0  0  0  0
   54.8246   44.4773   29.2673 O   0  0  0  0  0  0
   62.9650   44.3533   28.8290 C   0  0  0  0  0  0
   62.7187   48.5023   34.1260 C   0  0  0  0  0  0
   64.9518   43.2398   33.4646 C   0  0  0  0  0  0
   66.2940   45.4230   33.2288 C   0  0  0  0  0  0
   61.4562   46.3639   34.6541 C   0  0  0  0  0  0
   62.9706   47.8177   28.1388 C   0  0  0  0  0  0
   60.5917   48.2541   27.4896 C   0  0  0  0  0  0
   61.4104   47.5605   31.8417 H   0  0  0  0  0  0
   64.6494   44.0129   30.8675 H   0  0  0  0  0  0
   63.5807   44.5096   35.2045 H   0  0  0  0  0  0
   65.2004   44.9390   35.6434 H   0  0  0  0  0  0
   63.7062   46.8039   36.0897 H   0  0  0  0  0  0
   64.8260   47.2339   34.8441 H   0  0  0  0  0  0
   59.0037   46.3237   27.5363 H   0  0  0  0  0  0
   59.8589   45.6771   31.7005 H   0  0  0  0  0  0
   57.6070   44.9943   32.0677 H   0  0  0  0  0  0
   56.7141   45.7432   27.9224 H   0  0  0  0  0  0
   55.4070   44.1805   28.5635 H   0  0  0  0  0  0
   63.6377   43.4948   28.8304 H   0  0  0  0  0  0
   61.9618   43.9669   28.6623 H   0  0  0  0  0  0
   63.2091   44.9928   27.9865 H   0  0  0  0  0  0
   62.4450   48.8714   35.1143 H   0  0  0  0  0  0
   63.6866   48.9329   33.9083 H   0  0  0  0  0  0
   62.0086   48.9239   33.4173 H   0  0  0  0  0  0
   65.7226   42.8777   34.1385 H   0  0  0  0  0  0
   64.0018   42.7920   33.7576 H   0  0  0  0  0  0
   65.2065   42.8149   32.5036 H   0  0  0  0  0  0
   67.0109   45.1387   34.0000 H   0  0  0  0  0  0
   66.7065   45.0919   32.2751 H   0  0  0  0  0  0
   66.2563   46.5123   33.1971 H   0  0  0  0  0  0
   61.3749   46.4481   35.7370 H   0  0  0  0  0  0
   60.5919   46.8778   34.2325 H   0  0  0  0  0  0
   61.3330   45.3217   34.3776 H   0  0  0  0  0  0
   63.1537   48.8770   28.2930 H   0  0  0  0  0  0
   63.6837   47.2775   28.7569 H   0  0  0  0  0  0
   63.2138   47.5803   27.1027 H   0  0  0  0  0  0
   60.5074   47.7673   26.5187 H   0  0  0  0  0  0
   59.6084   48.3859   27.9275 H   0  0  0  0  0  0
   60.9772   49.2613   27.3397 H   0  0  0  0  0  0
  1  4  1  0  0  0
  1  5  2  0  0  0
  1  7  1  0  0  0
  2  5  1  0  0  0
  2  8  1  0  0  0
  2  3  2  0  0  0
  3  6  1  0  0  0
  3  9  1  0  0  0
  4 11  2  0  0  0
  4 12  1  0  0  0
  5 29  1  0  0  0
  6  7  2  0  0  0
  6 30  1  0  0  0
  7 22  1  0  0  0
  8 15  1  0  0  0
  8 23  1  0  0  0
  8 26  1  0  0  0
  9 14  1  0  0  0
  9 24  1  0  0  0
  9 25  1  0  0  0
 10 13  1  0  0  0
 10 16  2  0  0  0
 10 21  1  0  0  0
 11 27  1  0  0  0
 11 28  1  0  0  0
 12 17  1  0  0  0
 12 18  2  0  0  0
 13 19  2  0  0  0
 13 20  1  0  0  0
 14 15  1  0  0  0
 14 31  1  0  0  0
 14 32  1  0  0  0
 15 33  1  0  0  0
 15 34  1  0  0  0
 17 20  2  0  0  0
 17 35  1  0  0  0
 18 19  1  0  0  0
 18 36  1  0  0  0
 19 37  1  0  0  0
 20 38  1  0  0  0
 21 39  1  0  0  0
 22 40  1  0  0  0
 22 41  1  0  0  0
 22 42  1  0  0  0
 23 43  1  0  0  0
 23 44  1  0  0  0
 23 45  1  0  0  0
 24 46  1  0  0  0
 24 47  1  0  0  0
 24 48  1  0  0  0
 25 49  1  0  0  0
 25 50  1  0  0  0
 25 51  1  0  0  0
 26 52  1  0  0  0
 26 53  1  0  0  0
 26 54  1  0  0  0
 27 55  1  0  0  0
 27 56  1  0  0  0
 27 57  1  0  0  0
 28 58  1  0  0  0
 28 59  1  0  0  0
 28 60  1  0  0  0
M  END
> <s_m_entry_id>
30868

> <s_m_entry_name>
dock_pv.81

> <s_m_Source_Path>
/home/csk/Desktop/cluster/DUD-E-result/rxra

> <s_m_Source_File>
dock_pv.maegz

> <i_m_Source_File_Index>
81

> <chembl_id>
CHEMBL25244

> <chembl_pref_name>
None

> <i_lp_mmshare_version>
53161

> <r_lp_tautomer_probability>
1

> <s_lp_Force_Field>
OPLS_2005

> <r_lp_Energy>
36.674292

> <b_lp_Chiralities_Consistent>
1

> <s_lp_Variant>
CHEMBL2061_lig292-1

> <s_i_glide_gridfile>
glide-grid_1mv9

> <i_i_glide_lignum>
338

> <i_i_glide_rotatable_bonds>
4

> <r_i_docking_score>
-11.1951412056043

> <r_i_glide_ligand_efficiency>
-0.399826471628724

> <r_i_glide_ligand_efficiency_sa>
-1.21410865306319

> <r_i_glide_ligand_efficiency_ln>
-2.58416729388233

> <r_i_glide_gscore>
-11.1951412056043

> <r_i_glide_lipo>
-6.96514270495659

> <r_i_glide_hbond>
0

> <r_i_glide_metal>
0

> <r_i_glide_rewards>
-2.10898745394154

> <r_i_glide_evdw>
-42.0331802368164

> <r_i_glide_ecoul>
-2.85990238189697

> <r_i_glide_erotb>
0.40963332241923

> <r_i_glide_esite>
0

> <r_i_glide_emodel>
-58.815601005209

> <r_i_glide_energy>
-44.8930826187134

> <r_i_glide_einternal>
6.75280523300171

> <i_i_glide_confnum>
23

> <i_i_glide_posenum>
105

> <r_i_glide_eff_state_penalty>
0

> <s_user_duplicate_titles>
CHEMBL2061_lig292,32762

> <i_f3d_flags>
0

> <s_m_subgroup_title>
dock_pv

> <s_m_subgroupid>
dock_pv

> <b_m_subgroup_collapsed>
1

$$$$
CHEMBL2061_lig353
                    3D
 Schrodinger Suite 2021-1.
 60 62  0  0  1  0            999 V2000
   62.8647   46.5832   32.9048 C   0  0  0  0  0  0
   64.0355   45.9039   32.4708 C   0  0  0  0  0  0
   62.0501   46.6613   30.5742 C   0  0  0  0  0  0
   60.9448   47.0208   29.6322 C   0  0  0  0  0  0
   61.9234   46.9593   31.9324 C   0  0  0  0  0  0
   64.1830   45.6593   31.0967 C   0  0  0  0  0  0
   63.2319   46.0345   30.1498 C   0  0  0  0  0  0
   62.6192   46.9697   34.3879 C   0  0  0  0  0  0
   65.1079   45.3766   33.4568 C   0  0  0  0  0  0
   55.5245   45.0328   30.2730 C   0  0  0  0  0  0
   59.6194   46.3039   29.7133 C   0  0  0  0  0  0
   56.9736   45.3437   30.0261 C   0  0  0  0  0  0
   61.1821   47.9839   28.7162 C   0  0  0  0  0  0
   64.9918   46.0960   34.8240 C   0  0  0  0  0  0
   63.5558   46.1775   35.3369 C   0  0  0  0  0  0
   54.9643   45.2760   31.3389 O   0  0  0  0  0  0
   59.1982   45.6770   30.8936 C   0  0  0  0  0  0
   58.7028   46.3394   28.6505 C   0  0  0  0  0  0
   57.3988   45.8686   28.8032 C   0  0  0  0  0  0
   57.8951   45.2357   31.0661 C   0  0  0  0  0  0
   54.8775   44.4770   29.2199 O   0  0  0  0  0  0
   63.5136   45.7278   28.6793 C   0  0  0  0  0  0
   62.9239   48.4759   34.5405 C   0  0  0  0  0  0
   64.8787   43.8559   33.6522 C   0  0  0  0  0  0
   66.5371   45.6877   32.9445 C   0  0  0  0  0  0
   61.1696   46.6223   34.8188 C   0  0  0  0  0  0
   62.6280   44.6093   28.1113 C   0  0  0  0  0  0
   62.9702   43.2236   28.6665 C   0  0  0  0  0  0
   61.0466   47.5046   32.2431 H   0  0  0  0  0  0
   65.0597   45.1376   30.7470 H   0  0  0  0  0  0
   62.1389   48.4793   28.6726 H   0  0  0  0  0  0
   60.4429   48.3097   28.0007 H   0  0  0  0  0  0
   65.6083   45.5958   35.5714 H   0  0  0  0  0  0
   65.3917   47.1076   34.7479 H   0  0  0  0  0  0
   63.1883   45.1635   35.4958 H   0  0  0  0  0  0
   63.5645   46.6343   36.3276 H   0  0  0  0  0  0
   59.8267   45.6771   31.7655 H   0  0  0  0  0  0
   58.9727   46.7774   27.7027 H   0  0  0  0  0  0
   56.7158   45.9826   27.9738 H   0  0  0  0  0  0
   57.6071   44.8772   32.0423 H   0  0  0  0  0  0
   55.4852   44.1989   28.5280 H   0  0  0  0  0  0
   63.3849   46.6348   28.0918 H   0  0  0  0  0  0
   64.5638   45.4688   28.5393 H   0  0  0  0  0  0
   62.8079   48.8063   35.5734 H   0  0  0  0  0  0
   63.9381   48.7277   34.2297 H   0  0  0  0  0  0
   62.2498   49.0752   33.9277 H   0  0  0  0  0  0
   65.5830   43.4373   34.3709 H   0  0  0  0  0  0
   63.8730   43.6239   34.0011 H   0  0  0  0  0  0
   65.0173   43.3150   32.7178 H   0  0  0  0  0  0
   67.2832   45.4546   33.7063 H   0  0  0  0  0  0
   66.8044   45.1010   32.0658 H   0  0  0  0  0  0
   66.6512   46.7424   32.6870 H   0  0  0  0  0  0
   61.0389   46.7193   35.8963 H   0  0  0  0  0  0
   60.4291   47.2767   34.3656 H   0  0  0  0  0  0
   60.8949   45.6060   34.5448 H   0  0  0  0  0  0
   61.5769   44.8155   28.2974 H   0  0  0  0  0  0
   62.7174   44.6100   27.0260 H   0  0  0  0  0  0
   62.3584   42.4775   28.1759 H   0  0  0  0  0  0
   64.0080   42.9546   28.5005 H   0  0  0  0  0  0
   62.8057   43.1593   29.7390 H   0  0  0  0  0  0
  1  2  2  0  0  0
  1  5  1  0  0  0
  1  8  1  0  0  0
  2  6  1  0  0  0
  2  9  1  0  0  0
  3  5  2  0  0  0
  3  4  1  0  0  0
  3  7  1  0  0  0
  4 11  1  0  0  0
  4 13  2  0  0  0
  5 29  1  0  0  0
  6  7  2  0  0  0
  6 30  1  0  0  0
  7 22  1  0  0  0
  8 15  1  0  0  0
  8 23  1  0  0  0
  8 26  1  0  0  0
  9 24  1  0  0  0
  9 25  1  0  0  0
  9 14  1  0  0  0
 10 12  1  0  0  0
 10 16  2  0  0  0
 10 21  1  0  0  0
 11 17  2  0  0  0
 11 18  1  0  0  0
 12 19  1  0  0  0
 12 20  2  0  0  0
 13 31  1  0  0  0
 13 32  1  0  0  0
 14 15  1  0  0  0
 14 33  1  0  0  0
 14 34  1  0  0  0
 15 35  1  0  0  0
 15 36  1  0  0  0
 17 20  1  0  0  0
 17 37  1  0  0  0
 18 19  2  0  0  0
 18 38  1  0  0  0
 19 39  1  0  0  0
 20 40  1  0  0  0
 21 41  1  0  0  0
 22 27  1  0  0  0
 22 42  1  0  0  0
 22 43  1  0  0  0
 23 44  1  0  0  0
 23 45  1  0  0  0
 23 46  1  0  0  0
 24 47  1  0  0  0
 24 48  1  0  0  0
 24 49  1  0  0  0
 25 50  1  0  0  0
 25 51  1  0  0  0
 25 52  1  0  0  0
 26 53  1  0  0  0
 26 54  1  0  0  0
 26 55  1  0  0  0
 27 28  1  0  0  0
 27 56  1  0  0  0
 27 57  1  0  0  0
 28 58  1  0  0  0
 28 59  1  0  0  0
 28 60  1  0  0  0
M  END
> <s_m_entry_id>
30869

> <s_m_entry_name>
dock_pv.82

> <s_m_Source_Path>
/home/csk/Desktop/cluster/DUD-E-result/rxra

> <s_m_Source_File>
dock_pv.maegz

> <i_m_Source_File_Index>
82

> <chembl_id>
CHEMBL101302

> <chembl_pref_name>
None

> <i_lp_mmshare_version>
53161

> <r_lp_tautomer_probability>
1

> <s_lp_Force_Field>
OPLS_2005

> <r_lp_Energy>
31.283233

> <b_lp_Chiralities_Consistent>
1

> <s_lp_Variant>
CHEMBL2061_lig353-1

> <s_i_glide_gridfile>
glide-grid_1mv9

> <i_i_glide_lignum>
413

> <i_i_glide_rotatable_bonds>
6

> <r_i_docking_score>
-11.1904467629107

> <r_i_glide_ligand_efficiency>
-0.399658812961097

> <r_i_glide_ligand_efficiency_sa>
-1.2135995426026

> <r_i_glide_ligand_efficiency_ln>
-2.58308367867382

> <r_i_glide_gscore>
-11.1904467629107

> <r_i_glide_lipo>
-6.9475155720891

> <r_i_glide_hbond>
0

> <r_i_glide_metal>
0

> <r_i_glide_rewards>
-2.11552492198853

> <r_i_glide_evdw>
-45.6091117858887

> <r_i_glide_ecoul>
-2.62085628509521

> <r_i_glide_erotb>
0.546177763225639

> <r_i_glide_esite>
0

> <r_i_glide_emodel>
-74.7563468891076

> <r_i_glide_energy>
-48.2299680709839

> <r_i_glide_einternal>
6.13566780090332

> <i_i_glide_confnum>
48

> <i_i_glide_posenum>
210

> <r_i_glide_eff_state_penalty>
0

> <s_user_duplicate_titles>
CHEMBL2061_lig353,162849

> <i_f3d_flags>
0

> <s_m_subgroup_title>
dock_pv

> <s_m_subgroupid>
dock_pv

> <b_m_subgroup_collapsed>
1

$$$$
CHEMBL2061_lig372
                    3D
 Schrodinger Suite 2021-1.
 51 53  0  0  1  0            999 V2000
   62.7955   46.4770   32.8138 C   0  0  0  0  0  0
   61.8711   46.3839   30.5237 C   0  0  0  0  0  0
   63.9000   45.6831   32.3915 C   0  0  0  0  0  0
   60.7960   46.7151   29.5446 C   0  0  0  0  0  0
   61.8358   46.8411   31.8465 C   0  0  0  0  0  0
   63.9393   45.2614   31.0518 C   0  0  0  0  0  0
   62.9451   45.5836   30.1379 C   0  0  0  0  0  0
   62.6148   46.9349   34.2901 C   0  0  0  0  0  0
   65.0120   45.2056   33.3601 C   0  0  0  0  0  0
   55.3028   44.9390   30.3168 C   0  0  0  0  0  0
   59.4197   46.1228   29.6964 C   0  0  0  0  0  0
   56.7439   45.2759   30.0685 C   0  0  0  0  0  0
   61.1175   47.5392   28.5242 C   0  0  0  0  0  0
   64.9725   46.0059   34.6850 C   0  0  0  0  0  0
   63.5594   46.1532   35.2427 C   0  0  0  0  0  0
   54.7201   45.2770   31.3390 O   0  0  0  0  0  0
   58.5102   46.0870   28.6262 C   0  0  0  0  0  0
   58.9587   45.6770   30.9390 C   0  0  0  0  0  0
   57.6441   45.2770   31.1322 C   0  0  0  0  0  0
   57.1885   45.6770   28.8076 C   0  0  0  0  0  0
   63.0342   45.1059   28.8737 F   0  0  0  0  0  0
   54.6964   44.2228   29.3390 O   0  0  0  0  0  0
   62.9491   48.4364   34.4082 C   0  0  0  0  0  0
   64.7869   43.7026   33.6636 C   0  0  0  0  0  0
   66.4080   45.4805   32.7554 C   0  0  0  0  0  0
   61.1764   46.6316   34.7723 C   0  0  0  0  0  0
   61.0134   47.4751   32.1392 H   0  0  0  0  0  0
   64.7436   44.6298   30.7071 H   0  0  0  0  0  0
   62.1166   47.9407   28.4308 H   0  0  0  0  0  0
   60.4086   47.8391   27.7682 H   0  0  0  0  0  0
   65.6080   45.5302   35.4329 H   0  0  0  0  0  0
   65.3996   46.9993   34.5419 H   0  0  0  0  0  0
   63.1690   45.1584   35.4520 H   0  0  0  0  0  0
   63.6077   46.6423   36.2172 H   0  0  0  0  0  0
   58.8082   46.4044   27.6390 H   0  0  0  0  0  0
   59.5937   45.6779   31.8085 H   0  0  0  0  0  0
   57.3361   45.0063   32.1300 H   0  0  0  0  0  0
   56.5156   45.7084   27.9618 H   0  0  0  0  0  0
   55.3035   43.9090   28.6622 H   0  0  0  0  0  0
   62.8079   48.7956   35.4285 H   0  0  0  0  0  0
   63.9809   48.6541   34.1390 H   0  0  0  0  0  0
   62.3152   49.0394   33.7565 H   0  0  0  0  0  0
   65.5311   43.3224   34.3640 H   0  0  0  0  0  0
   63.8031   43.5033   34.0882 H   0  0  0  0  0  0
   64.8628   43.0969   32.7602 H   0  0  0  0  0  0
   67.2024   45.2492   33.4671 H   0  0  0  0  0  0
   66.6038   44.8771   31.8698 H   0  0  0  0  0  0
   66.5226   46.5267   32.4677 H   0  0  0  0  0  0
   61.0741   46.7801   35.8482 H   0  0  0  0  0  0
   60.4373   47.2770   34.3036 H   0  0  0  0  0  0
   60.8765   45.6095   34.5506 H   0  0  0  0  0  0
  1  3  2  0  0  0
  1  5  1  0  0  0
  1  8  1  0  0  0
  2  5  2  0  0  0
  2  4  1  0  0  0
  2  7  1  0  0  0
  3  6  1  0  0  0
  3  9  1  0  0  0
  4 11  1  0  0  0
  4 13  2  0  0  0
  5 27  1  0  0  0
  6  7  2  0  0  0
  6 28  1  0  0  0
  7 21  1  0  0  0
  8 15  1  0  0  0
  8 23  1  0  0  0
  8 26  1  0  0  0
  9 24  1  0  0  0
  9 25  1  0  0  0
  9 14  1  0  0  0
 10 12  1  0  0  0
 10 16  2  0  0  0
 10 22  1  0  0  0
 11 17  2  0  0  0
 11 18  1  0  0  0
 12 19  1  0  0  0
 12 20  2  0  0  0
 13 29  1  0  0  0
 13 30  1  0  0  0
 14 15  1  0  0  0
 14 31  1  0  0  0
 14 32  1  0  0  0
 15 33  1  0  0  0
 15 34  1  0  0  0
 17 20  1  0  0  0
 17 35  1  0  0  0
 18 19  2  0  0  0
 18 36  1  0  0  0
 19 37  1  0  0  0
 20 38  1  0  0  0
 22 39  1  0  0  0
 23 40  1  0  0  0
 23 41  1  0  0  0
 23 42  1  0  0  0
 24 43  1  0  0  0
 24 44  1  0  0  0
 24 45  1  0  0  0
 25 46  1  0  0  0
 25 47  1  0  0  0
 25 48  1  0  0  0
 26 49  1  0  0  0
 26 50  1  0  0  0
 26 51  1  0  0  0
M  END
> <s_m_entry_id>
30870

> <s_m_entry_name>
dock_pv.83

> <s_m_Source_Path>
/home/csk/Desktop/cluster/DUD-E-result/rxra

> <s_m_Source_File>
dock_pv.maegz

> <i_m_Source_File_Index>
83

> <chembl_id>
CHEMBL330593

> <chembl_pref_name>
None

> <i_lp_mmshare_version>
53161

> <r_lp_tautomer_probability>
1

> <s_lp_Force_Field>
OPLS_2005

> <r_lp_Energy>
28.945787

> <b_lp_Chiralities_Consistent>
1

> <s_lp_Variant>
CHEMBL2061_lig372-1

> <s_i_glide_gridfile>
glide-grid_1mv9

> <i_i_glide_lignum>
432

> <i_i_glide_rotatable_bonds>
4

> <r_i_docking_score>
-11.1852424813064

> <r_i_glide_ligand_efficiency>
-0.430201633896399

> <r_i_glide_ligand_efficiency_sa>
-1.27447064765639

> <r_i_glide_ligand_efficiency_ln>
-2.62681749496069

> <r_i_glide_gscore>
-11.1852424813064

> <r_i_glide_lipo>
-6.15482303357548

> <r_i_glide_hbond>
-0.0549502123002428

> <r_i_glide_metal>
0

> <r_i_glide_rewards>
-2.58536212757115

> <r_i_glide_evdw>
-45.085563659668

> <r_i_glide_ecoul>
-3.97840857505798

> <r_i_glide_erotb>
0.460932361382603

> <r_i_glide_esite>
0

> <r_i_glide_emodel>
-77.9600222383324

> <r_i_glide_energy>
-49.063972234726

> <r_i_glide_einternal>
5.96594285964966

> <i_i_glide_confnum>
37

> <i_i_glide_posenum>
393

> <r_i_glide_eff_state_penalty>
0

> <s_user_duplicate_titles>
CHEMBL2061_lig372,163689

> <i_f3d_flags>
0

> <s_m_subgroup_title>
dock_pv

> <s_m_subgroupid>
dock_pv

> <b_m_subgroup_collapsed>
1

$$$$
CHEMBL2061_lig583
                    3D
 Schrodinger Suite 2021-1.
 54 56  0  0  1  0            999 V2000
   63.9138   45.2187   30.9954 C   0  0  0  0  0  0
   62.9134   45.5078   30.0444 C   0  0  0  0  0  0
   61.8101   46.2872   30.4171 C   0  0  0  0  0  0
   61.7600   46.7835   31.7176 C   0  0  0  0  0  0
   60.7064   46.6209   29.4511 C   0  0  0  0  0  0
   59.3076   46.0937   29.6702 C   0  0  0  0  0  0
   60.9915   47.1895   28.3950 O   0  0  0  0  0  0
   58.8553   45.6770   30.9282 C   0  0  0  0  0  0
   57.5408   45.2770   31.1209 C   0  0  0  0  0  0
   56.6380   45.2736   30.0574 C   0  0  0  0  0  0
   57.0744   45.6776   28.7938 C   0  0  0  0  0  0
   58.3974   46.0780   28.6039 C   0  0  0  0  0  0
   55.2012   44.9297   30.3113 C   0  0  0  0  0  0
   54.6203   45.2745   31.3370 O   0  0  0  0  0  0
   54.6018   44.1914   29.3391 O   0  0  0  0  0  0
   63.8467   45.6910   32.3407 C   0  0  0  0  0  0
   62.7003   46.4643   32.7074 C   0  0  0  0  0  0
   62.4010   46.9405   34.1590 C   0  0  0  0  0  0
   63.3543   46.2831   35.1856 C   0  0  0  0  0  0
   64.7865   46.2109   34.6752 C   0  0  0  0  0  0
   64.9278   45.3105   33.4194 C   0  0  0  0  0  0
   62.5872   48.4744   34.2486 C   0  0  0  0  0  0
   60.9738   46.4909   34.5817 C   0  0  0  0  0  0
   64.7102   43.8356   33.8542 C   0  0  0  0  0  0
   66.3842   45.5793   32.9481 C   0  0  0  0  0  0
   62.9964   44.9263   28.6204 C   0  0  0  0  0  0
   65.0097   44.3470   30.5542 N   0  3  0  0  0  0
   66.0334   44.8769   30.1392 O   0  0  0  0  0  0
   64.8069   43.1387   30.5482 O   0  5  0  0  0  0
   60.9289   47.4154   31.9937 H   0  0  0  0  0  0
   59.4930   45.6775   31.7962 H   0  0  0  0  0  0
   57.2253   45.0162   32.1201 H   0  0  0  0  0  0
   56.3962   45.7148   27.9515 H   0  0  0  0  0  0
   58.7030   46.4026   27.6199 H   0  0  0  0  0  0
   55.2092   43.8781   28.6626 H   0  0  0  0  0  0
   63.3308   46.8267   36.1312 H   0  0  0  0  0  0
   63.0222   45.2780   35.4402 H   0  0  0  0  0  0
   65.1456   47.2183   34.4593 H   0  0  0  0  0  0
   65.4308   45.8488   35.4801 H   0  0  0  0  0  0
   62.2607   48.8381   35.2220 H   0  0  0  0  0  0
   63.6227   48.7843   34.1380 H   0  0  0  0  0  0
   62.0085   49.0063   33.4952 H   0  0  0  0  0  0
   60.8084   46.6441   35.6496 H   0  0  0  0  0  0
   60.1876   47.0397   34.0733 H   0  0  0  0  0  0
   60.7987   45.4360   34.3721 H   0  0  0  0  0  0
   65.3124   43.5858   34.7284 H   0  0  0  0  0  0
   63.6695   43.6192   34.0984 H   0  0  0  0  0  0
   64.9983   43.1314   33.0762 H   0  0  0  0  0  0
   67.0729   45.7558   33.7777 H   0  0  0  0  0  0
   66.8074   44.7196   32.4331 H   0  0  0  0  0  0
   66.4466   46.4476   32.2901 H   0  0  0  0  0  0
   63.6090   44.0316   28.5382 H   0  0  0  0  0  0
   62.0181   44.6021   28.2648 H   0  0  0  0  0  0
   63.3702   45.6789   27.9258 H   0  0  0  0  0  0
  1 16  1  0  0  0
  1  2  2  0  0  0
  1 27  1  0  0  0
  2  3  1  0  0  0
  2 26  1  0  0  0
  3  4  2  0  0  0
  3  5  1  0  0  0
  4 17  1  0  0  0
  4 30  1  0  0  0
  5  6  1  0  0  0
  5  7  2  0  0  0
  6  8  2  0  0  0
  6 12  1  0  0  0
  8  9  1  0  0  0
  8 31  1  0  0  0
  9 10  2  0  0  0
  9 32  1  0  0  0
 10 11  1  0  0  0
 10 13  1  0  0  0
 11 12  2  0  0  0
 11 33  1  0  0  0
 12 34  1  0  0  0
 13 14  2  0  0  0
 13 15  1  0  0  0
 15 35  1  0  0  0
 16 17  2  0  0  0
 16 21  1  0  0  0
 17 18  1  0  0  0
 18 19  1  0  0  0
 18 22  1  0  0  0
 18 23  1  0  0  0
 19 20  1  0  0  0
 19 36  1  0  0  0
 19 37  1  0  0  0
 20 21  1  0  0  0
 20 38  1  0  0  0
 20 39  1  0  0  0
 21 24  1  0  0  0
 21 25  1  0  0  0
 22 40  1  0  0  0
 22 41  1  0  0  0
 22 42  1  0  0  0
 23 43  1  0  0  0
 23 44  1  0  0  0
 23 45  1  0  0  0
 24 46  1  0  0  0
 24 47  1  0  0  0
 24 48  1  0  0  0
 25 49  1  0  0  0
 25 50  1  0  0  0
 25 51  1  0  0  0
 26 52  1  0  0  0
 26 53  1  0  0  0
 26 54  1  0  0  0
 27 28  2  0  0  0
 27 29  1  0  0  0
M  CHG  2  27   1  29  -1
M  END
> <s_m_entry_id>
30871

> <s_m_entry_name>
dock_pv.84

> <s_m_Source_Path>
/home/csk/Desktop/cluster/DUD-E-result/rxra

> <s_m_Source_File>
dock_pv.maegz

> <i_m_Source_File_Index>
84

> <chembl_id>
CHEMBL3715006

> <chembl_pref_name>
None

> <i_lp_mmshare_version>
53161

> <r_lp_tautomer_probability>
1

> <s_lp_Force_Field>
OPLS_2005

> <r_lp_Energy>
47.496666

> <b_lp_Chiralities_Consistent>
1

> <s_lp_Variant>
CHEMBL2061_lig583-1

> <s_i_glide_gridfile>
glide-grid_1mv9

> <i_i_glide_lignum>
714

> <i_i_glide_rotatable_bonds>
5

> <r_i_docking_score>
-11.1811070114247

> <r_i_glide_ligand_efficiency>
-0.38555541418706

> <r_i_glide_ligand_efficiency_sa>
-1.18454838491161

> <r_i_glide_ligand_efficiency_ln>
-2.56018997720596

> <r_i_glide_gscore>
-11.1811070114247

> <r_i_glide_lipo>
-5.8348815936099

> <r_i_glide_hbond>
-0.0829587804549356

> <r_i_glide_metal>
0

> <r_i_glide_rewards>
-2.67627816752129

> <r_i_glide_evdw>
-47.6998443603516

> <r_i_glide_ecoul>
-3.84760904312134

> <r_i_glide_erotb>
0.375145104647161

> <r_i_glide_esite>
0

> <r_i_glide_emodel>
-77.9617633369285

> <r_i_glide_energy>
-51.5474534034729

> <r_i_glide_einternal>
10.0648460388184

> <i_i_glide_confnum>
34

> <i_i_glide_posenum>
321

> <r_i_glide_eff_state_penalty>
0

> <s_user_duplicate_titles>
CHEMBL2061_lig583

> <i_f3d_flags>
0

> <s_m_subgroup_title>
dock_pv

> <s_m_subgroupid>
dock_pv

> <b_m_subgroup_collapsed>
1

$$$$
CHEMBL2061_lig302
                    3D
 Schrodinger Suite 2021-1.
 53 55  0  0  1  0            999 V2000
   62.6795   46.3557   32.4709 C   0  0  0  0  0  0
   63.7979   45.6331   31.9707 C   0  0  0  0  0  0
   61.6728   46.3409   30.2194 C   0  0  0  0  0  0
   60.5362   46.7214   29.3375 C   0  0  0  0  0  0
   61.6801   46.7340   31.5596 C   0  0  0  0  0  0
   63.8059   45.2844   30.6087 C   0  0  0  0  0  0
   62.7668   45.6097   29.7388 C   0  0  0  0  0  0
   56.4972   45.4215   29.9198 C   0  0  0  0  0  0
   58.3277   46.1096   28.4998 N   0  0  0  0  0  0
   55.0154   45.2507   30.1183 C   0  0  0  0  0  0
   64.9529   45.1448   32.8816 C   0  0  0  0  0  0
   62.5038   46.7124   33.9732 C   0  0  0  0  0  0
   59.1768   46.1238   29.5624 C   0  0  0  0  0  0
   57.0259   45.7752   28.6780 C   0  0  0  0  0  0
   57.3975   45.2976   30.9832 C   0  0  0  0  0  0
   60.7783   47.5947   28.3346 C   0  0  0  0  0  0
   54.5287   44.4766   30.9388 O   0  0  0  0  0  0
   64.9295   45.8958   34.2389 C   0  0  0  0  0  0
   63.5307   45.9482   34.8564 C   0  0  0  0  0  0
   58.7325   45.6765   30.8135 C   0  0  0  0  0  0
   54.2603   46.1055   29.3702 O   0  0  0  0  0  0
   62.8361   45.1240   28.2938 C   0  0  0  0  0  0
   62.7370   48.2253   34.1621 C   0  0  0  0  0  0
   61.0915   46.2861   34.4599 C   0  0  0  0  0  0
   64.7701   43.6249   33.1280 C   0  0  0  0  0  0
   66.3264   45.4681   32.2439 C   0  0  0  0  0  0
   60.8606   47.3331   31.9201 H   0  0  0  0  0  0
   64.6282   44.7036   30.2187 H   0  0  0  0  0  0
   56.4104   45.8369   27.7909 H   0  0  0  0  0  0
   57.0588   45.0355   31.9701 H   0  0  0  0  0  0
   61.7638   48.0121   28.1850 H   0  0  0  0  0  0
   60.0076   47.9138   27.6493 H   0  0  0  0  0  0
   65.6205   45.4257   34.9417 H   0  0  0  0  0  0
   65.2988   46.9150   34.1170 H   0  0  0  0  0  0
   63.2081   44.9255   35.0412 H   0  0  0  0  0  0
   63.5859   46.3984   35.8491 H   0  0  0  0  0  0
   59.3735   45.6770   31.6775 H   0  0  0  0  0  0
   54.8113   46.6929   28.8485 H   0  0  0  0  0  0
   63.4861   44.2581   28.1809 H   0  0  0  0  0  0
   61.8544   44.8088   27.9399 H   0  0  0  0  0  0
   63.1968   45.9190   27.6419 H   0  0  0  0  0  0
   62.6339   48.5109   35.2087 H   0  0  0  0  0  0
   63.7333   48.5174   33.8437 H   0  0  0  0  0  0
   62.0196   48.8196   33.5943 H   0  0  0  0  0  0
   61.0114   46.3238   35.5469 H   0  0  0  0  0  0
   60.3090   46.9348   34.0731 H   0  0  0  0  0  0
   60.8345   45.2771   34.1412 H   0  0  0  0  0  0
   65.5598   43.2278   33.7666 H   0  0  0  0  0  0
   63.8173   43.3830   33.5973 H   0  0  0  0  0  0
   64.8031   43.0641   32.1934 H   0  0  0  0  0  0
   67.1370   45.2564   32.9426 H   0  0  0  0  0  0
   66.5226   44.8774   31.3497 H   0  0  0  0  0  0
   66.4015   46.5183   31.9625 H   0  0  0  0  0  0
  1  2  2  0  0  0
  1  5  1  0  0  0
  1 12  1  0  0  0
  2  6  1  0  0  0
  2 11  1  0  0  0
  3  5  2  0  0  0
  3  4  1  0  0  0
  3  7  1  0  0  0
  4 13  1  0  0  0
  4 16  2  0  0  0
  5 27  1  0  0  0
  6  7  2  0  0  0
  6 28  1  0  0  0
  7 22  1  0  0  0
  8 15  2  0  0  0
  8 10  1  0  0  0
  8 14  1  0  0  0
  9 13  1  0  0  0
  9 14  2  0  0  0
 10 17  2  0  0  0
 10 21  1  0  0  0
 11 25  1  0  0  0
 11 26  1  0  0  0
 11 18  1  0  0  0
 12 19  1  0  0  0
 12 23  1  0  0  0
 12 24  1  0  0  0
 13 20  2  0  0  0
 14 29  1  0  0  0
 15 20  1  0  0  0
 15 30  1  0  0  0
 16 31  1  0  0  0
 16 32  1  0  0  0
 18 19  1  0  0  0
 18 33  1  0  0  0
 18 34  1  0  0  0
 19 35  1  0  0  0
 19 36  1  0  0  0
 20 37  1  0  0  0
 21 38  1  0  0  0
 22 39  1  0  0  0
 22 40  1  0  0  0
 22 41  1  0  0  0
 23 42  1  0  0  0
 23 43  1  0  0  0
 23 44  1  0  0  0
 24 45  1  0  0  0
 24 46  1  0  0  0
 24 47  1  0  0  0
 25 48  1  0  0  0
 25 49  1  0  0  0
 25 50  1  0  0  0
 26 51  1  0  0  0
 26 52  1  0  0  0
 26 53  1  0  0  0
M  END
> <s_m_entry_id>
30872

> <s_m_entry_name>
dock_pv.85

> <s_m_Source_Path>
/home/csk/Desktop/cluster/DUD-E-result/rxra

> <s_m_Source_File>
dock_pv.maegz

> <i_m_Source_File_Index>
85

> <chembl_id>
CHEMBL109117

> <chembl_pref_name>
None

> <i_lp_mmshare_version>
53161

> <r_lp_tautomer_probability>
1

> <s_lp_Force_Field>
OPLS_2005

> <r_lp_Energy>
28.501357

> <b_lp_Chiralities_Consistent>
1

> <s_lp_Variant>
CHEMBL2061_lig302-1

> <s_i_glide_gridfile>
glide-grid_1mv9

> <i_i_glide_lignum>
350

> <i_i_glide_rotatable_bonds>
4

> <r_i_docking_score>
-11.1805539140768

> <r_i_glide_ligand_efficiency>
-0.43002130438757

> <r_i_glide_ligand_efficiency_sa>
-1.27393642219605

> <r_i_glide_ligand_efficiency_ln>
-2.62571640033127

> <r_i_glide_gscore>
-11.1805539140768

> <r_i_glide_lipo>
-6.07058367706621

> <r_i_glide_hbond>
-0.299970270522364

> <r_i_glide_metal>
0

> <r_i_glide_rewards>
-2.49555796356653

> <r_i_glide_evdw>
-44.1700897216797

> <r_i_glide_ecoul>
-3.82581734657288

> <r_i_glide_erotb>
0.467935085148217

> <r_i_glide_esite>
0

> <r_i_glide_emodel>
-76.315550689863

> <r_i_glide_energy>
-47.9959070682526

> <r_i_glide_einternal>
5.97731828689575

> <i_i_glide_confnum>
23

> <i_i_glide_posenum>
150

> <r_i_glide_eff_state_penalty>
0

> <s_user_duplicate_titles>
CHEMBL2061_lig302,176548

> <i_f3d_flags>
0

> <s_m_subgroup_title>
dock_pv

> <s_m_subgroupid>
dock_pv

> <b_m_subgroup_collapsed>
1

$$$$
CHEMBL2061_lig396
                    3D
 Schrodinger Suite 2021-1.
 57 60  0  0  1  0            999 V2000
   60.9042   46.3221   29.0466 C   0  0  0  0  0  0
   60.0536   45.5872   29.7394 N   0  0  0  0  0  0
   60.2149   47.2236   28.2716 C   0  0  0  0  0  0
   63.1965   46.2944   32.7930 C   0  0  0  0  0  0
   58.8565   46.0382   29.4236 C   0  0  0  0  0  0
   58.8965   47.0693   28.5366 O   0  0  0  0  0  0
   64.4537   45.6269   32.8053 C   0  0  0  0  0  0
   62.4301   46.2311   29.0257 C   0  0  2  0  0  0
   62.5665   46.4761   31.5543 C   0  0  0  0  0  0
   63.1009   45.9772   30.3654 C   0  0  0  0  0  0
   62.5228   46.8560   34.0764 C   0  0  0  0  0  0
   65.2043   45.3055   34.1068 C   0  0  0  0  0  0
   57.5708   45.5682   29.9149 C   0  0  0  0  0  0
   64.9874   45.1631   31.5923 C   0  0  0  0  0  0
   56.3514   45.9901   29.5053 C   0  0  0  0  0  0
   55.0776   45.5354   30.0227 C   0  0  0  0  0  0
   64.3233   45.3237   30.3907 C   0  0  0  0  0  0
   63.1820   46.2722   35.3436 C   0  0  0  0  0  0
   64.7022   46.2026   35.2587 C   0  0  0  0  0  0
   54.0107   46.0772   29.7390 O   0  0  0  0  0  0
   60.7916   48.2722   27.3390 C   0  0  0  0  0  0
   55.1555   44.4772   30.8789 O   0  0  0  0  0  0
   62.9711   47.5824   28.4964 C   0  0  0  0  0  0
   62.7061   48.3876   34.1171 C   0  0  0  0  0  0
   61.0224   46.4650   34.1412 C   0  0  0  0  0  0
   64.9206   43.8245   34.4159 C   0  0  0  0  0  0
   66.7169   45.5972   33.9744 C   0  0  0  0  0  0
   62.3112   48.0352   27.1990 C   0  0  0  0  0  0
   62.7227   45.4298   28.3451 H   0  0  0  0  0  0
   61.6426   47.0306   31.5113 H   0  0  0  0  0  0
   57.6802   44.8144   30.6802 H   0  0  0  0  0  0
   65.9295   44.6379   31.5722 H   0  0  0  0  0  0
   56.2692   46.7433   28.7355 H   0  0  0  0  0  0
   64.7718   44.9520   29.4795 H   0  0  0  0  0  0
   62.8051   45.2769   35.5682 H   0  0  0  0  0  0
   62.9018   46.8853   36.1940 H   0  0  0  0  0  0
   65.1098   45.8656   36.2133 H   0  0  0  0  0  0
   65.0805   47.2131   35.1191 H   0  0  0  0  0  0
   60.3499   48.2136   26.3455 H   0  0  0  0  0  0
   60.6173   49.2708   27.7347 H   0  0  0  0  0  0
   56.0481   44.1424   30.9632 H   0  0  0  0  0  0
   64.0465   47.5045   28.3352 H   0  0  0  0  0  0
   62.8084   48.3600   29.2462 H   0  0  0  0  0  0
   62.2328   48.8126   35.0019 H   0  0  0  0  0  0
   63.7536   48.6875   34.1393 H   0  0  0  0  0  0
   62.2540   48.8660   33.2475 H   0  0  0  0  0  0
   60.5635   46.8356   35.0583 H   0  0  0  0  0  0
   60.4409   46.8774   33.3193 H   0  0  0  0  0  0
   60.8733   45.3857   34.1276 H   0  0  0  0  0  0
   65.4190   43.5424   35.3322 H   0  0  0  0  0  0
   63.8588   43.5985   34.5217 H   0  0  0  0  0  0
   65.3119   43.1666   33.6389 H   0  0  0  0  0  0
   67.2268   45.5518   34.9389 H   0  0  0  0  0  0
   67.2085   44.8702   33.3352 H   0  0  0  0  0  0
   66.9043   46.5881   33.5573 H   0  0  0  0  0  0
   62.5018   47.2750   26.4500 H   0  0  0  0  0  0
   62.8080   48.9333   26.8353 H   0  0  0  0  0  0
  1  2  1  0  0  0
  1  3  2  0  0  0
  1  8  1  0  0  0
  2  5  2  0  0  0
  3  6  1  0  0  0
  3 21  1  0  0  0
  4  9  2  0  0  0
  4 11  1  0  0  0
  4  7  1  0  0  0
  5 13  1  0  0  0
  5  6  1  0  0  0
  7 14  2  0  0  0
  7 12  1  0  0  0
  8 10  1  0  0  0
  8 23  1  0  0  0
  8 29  1  0  0  0
  9 10  1  0  0  0
  9 30  1  0  0  0
 10 17  2  0  0  0
 11 18  1  0  0  0
 11 24  1  0  0  0
 11 25  1  0  0  0
 12 19  1  0  0  0
 12 26  1  0  0  0
 12 27  1  0  0  0
 13 15  2  0  0  0
 13 31  1  0  0  0
 14 17  1  0  0  0
 14 32  1  0  0  0
 15 16  1  0  0  0
 15 33  1  0  0  0
 16 20  2  0  0  0
 16 22  1  0  0  0
 17 34  1  0  0  0
 18 19  1  0  0  0
 18 35  1  0  0  0
 18 36  1  0  0  0
 19 37  1  0  0  0
 19 38  1  0  0  0
 21 28  1  0  0  0
 21 39  1  0  0  0
 21 40  1  0  0  0
 22 41  1  0  0  0
 23 28  1  0  0  0
 23 42  1  0  0  0
 23 43  1  0  0  0
 24 44  1  0  0  0
 24 45  1  0  0  0
 24 46  1  0  0  0
 25 47  1  0  0  0
 25 48  1  0  0  0
 25 49  1  0  0  0
 26 50  1  0  0  0
 26 51  1  0  0  0
 26 52  1  0  0  0
 27 53  1  0  0  0
 27 54  1  0  0  0
 27 55  1  0  0  0
 28 56  1  0  0  0
 28 57  1  0  0  0
M  END
> <s_m_entry_id>
30873

> <s_m_entry_name>
dock_pv.86

> <s_m_Source_Path>
/home/csk/Desktop/cluster/DUD-E-result/rxra

> <s_m_Source_File>
dock_pv.maegz

> <i_m_Source_File_Index>
86

> <chembl_id>
CHEMBL64222

> <chembl_pref_name>
None

> <i_lp_mmshare_version>
53161

> <r_lp_tautomer_probability>
1

> <s_lp_Force_Field>
OPLS_2005

> <r_lp_Energy>
24.903396

> <b_lp_Chiralities_Consistent>
1

> <s_lp_Variant>
CHEMBL2061_lig396-1

> <s_i_glide_gridfile>
glide-grid_1mv9

> <i_i_glide_lignum>
461

> <i_i_glide_rotatable_bonds>
4

> <r_i_docking_score>
-11.1689416841192

> <r_i_glide_ligand_efficiency>
-0.398890774432828

> <r_i_glide_ligand_efficiency_sa>
-1.21126732528027

> <r_i_glide_ligand_efficiency_ln>
-2.57811967507219

> <r_i_glide_gscore>
-11.1689416841192

> <r_i_glide_lipo>
-6.47983998204697

> <r_i_glide_hbond>
-0.143780885651353

> <r_i_glide_metal>
0

> <r_i_glide_rewards>
-1.90044025058843

> <r_i_glide_evdw>
-50.6374473571777

> <r_i_glide_ecoul>
-3.44623804092407

> <r_i_glide_erotb>
0.403927508165069

> <r_i_glide_esite>
0

> <r_i_glide_emodel>
-88.2246202149275

> <r_i_glide_energy>
-54.0836853981018

> <r_i_glide_einternal>
1.51834416389465

> <i_i_glide_confnum>
3

> <i_i_glide_posenum>
152

> <r_i_glide_eff_state_penalty>
0

> <s_user_duplicate_titles>
CHEMBL2061_lig396

> <i_f3d_flags>
0

> <s_m_subgroup_title>
dock_pv

> <s_m_subgroupid>
dock_pv

> <b_m_subgroup_collapsed>
1

$$$$
CHEMBL2061_lig358
                    3D
 Schrodinger Suite 2021-1.
 55 57  0  0  1  0            999 V2000
   62.7909   46.4769   32.7715 C   0  0  0  0  0  0
   63.9189   45.6912   32.4091 C   0  0  0  0  0  0
   61.9114   46.2578   30.4669 C   0  0  0  0  0  0
   60.8181   46.5778   29.4776 C   0  0  0  0  0  0
   61.8487   46.7793   31.7679 C   0  0  0  0  0  0
   64.0026   45.2255   31.0892 C   0  0  0  0  0  0
   63.0286   45.4759   30.1246 C   0  0  0  0  0  0
   62.5633   46.9832   34.2250 C   0  0  0  0  0  0
   65.0118   45.2616   33.4214 C   0  0  0  0  0  0
   55.2859   44.9357   30.3162 C   0  0  0  0  0  0
   59.4052   46.0813   29.6846 C   0  0  0  0  0  0
   56.7270   45.2745   30.0664 C   0  0  0  0  0  0
   61.1163   47.1369   28.4192 O   0  0  0  0  0  0
   64.9251   46.1059   34.7166 C   0  0  0  0  0  0
   63.4917   46.2494   35.2293 C   0  0  0  0  0  0
   54.7032   45.2771   31.3390 O   0  0  0  0  0  0
   58.9427   45.6770   30.9391 C   0  0  0  0  0  0
   58.4941   46.0770   28.6170 C   0  0  0  0  0  0
   57.1689   45.6785   28.8042 C   0  0  0  0  0  0
   57.6272   45.2770   31.1313 C   0  0  0  0  0  0
   54.6820   44.2136   29.3390 O   0  0  0  0  0  0
   63.2219   44.8124   28.7590 C   0  0  0  0  0  0
   62.8763   48.4917   34.3051 C   0  0  0  0  0  0
   64.7944   43.7681   33.7739 C   0  0  0  0  0  0
   66.4213   45.5266   32.8394 C   0  0  0  0  0  0
   61.1141   46.6759   34.6796 C   0  0  0  0  0  0
   62.6733   43.3767   28.7233 C   0  0  0  0  0  0
   61.0180   47.4181   32.0268 H   0  0  0  0  0  0
   64.8331   44.5951   30.8099 H   0  0  0  0  0  0
   65.5513   45.6700   35.4968 H   0  0  0  0  0  0
   65.3423   47.0988   34.5454 H   0  0  0  0  0  0
   63.1031   45.2590   35.4609 H   0  0  0  0  0  0
   63.5037   46.7732   36.1863 H   0  0  0  0  0  0
   59.5781   45.6770   31.8094 H   0  0  0  0  0  0
   58.8058   46.3969   27.6319 H   0  0  0  0  0  0
   56.4922   45.7181   27.9616 H   0  0  0  0  0  0
   57.3159   45.0138   32.1302 H   0  0  0  0  0  0
   55.2879   43.9011   28.6604 H   0  0  0  0  0  0
   62.7855   45.3965   27.9516 H   0  0  0  0  0  0
   64.2893   44.8007   28.5390 H   0  0  0  0  0  0
   62.6439   48.8748   35.2978 H   0  0  0  0  0  0
   63.9274   48.7167   34.1390 H   0  0  0  0  0  0
   62.2947   49.0690   33.5855 H   0  0  0  0  0  0
   65.4964   43.4345   34.5386 H   0  0  0  0  0  0
   63.7873   43.5669   34.1392 H   0  0  0  0  0  0
   64.9461   43.1263   32.9057 H   0  0  0  0  0  0
   67.1992   45.3442   33.5831 H   0  0  0  0  0  0
   66.6507   44.8794   31.9933 H   0  0  0  0  0  0
   66.5297   46.5587   32.5025 H   0  0  0  0  0  0
   60.9727   46.8906   35.7399 H   0  0  0  0  0  0
   60.3840   47.2763   34.1459 H   0  0  0  0  0  0
   60.8445   45.6340   34.5167 H   0  0  0  0  0  0
   62.8078   42.9211   27.7427 H   0  0  0  0  0  0
   63.1773   42.7418   29.4528 H   0  0  0  0  0  0
   61.6079   43.3548   28.9451 H   0  0  0  0  0  0
  1  2  2  0  0  0
  1  5  1  0  0  0
  1  8  1  0  0  0
  2  6  1  0  0  0
  2  9  1  0  0  0
  3  5  2  0  0  0
  3  4  1  0  0  0
  3  7  1  0  0  0
  4 11  1  0  0  0
  4 13  2  0  0  0
  5 28  1  0  0  0
  6  7  2  0  0  0
  6 29  1  0  0  0
  7 22  1  0  0  0
  8 15  1  0  0  0
  8 23  1  0  0  0
  8 26  1  0  0  0
  9 24  1  0  0  0
  9 25  1  0  0  0
  9 14  1  0  0  0
 10 12  1  0  0  0
 10 16  2  0  0  0
 10 21  1  0  0  0
 11 17  2  0  0  0
 11 18  1  0  0  0
 12 19  1  0  0  0
 12 20  2  0  0  0
 14 15  1  0  0  0
 14 30  1  0  0  0
 14 31  1  0  0  0
 15 32  1  0  0  0
 15 33  1  0  0  0
 17 20  1  0  0  0
 17 34  1  0  0  0
 18 19  2  0  0  0
 18 35  1  0  0  0
 19 36  1  0  0  0
 20 37  1  0  0  0
 21 38  1  0  0  0
 22 27  1  0  0  0
 22 39  1  0  0  0
 22 40  1  0  0  0
 23 41  1  0  0  0
 23 42  1  0  0  0
 23 43  1  0  0  0
 24 44  1  0  0  0
 24 45  1  0  0  0
 24 46  1  0  0  0
 25 47  1  0  0  0
 25 48  1  0  0  0
 25 49  1  0  0  0
 26 50  1  0  0  0
 26 51  1  0  0  0
 26 52  1  0  0  0
 27 53  1  0  0  0
 27 54  1  0  0  0
 27 55  1  0  0  0
M  END
> <s_m_entry_id>
30874

> <s_m_entry_name>
dock_pv.87

> <s_m_Source_Path>
/home/csk/Desktop/cluster/DUD-E-result/rxra

> <s_m_Source_File>
dock_pv.maegz

> <i_m_Source_File_Index>
87

> <chembl_id>
CHEMBL97910

> <chembl_pref_name>
None

> <i_lp_mmshare_version>
53161

> <r_lp_tautomer_probability>
1

> <s_lp_Force_Field>
OPLS_2005

> <r_lp_Energy>
33.202102

> <b_lp_Chiralities_Consistent>
1

> <s_lp_Variant>
CHEMBL2061_lig358-1

> <s_i_glide_gridfile>
glide-grid_1mv9

> <i_i_glide_lignum>
418

> <i_i_glide_rotatable_bonds>
5

> <r_i_docking_score>
-11.1613946647026

> <r_i_glide_ligand_efficiency>
-0.413384987581578

> <r_i_glide_ligand_efficiency_sa>
-1.24015496138229

> <r_i_glide_ligand_efficiency_ln>
-2.59818866797056

> <r_i_glide_gscore>
-11.1613946647026

> <r_i_glide_lipo>
-6.15770383471529

> <r_i_glide_hbond>
-0.0599053508942922

> <r_i_glide_metal>
0

> <r_i_glide_rewards>
-2.42918552261979

> <r_i_glide_evdw>
-46.4253120422363

> <r_i_glide_ecoul>
-4.18331241607666

> <r_i_glide_erotb>
0.434162508050075

> <r_i_glide_esite>
0

> <r_i_glide_emodel>
-78.8600934885011

> <r_i_glide_energy>
-50.608624458313

> <r_i_glide_einternal>
4.472243309021

> <i_i_glide_confnum>
21

> <i_i_glide_posenum>
269

> <r_i_glide_eff_state_penalty>
0

> <s_user_duplicate_titles>
CHEMBL2061_lig358,163507

> <i_f3d_flags>
0

> <s_m_subgroup_title>
dock_pv

> <s_m_subgroupid>
dock_pv

> <b_m_subgroup_collapsed>
1

$$$$
CHEMBL2061_lig394
                    3D
 Schrodinger Suite 2021-1.
 58 61  0  0  1  0            999 V2000
   61.0347   46.7512   29.4047 C   0  0  0  0  0  0
   60.3889   47.0196   28.2161 C   0  0  0  0  0  0
   63.3863   46.4788   33.1774 C   0  0  0  0  0  0
   58.7882   46.4760   28.2108 S   0  0  0  0  0  0
   64.4431   45.5527   33.0139 C   0  0  0  0  0  0
   58.8888   45.9538   29.8435 C   0  0  0  0  0  0
   60.1884   46.0783   30.3141 C   0  0  0  0  0  0
   62.4615   47.2429   29.5922 C   0  0  1  0  0  0
   62.7603   46.9539   32.0282 C   0  0  0  0  0  0
   63.1675   46.5899   30.7542 C   0  0  0  0  0  0
   62.9048   46.9837   34.5574 C   0  0  0  0  0  0
   65.2638   45.0632   34.2054 C   0  0  0  0  0  0
   57.6936   45.5884   30.5745 C   0  0  0  0  0  0
   64.8144   45.1595   31.7164 C   0  0  0  0  0  0
   55.3117   45.1505   30.7980 C   0  0  0  0  0  0
   56.5024   45.2834   30.0158 C   0  0  0  0  0  0
   64.1941   45.6716   30.5926 C   0  0  0  0  0  0
   63.9836   46.7396   35.6273 C   0  0  0  0  0  0
   64.5412   45.3426   35.5520 C   0  0  0  0  0  0
   55.1546   45.6748   31.8930 O   0  0  0  0  0  0
   61.0463   47.4655   26.9554 C   0  0  0  0  0  0
   54.3367   44.4770   30.1287 O   0  0  0  0  0  0
   63.2088   47.2308   28.2304 C   0  0  0  0  0  0
   62.7910   48.4982   34.5452 C   0  0  0  0  0  0
   61.5558   46.3131   34.9234 C   0  0  0  0  0  0
   65.4198   43.5563   34.1419 C   0  0  0  0  0  0
   66.6197   45.7893   34.1319 C   0  0  0  0  0  0
   62.4335   48.0767   27.2152 C   0  0  0  0  0  0
   60.4793   45.8011   31.3163 H   0  0  0  0  0  0
   62.4081   48.2961   29.8773 H   0  0  0  0  0  0
   61.9447   47.6542   32.1205 H   0  0  0  0  0  0
   57.8056   45.6454   31.6512 H   0  0  0  0  0  0
   65.6347   44.4759   31.5642 H   0  0  0  0  0  0
   56.3898   45.1793   28.9458 H   0  0  0  0  0  0
   64.5340   45.3611   29.6154 H   0  0  0  0  0  0
   63.6099   46.9468   36.6280 H   0  0  0  0  0  0
   64.8085   47.4351   35.4967 H   0  0  0  0  0  0
   63.7263   44.6336   35.7198 H   0  0  0  0  0  0
   65.2085   45.2357   36.4011 H   0  0  0  0  0  0
   61.1912   46.4854   26.5392 H   0  0  0  0  0  0
   60.4081   48.0616   26.2991 H   0  0  0  0  0  0
   54.6637   44.1325   29.2927 H   0  0  0  0  0  0
   63.3193   46.2112   27.8569 H   0  0  0  0  0  0
   64.2164   47.6307   28.3167 H   0  0  0  0  0  0
   62.5620   48.8737   35.5429 H   0  0  0  0  0  0
   63.7107   48.9844   34.2166 H   0  0  0  0  0  0
   62.0017   48.8541   33.8906 H   0  0  0  0  0  0
   61.5763   45.8352   35.9057 H   0  0  0  0  0  0
   60.7363   47.0339   34.9542 H   0  0  0  0  0  0
   61.2602   45.5517   34.1971 H   0  0  0  0  0  0
   65.9967   43.2771   35.0091 H   0  0  0  0  0  0
   64.4690   43.0202   34.1486 H   0  0  0  0  0  0
   66.0101   43.1956   33.3222 H   0  0  0  0  0  0
   67.2906   45.5159   34.9386 H   0  0  0  0  0  0
   67.1533   45.5459   33.2127 H   0  0  0  0  0  0
   66.4898   46.8704   34.1390 H   0  0  0  0  0  0
   62.9878   48.1366   26.2771 H   0  0  0  0  0  0
   62.3276   49.1027   27.5737 H   0  0  0  0  0  0
  1  2  2  0  0  0
  1  7  1  0  0  0
  1  8  1  0  0  0
  2  4  1  0  0  0
  2 21  1  0  0  0
  3  9  2  0  0  0
  3 11  1  0  0  0
  3  5  1  0  0  0
  4  6  1  0  0  0
  5 14  2  0  0  0
  5 12  1  0  0  0
  6  7  2  0  0  0
  6 13  1  0  0  0
  7 29  1  0  0  0
  8 10  1  0  0  0
  8 23  1  0  0  0
  8 30  1  0  0  0
  9 10  1  0  0  0
  9 31  1  0  0  0
 10 17  2  0  0  0
 11 18  1  0  0  0
 11 24  1  0  0  0
 11 25  1  0  0  0
 12 19  1  0  0  0
 12 26  1  0  0  0
 12 27  1  0  0  0
 13 16  2  0  0  0
 13 32  1  0  0  0
 14 17  1  0  0  0
 14 33  1  0  0  0
 15 16  1  0  0  0
 15 20  2  0  0  0
 15 22  1  0  0  0
 16 34  1  0  0  0
 17 35  1  0  0  0
 18 19  1  0  0  0
 18 36  1  0  0  0
 18 37  1  0  0  0
 19 38  1  0  0  0
 19 39  1  0  0  0
 21 28  1  0  0  0
 21 40  1  0  0  0
 21 41  1  0  0  0
 22 42  1  0  0  0
 23 28  1  0  0  0
 23 43  1  0  0  0
 23 44  1  0  0  0
 24 45  1  0  0  0
 24 46  1  0  0  0
 24 47  1  0  0  0
 25 48  1  0  0  0
 25 49  1  0  0  0
 25 50  1  0  0  0
 26 51  1  0  0  0
 26 52  1  0  0  0
 26 53  1  0  0  0
 27 54  1  0  0  0
 27 55  1  0  0  0
 27 56  1  0  0  0
 28 57  1  0  0  0
 28 58  1  0  0  0
M  END
> <s_m_entry_id>
30875

> <s_m_entry_name>
dock_pv.88

> <s_m_Source_Path>
/home/csk/Desktop/cluster/DUD-E-result/rxra

> <s_m_Source_File>
dock_pv.maegz

> <i_m_Source_File_Index>
88

> <chembl_id>
CHEMBL62537

> <chembl_pref_name>
None

> <i_lp_mmshare_version>
53161

> <r_lp_tautomer_probability>
1

> <s_lp_Force_Field>
OPLS_2005

> <r_lp_Energy>
21.800169

> <b_lp_Chiralities_Consistent>
1

> <s_lp_Variant>
CHEMBL2061_lig394-2

> <s_i_glide_gridfile>
glide-grid_1mv9

> <i_i_glide_lignum>
459

> <i_i_glide_rotatable_bonds>
4

> <r_i_docking_score>
-11.1612798806217

> <r_i_glide_ligand_efficiency>
-0.398617138593634

> <r_i_glide_ligand_efficiency_sa>
-1.21043640570959

> <r_i_glide_ligand_efficiency_ln>
-2.57635110586466

> <r_i_glide_gscore>
-11.1612798806217

> <r_i_glide_lipo>
-7.21325399309737

> <r_i_glide_hbond>
0

> <r_i_glide_metal>
0

> <r_i_glide_rewards>
-1.76766350585706

> <r_i_glide_evdw>
-43.3890228271484

> <r_i_glide_ecoul>
-2.58372163772583

> <r_i_glide_erotb>
0.376647005348996

> <r_i_glide_esite>
0

> <r_i_glide_emodel>
-46.1464828976244

> <r_i_glide_energy>
-45.9727444648743

> <r_i_glide_einternal>
9.04279136657715

> <i_i_glide_confnum>
4

> <i_i_glide_posenum>
8

> <r_i_glide_eff_state_penalty>
0

> <s_user_duplicate_titles>
CHEMBL2061_lig394,96394

> <i_f3d_flags>
0

> <s_m_subgroup_title>
dock_pv

> <s_m_subgroupid>
dock_pv

> <b_m_subgroup_collapsed>
1

$$$$
CHEMBL2061_lig458
                    3D
 Schrodinger Suite 2021-1.
 62 65  0  0  1  0            999 V2000
   64.0929   46.6683   35.3725 C   0  0  0  0  0  0
   65.2085   45.6797   35.0347 C   0  0  0  0  0  0
   65.7209   45.7100   33.5688 C   0  0  0  0  0  0
   63.2705   46.9419   34.3152 N   0  0  0  0  0  0
   64.0071   47.1179   36.5197 O   0  0  0  0  0  0
   66.5692   46.9389   33.2325 C   0  0  0  0  0  0
   66.5832   44.4678   33.4160 C   0  0  0  0  0  0
   63.3516   46.3554   33.0094 C   0  0  0  0  0  0
   64.5384   45.7216   32.6017 C   0  0  0  0  0  0
   64.6347   45.2186   31.2960 C   0  0  0  0  0  0
   63.6173   45.3936   30.3648 C   0  0  0  0  0  0
   62.4541   46.0767   30.7415 C   0  0  0  0  0  0
   62.3177   46.4779   32.0676 C   0  0  0  0  0  0
   61.3528   46.3948   29.7985 C   0  0  0  0  0  0
   60.0824   45.8847   30.0672 C   0  0  0  0  0  0
   59.0183   46.0754   29.1953 C   0  0  0  0  0  0
   59.2373   46.8086   28.0435 C   0  0  0  0  0  0
   60.4746   47.3903   27.7775 C   0  0  0  0  0  0
   61.5500   47.1957   28.6591 C   0  0  0  0  0  0
   57.6777   45.3835   29.4072 C   0  0  1  0  0  0
   62.8073   47.7401   28.4660 O   0  0  0  0  0  0
   63.0511   48.5692   27.3382 C   0  0  0  0  0  0
   62.1262   47.8269   34.6374 C   0  0  0  0  0  0
   60.8261   47.0354   34.9202 C   0  0  0  0  0  0
   63.8329   44.8215   28.9721 C   0  0  0  0  0  0
   57.6173   44.0713   30.1309 C   0  0  0  0  0  0
   56.9773   45.2802   30.7652 C   0  0  2  0  0  0
   55.4407   45.2761   30.7689 C   0  0  0  0  0  0
   54.8581   44.7540   29.6515 O   0  0  0  0  0  0
   54.8080   45.6770   31.7335 O   0  0  0  0  0  0
   62.0153   49.0741   33.7392 C   0  0  0  0  0  0
   64.8132   44.6967   35.2957 H   0  0  0  0  0  0
   66.0084   45.8919   35.7326 H   0  0  0  0  0  0
   67.5289   46.9113   33.7388 H   0  0  0  0  0  0
   66.0671   47.8844   33.4392 H   0  0  0  0  0  0
   66.8064   46.8773   32.1709 H   0  0  0  0  0  0
   67.3730   44.4770   34.1687 H   0  0  0  0  0  0
   66.0081   43.5444   33.5165 H   0  0  0  0  0  0
   67.0799   44.4770   32.4509 H   0  0  0  0  0  0
   65.5389   44.7314   30.9665 H   0  0  0  0  0  0
   61.3801   46.9377   32.3242 H   0  0  0  0  0  0
   59.9377   45.2801   30.9392 H   0  0  0  0  0  0
   58.4329   46.8768   27.3391 H   0  0  0  0  0  0
   60.5866   47.9646   26.8710 H   0  0  0  0  0  0
   57.0267   45.4801   28.5375 H   0  0  0  0  0  0
   64.0835   48.9166   27.3622 H   0  0  0  0  0  0
   62.9078   48.0275   26.4024 H   0  0  0  0  0  0
   62.4073   49.4496   27.3442 H   0  0  0  0  0  0
   62.2951   48.2972   35.6087 H   0  0  0  0  0  0
   59.9543   47.6806   34.9391 H   0  0  0  0  0  0
   60.6252   46.2397   34.2043 H   0  0  0  0  0  0
   60.8780   46.5721   35.9055 H   0  0  0  0  0  0
   64.7246   45.2740   28.5380 H   0  0  0  0  0  0
   64.0080   43.7465   29.0397 H   0  0  0  0  0  0
   62.9974   44.9697   28.2902 H   0  0  0  0  0  0
   56.9972   43.2770   29.7388 H   0  0  0  0  0  0
   58.5172   43.6770   30.5893 H   0  0  0  0  0  0
   57.4425   45.7182   31.6494 H   0  0  0  0  0  0
   55.5090   44.4153   29.0331 H   0  0  0  0  0  0
   61.2084   49.6770   34.1390 H   0  0  0  0  0  0
   62.9202   49.6755   33.7915 H   0  0  0  0  0  0
   61.8062   48.9166   32.6848 H   0  0  0  0  0  0
  1  5  2  0  0  0
  1  2  1  0  0  0
  1  4  1  0  0  0
  2  3  1  0  0  0
  2 32  1  0  0  0
  2 33  1  0  0  0
  3  7  1  0  0  0
  3  9  1  0  0  0
  3  6  1  0  0  0
  4  8  1  0  0  0
  4 23  1  0  0  0
  6 34  1  0  0  0
  6 35  1  0  0  0
  6 36  1  0  0  0
  7 37  1  0  0  0
  7 38  1  0  0  0
  7 39  1  0  0  0
  8  9  2  0  0  0
  8 13  1  0  0  0
  9 10  1  0  0  0
 10 11  2  0  0  0
 10 40  1  0  0  0
 11 12  1  0  0  0
 11 25  1  0  0  0
 12 14  1  0  0  0
 12 13  2  0  0  0
 13 41  1  0  0  0
 14 19  1  0  0  0
 14 15  2  0  0  0
 15 16  1  0  0  0
 15 42  1  0  0  0
 16 17  2  0  0  0
 16 20  1  0  0  0
 17 18  1  0  0  0
 17 43  1  0  0  0
 18 19  2  0  0  0
 18 44  1  0  0  0
 19 21  1  0  0  0
 20 26  1  0  0  0
 20 27  1  0  0  0
 20 45  1  0  0  0
 21 22  1  0  0  0
 22 46  1  0  0  0
 22 47  1  0  0  0
 22 48  1  0  0  0
 23 24  1  0  0  0
 23 31  1  0  0  0
 23 49  1  0  0  0
 24 50  1  0  0  0
 24 51  1  0  0  0
 24 52  1  0  0  0
 25 53  1  0  0  0
 25 54  1  0  0  0
 25 55  1  0  0  0
 26 27  1  0  0  0
 26 56  1  0  0  0
 26 57  1  0  0  0
 27 28  1  0  0  0
 27 58  1  0  0  0
 28 29  1  0  0  0
 28 30  2  0  0  0
 29 59  1  0  0  0
 31 60  1  0  0  0
 31 61  1  0  0  0
 31 62  1  0  0  0
M  END
> <s_m_entry_id>
30876

> <s_m_entry_name>
dock_pv.89

> <s_m_Source_Path>
/home/csk/Desktop/cluster/DUD-E-result/rxra

> <s_m_Source_File>
dock_pv.maegz

> <i_m_Source_File_Index>
89

> <chembl_id>
CHEMBL246211

> <chembl_pref_name>
None

> <i_lp_mmshare_version>
53161

> <r_lp_tautomer_probability>
1

> <s_lp_Force_Field>
OPLS_2005

> <r_lp_Energy>
47.694821

> <b_lp_Chiralities_Consistent>
1

> <s_lp_Variant>
CHEMBL2061_lig458-4

> <s_i_glide_gridfile>
glide-grid_1mv9

> <i_i_glide_lignum>
540

> <i_i_glide_rotatable_bonds>
6

> <r_i_docking_score>
-11.1385204867091

> <r_i_glide_ligand_efficiency>
-0.359307112474488

> <r_i_glide_ligand_efficiency_sa>
-1.12872041010197

> <r_i_glide_ligand_efficiency_ln>
-2.51207772441069

> <r_i_glide_gscore>
-11.1385204867091

> <r_i_glide_lipo>
-6.26380675092345

> <r_i_glide_hbond>
-0.0774729134938031

> <r_i_glide_metal>
0

> <r_i_glide_rewards>
-2.42513048427518

> <r_i_glide_evdw>
-43.7695198059082

> <r_i_glide_ecoul>
-3.45313024520874

> <r_i_glide_erotb>
0.334335189060011

> <r_i_glide_esite>
0

> <r_i_glide_emodel>
-62.9222011557058

> <r_i_glide_energy>
-47.2226500511169

> <r_i_glide_einternal>
3.33664059638977

> <i_i_glide_confnum>
28

> <i_i_glide_posenum>
396

> <r_i_glide_eff_state_penalty>
0

> <s_user_duplicate_titles>
CHEMBL2061_lig458

> <i_f3d_flags>
0

> <s_m_subgroup_title>
dock_pv

> <s_m_subgroupid>
dock_pv

> <b_m_subgroup_collapsed>
1

$$$$
CHEMBL2061_lig449
                    3D
 Schrodinger Suite 2021-1.
 61 63  0  0  1  0            999 V2000
   63.9064   46.8062   35.4289 C   0  0  0  0  0  0
   64.8070   45.6019   35.1636 C   0  0  0  0  0  0
   65.3765   45.5250   33.7217 C   0  0  0  0  0  0
   63.1421   47.1555   34.3524 N   0  0  0  0  0  0
   63.8980   47.3400   36.5385 O   0  0  0  0  0  0
   66.0085   44.1284   33.6365 C   0  0  0  0  0  0
   66.4164   46.6379   33.4728 C   0  0  0  0  0  0
   63.1374   46.5172   33.0763 C   0  0  0  0  0  0
   64.2298   45.7057   32.7148 C   0  0  0  0  0  0
   64.2468   45.1166   31.4456 C   0  0  0  0  0  0
   63.2097   45.3032   30.5336 C   0  0  0  0  0  0
   62.1309   46.1379   30.8709 C   0  0  0  0  0  0
   62.1125   46.7325   32.1355 C   0  0  0  0  0  0
   60.9819   46.3477   29.9476 C   0  0  0  0  0  0
   59.7375   45.8032   30.2859 C   0  0  0  0  0  0
   58.6520   45.8270   29.4183 C   0  0  0  0  0  0
   58.8136   46.4754   28.1962 C   0  0  0  0  0  0
   60.0229   47.0769   27.8538 C   0  0  0  0  0  0
   61.1236   47.0132   28.7187 C   0  0  0  0  0  0
   57.3792   45.0768   29.8345 C   0  0  0  0  0  0
   56.1408   45.1170   28.8956 C   0  0  0  0  0  0
   55.0862   46.1426   29.2822 C   0  0  0  0  0  0
   55.2006   47.2772   28.5437 O   0  0  0  0  0  0
   54.2246   45.9439   30.1352 O   0  0  0  0  0  0
   62.3442   47.5900   28.4149 O   0  0  0  0  0  0
   62.7303   47.7150   27.0410 C   0  0  0  0  0  0
   62.1409   48.2006   34.6252 C   0  0  0  0  0  0
   63.2559   44.5297   29.2205 C   0  0  0  0  0  0
   64.2314   48.0350   26.9539 C   0  0  0  0  0  0
   64.7659   47.8813   25.7479 F   0  0  0  0  0  0
   64.5077   49.2766   27.3390 F   0  0  0  0  0  0
   64.8776   47.1957   27.7389 F   0  0  0  0  0  0
   60.8080   47.6557   35.1652 C   0  0  0  0  0  0
   65.6077   45.6355   35.8978 H   0  0  0  0  0  0
   64.2050   44.7226   35.3976 H   0  0  0  0  0  0
   66.6088   43.9436   34.5241 H   0  0  0  0  0  0
   65.2716   43.3284   33.5512 H   0  0  0  0  0  0
   66.6930   44.0799   32.7987 H   0  0  0  0  0  0
   67.2964   46.4767   34.0929 H   0  0  0  0  0  0
   66.7548   46.6346   32.4367 H   0  0  0  0  0  0
   66.0277   47.6370   33.6809 H   0  0  0  0  0  0
   65.0778   44.4894   31.1632 H   0  0  0  0  0  0
   61.2647   47.3555   32.3759 H   0  0  0  0  0  0
   59.6063   45.3191   31.2368 H   0  0  0  0  0  0
   58.0148   46.4773   27.4872 H   0  0  0  0  0  0
   60.0973   47.5860   26.9062 H   0  0  0  0  0  0
   57.1057   45.4133   30.8370 H   0  0  0  0  0  0
   57.6743   44.0323   29.9534 H   0  0  0  0  0  0
   55.6459   44.1467   28.9387 H   0  0  0  0  0  0
   56.3814   45.2767   27.8481 H   0  0  0  0  0  0
   54.5864   47.9558   28.8293 H   0  0  0  0  0  0
   62.5555   46.7650   26.5392 H   0  0  0  0  0  0
   62.1424   48.4760   26.5386 H   0  0  0  0  0  0
   62.5356   48.8769   35.3792 H   0  0  0  0  0  0
   62.0074   48.8283   33.7450 H   0  0  0  0  0  0
   64.0051   43.7366   29.2380 H   0  0  0  0  0  0
   62.2940   44.0500   29.0315 H   0  0  0  0  0  0
   63.4692   45.1879   28.3812 H   0  0  0  0  0  0
   60.1144   48.4760   35.3401 H   0  0  0  0  0  0
   60.3343   46.9547   34.4780 H   0  0  0  0  0  0
   60.9513   47.1480   36.1211 H   0  0  0  0  0  0
  1  5  2  0  0  0
  1  2  1  0  0  0
  1  4  1  0  0  0
  2  3  1  0  0  0
  2 34  1  0  0  0
  2 35  1  0  0  0
  3  9  1  0  0  0
  3  6  1  0  0  0
  3  7  1  0  0  0
  4  8  1  0  0  0
  4 27  1  0  0  0
  6 36  1  0  0  0
  6 37  1  0  0  0
  6 38  1  0  0  0
  7 39  1  0  0  0
  7 40  1  0  0  0
  7 41  1  0  0  0
  8  9  2  0  0  0
  8 13  1  0  0  0
  9 10  1  0  0  0
 10 11  2  0  0  0
 10 42  1  0  0  0
 11 12  1  0  0  0
 11 28  1  0  0  0
 12 14  1  0  0  0
 12 13  2  0  0  0
 13 43  1  0  0  0
 14 19  1  0  0  0
 14 15  2  0  0  0
 15 16  1  0  0  0
 15 44  1  0  0  0
 16 17  2  0  0  0
 16 20  1  0  0  0
 17 18  1  0  0  0
 17 45  1  0  0  0
 18 19  2  0  0  0
 18 46  1  0  0  0
 19 25  1  0  0  0
 20 21  1  0  0  0
 20 47  1  0  0  0
 20 48  1  0  0  0
 21 22  1  0  0  0
 21 49  1  0  0  0
 21 50  1  0  0  0
 22 23  1  0  0  0
 22 24  2  0  0  0
 23 51  1  0  0  0
 25 26  1  0  0  0
 26 29  1  0  0  0
 26 52  1  0  0  0
 26 53  1  0  0  0
 27 33  1  0  0  0
 27 54  1  0  0  0
 27 55  1  0  0  0
 28 56  1  0  0  0
 28 57  1  0  0  0
 28 58  1  0  0  0
 29 30  1  0  0  0
 29 31  1  0  0  0
 29 32  1  0  0  0
 33 59  1  0  0  0
 33 60  1  0  0  0
 33 61  1  0  0  0
M  END
> <s_m_entry_id>
30877

> <s_m_entry_name>
dock_pv.90

> <s_m_Source_Path>
/home/csk/Desktop/cluster/DUD-E-result/rxra

> <s_m_Source_File>
dock_pv.maegz

> <i_m_Source_File_Index>
90

> <chembl_id>
CHEMBL400894

> <chembl_pref_name>
None

> <i_lp_mmshare_version>
53161

> <r_lp_tautomer_probability>
1

> <s_lp_Force_Field>
OPLS_2005

> <r_lp_Energy>
38.186092

> <b_lp_Chiralities_Consistent>
1

> <s_lp_Variant>
CHEMBL2061_lig449-1

> <s_i_glide_gridfile>
glide-grid_1mv9

> <i_i_glide_lignum>
525

> <i_i_glide_rotatable_bonds>
9

> <r_i_docking_score>
-11.138178286409

> <r_i_glide_ligand_efficiency>
-0.337520554133605

> <r_i_glide_ligand_efficiency_sa>
-1.08260876320097

> <r_i_glide_ligand_efficiency_ln>
-2.47707318049664

> <r_i_glide_gscore>
-11.138178286409

> <r_i_glide_lipo>
-6.31635167855941

> <r_i_glide_hbond>
-0.16

> <r_i_glide_metal>
0

> <r_i_glide_rewards>
-2.38566446334053

> <r_i_glide_evdw>
-46.8523216247559

> <r_i_glide_ecoul>
-3.30930042266846

> <r_i_glide_erotb>
0.562849000129044

> <r_i_glide_esite>
0

> <r_i_glide_emodel>
-79.8373727893916

> <r_i_glide_energy>
-50.1616220474243

> <r_i_glide_einternal>
7.67133235931396

> <i_i_glide_confnum>
53

> <i_i_glide_posenum>
374

> <r_i_glide_eff_state_penalty>
0

> <s_user_duplicate_titles>
CHEMBL2061_lig449,414663

> <i_f3d_flags>
0

> <s_m_subgroup_title>
dock_pv

> <s_m_subgroupid>
dock_pv

> <b_m_subgroup_collapsed>
1

$$$$
CHEMBL2061_lig391
                    3D
 Schrodinger Suite 2021-1.
 60 64  0  0  1  0            999 V2000
   55.0755   45.5809   28.9190 N   0  0  0  0  0  0
   61.3942   46.8018   29.3935 C   0  0  0  0  0  0
   56.8996   45.6184   30.2364 C   0  0  0  0  0  0
   54.4733   45.2106   30.0204 C   0  0  0  0  0  0
   56.3696   45.7981   28.9168 C   0  0  0  0  0  0
   60.5581   47.1224   28.3568 C   0  0  0  0  0  0
   59.3580   46.0771   29.8528 C   0  0  0  0  0  0
   55.6087   45.2770   31.3391 S   0  0  0  0  0  0
   63.6546   46.4777   33.0217 C   0  0  0  0  0  0
   58.1859   45.7011   30.5857 C   0  0  0  0  0  0
   59.3069   46.6982   28.6399 O   0  0  0  0  0  0
   64.8512   45.7293   32.8756 C   0  0  0  0  0  0
   60.6456   46.0576   30.2861 C   0  0  0  0  0  0
   62.8078   47.2774   29.4143 C   0  0  1  0  0  0
   63.0755   46.9598   31.8568 C   0  0  0  0  0  0
   63.5697   46.6820   30.5829 C   0  0  0  0  0  0
   63.0138   46.8444   34.3925 C   0  0  0  0  0  0
   65.5694   45.1474   34.0871 C   0  0  0  0  0  0
   65.3539   45.4627   31.5883 C   0  0  0  0  0  0
   53.3268   44.8771   30.1391 O   0  0  0  0  0  0
   56.9439   46.0769   27.8954 O   0  0  0  0  0  0
   64.7192   45.9203   30.4449 C   0  0  0  0  0  0
   63.6350   45.9953   35.5272 C   0  0  0  0  0  0
   65.1417   45.8787   35.3630 C   0  0  0  0  0  0
   60.9409   47.8296   27.0724 C   0  0  0  0  0  0
   63.3428   47.1507   27.9690 C   0  0  0  0  0  0
   63.3076   48.3332   34.6792 C   0  0  0  0  0  0
   61.4905   46.5619   34.4031 C   0  0  0  0  0  0
   65.1781   43.6769   34.1633 C   0  0  0  0  0  0
   67.0864   45.3567   33.9916 C   0  0  0  0  0  0
   62.4891   48.0765   27.0553 C   0  0  0  0  0  0
   54.5724   45.6205   28.0478 H   0  0  0  0  0  0
   58.4153   45.4740   31.6174 H   0  0  0  0  0  0
   60.9789   45.6680   31.2335 H   0  0  0  0  0  0
   62.8034   48.3460   29.6396 H   0  0  0  0  0  0
   62.2082   47.5979   31.9416 H   0  0  0  0  0  0
   66.2525   44.8786   31.4638 H   0  0  0  0  0  0
   65.1318   45.6930   29.4726 H   0  0  0  0  0  0
   63.2061   44.9946   35.5584 H   0  0  0  0  0  0
   63.4198   46.4299   36.5039 H   0  0  0  0  0  0
   65.5972   45.4156   36.2292 H   0  0  0  0  0  0
   65.5516   46.8768   35.3366 H   0  0  0  0  0  0
   60.6682   47.2261   26.2126 H   0  0  0  0  0  0
   60.4110   48.7795   26.9826 H   0  0  0  0  0  0
   63.2975   46.1155   27.6243 H   0  0  0  0  0  0
   64.3908   47.4516   27.9199 H   0  0  0  0  0  0
   62.9915   48.6262   35.6808 H   0  0  0  0  0  0
   64.3682   48.5577   34.5875 H   0  0  0  0  0  0
   62.7877   48.9831   33.9745 H   0  0  0  0  0  0
   61.0640   46.7414   35.3907 H   0  0  0  0  0  0
   60.9469   47.2095   33.7157 H   0  0  0  0  0  0
   61.2603   45.5320   34.1384 H   0  0  0  0  0  0
   65.6062   43.2771   35.0669 H   0  0  0  0  0  0
   64.1014   43.5067   34.1836 H   0  0  0  0  0  0
   65.5869   43.0947   33.3387 H   0  0  0  0  0  0
   67.6024   45.2367   34.9392 H   0  0  0  0  0  0
   67.5291   44.6180   33.3391 H   0  0  0  0  0  0
   67.3348   46.3488   33.6124 H   0  0  0  0  0  0
   62.8661   48.0521   26.0350 H   0  0  0  0  0  0
   62.6632   49.1061   27.3748 H   0  0  0  0  0  0
  1  4  1  0  0  0
  1  5  1  0  0  0
  1 32  1  0  0  0
  2 13  1  0  0  0
  2 14  1  0  0  0
  2  6  2  0  0  0
  3  5  1  0  0  0
  3 10  2  0  0  0
  3  8  1  0  0  0
  4  8  1  0  0  0
  4 20  2  0  0  0
  5 21  2  0  0  0
  6 11  1  0  0  0
  6 25  1  0  0  0
  7 10  1  0  0  0
  7 11  1  0  0  0
  7 13  2  0  0  0
  9 15  2  0  0  0
  9 17  1  0  0  0
  9 12  1  0  0  0
 10 33  1  0  0  0
 12 19  2  0  0  0
 12 18  1  0  0  0
 13 34  1  0  0  0
 14 16  1  0  0  0
 14 26  1  0  0  0
 14 35  1  0  0  0
 15 16  1  0  0  0
 15 36  1  0  0  0
 16 22  2  0  0  0
 17 23  1  0  0  0
 17 27  1  0  0  0
 17 28  1  0  0  0
 18 24  1  0  0  0
 18 29  1  0  0  0
 18 30  1  0  0  0
 19 22  1  0  0  0
 19 37  1  0  0  0
 22 38  1  0  0  0
 23 24  1  0  0  0
 23 39  1  0  0  0
 23 40  1  0  0  0
 24 41  1  0  0  0
 24 42  1  0  0  0
 25 31  1  0  0  0
 25 43  1  0  0  0
 25 44  1  0  0  0
 26 31  1  0  0  0
 26 45  1  0  0  0
 26 46  1  0  0  0
 27 47  1  0  0  0
 27 48  1  0  0  0
 27 49  1  0  0  0
 28 50  1  0  0  0
 28 51  1  0  0  0
 28 52  1  0  0  0
 29 53  1  0  0  0
 29 54  1  0  0  0
 29 55  1  0  0  0
 30 56  1  0  0  0
 30 57  1  0  0  0
 30 58  1  0  0  0
 31 59  1  0  0  0
 31 60  1  0  0  0
M  END
> <s_m_entry_id>
30878

> <s_m_entry_name>
dock_pv.91

> <s_m_Source_Path>
/home/csk/Desktop/cluster/DUD-E-result/rxra

> <s_m_Source_File>
dock_pv.maegz

> <i_m_Source_File_Index>
91

> <chembl_id>
CHEMBL305115

> <chembl_pref_name>
None

> <i_lp_mmshare_version>
53161

> <r_lp_tautomer_probability>
1

> <s_lp_Force_Field>
OPLS_2005

> <r_lp_Energy>
27.973267

> <b_lp_Chiralities_Consistent>
1

> <s_lp_Variant>
CHEMBL2061_lig391-2

> <s_i_glide_gridfile>
glide-grid_1mv9

> <i_i_glide_lignum>
453

> <i_i_glide_rotatable_bonds>
2

> <r_i_docking_score>
-11.1342301407604

> <r_i_glide_ligand_efficiency>
-0.359168714218077

> <r_i_glide_ligand_efficiency_sa>
-1.12828564849746

> <r_i_glide_ligand_efficiency_ln>
-2.51111011991593

> <r_i_glide_gscore>
-11.1342301407604

> <r_i_glide_lipo>
-7.05241199172863

> <r_i_glide_hbond>
-0.315597585427973

> <r_i_glide_metal>
0

> <r_i_glide_rewards>
-2.0405165107844

> <r_i_glide_evdw>
-31.411470413208

> <r_i_glide_ecoul>
-2.38156795501709

> <r_i_glide_erotb>
0.210041424797674

> <r_i_glide_esite>
-0.00793676370410416

> <r_i_glide_emodel>
-80.8774715121743

> <r_i_glide_energy>
-33.7930383682251

> <r_i_glide_einternal>
3.71752023696899

> <i_i_glide_confnum>
12

> <i_i_glide_posenum>
312

> <r_i_glide_eff_state_penalty>
0

> <s_user_duplicate_titles>
CHEMBL2061_lig391

> <i_f3d_flags>
0

> <s_m_subgroup_title>
dock_pv

> <s_m_subgroupid>
dock_pv

> <b_m_subgroup_collapsed>
1

$$$$
CHEMBL2061_lig394
                    3D
 Schrodinger Suite 2021-1.
 58 61  0  0  1  0            999 V2000
   61.3511   45.9779   28.9356 C   0  0  0  0  0  0
   60.8743   47.1157   28.3016 C   0  0  0  0  0  0
   63.2100   46.3044   32.7355 C   0  0  0  0  0  0
   59.2078   47.2804   28.5391 S   0  0  0  0  0  0
   64.4442   45.6474   32.9751 C   0  0  0  0  0  0
   59.0650   45.8348   29.4567 C   0  0  0  0  0  0
   60.3306   45.2788   29.6148 C   0  0  0  0  0  0
   62.8372   45.6460   28.9608 C   0  0  2  0  0  0
   62.7664   46.3696   31.4117 C   0  0  0  0  0  0
   63.4286   45.7252   30.3610 C   0  0  0  0  0  0
   62.3483   46.9411   33.8613 C   0  0  0  0  0  0
   65.0025   45.4728   34.3893 C   0  0  0  0  0  0
   57.7673   45.3557   29.9345 C   0  0  0  0  0  0
   65.1338   45.0659   31.8979 C   0  0  0  0  0  0
   55.2580   45.4991   30.0719 C   0  0  0  0  0  0
   56.5658   45.9028   29.6106 C   0  0  0  0  0  0
   64.6368   45.0940   30.6097 C   0  0  0  0  0  0
   62.8775   46.5773   35.2719 C   0  0  0  0  0  0
   64.4063   46.5479   35.3344 C   0  0  0  0  0  0
   54.2223   46.0736   29.7394 O   0  0  0  0  0  0
   61.6729   48.0881   27.4615 C   0  0  0  0  0  0
   55.2722   44.4553   30.9390 O   0  0  0  0  0  0
   63.6064   46.5374   27.9471 C   0  0  0  0  0  0
   62.4079   48.4693   33.7423 C   0  0  0  0  0  0
   60.8832   46.4371   33.7852 C   0  0  0  0  0  0
   64.5502   44.0773   34.8693 C   0  0  0  0  0  0
   66.5371   45.6765   34.3617 C   0  0  0  0  0  0
   63.1327   47.9977   27.9068 C   0  0  0  0  0  0
   60.5116   44.3579   30.1389 H   0  0  0  0  0  0
   62.9541   44.6003   28.6689 H   0  0  0  0  0  0
   61.8524   46.9055   31.2155 H   0  0  0  0  0  0
   57.8464   44.5052   30.5959 H   0  0  0  0  0  0
   66.0578   44.5346   32.0596 H   0  0  0  0  0  0
   56.5159   46.7468   28.9389 H   0  0  0  0  0  0
   65.1768   44.5991   29.8157 H   0  0  0  0  0  0
   62.4973   45.6073   35.5881 H   0  0  0  0  0  0
   62.4932   47.2725   36.0212 H   0  0  0  0  0  0
   64.7091   46.3642   36.3663 H   0  0  0  0  0  0
   64.8073   47.5308   35.0824 H   0  0  0  0  0  0
   61.5784   47.8371   26.4060 H   0  0  0  0  0  0
   61.3054   49.1095   27.5692 H   0  0  0  0  0  0
   56.1620   44.1358   31.0874 H   0  0  0  0  0  0
   63.4558   46.1274   26.9489 H   0  0  0  0  0  0
   64.6810   46.4958   28.1356 H   0  0  0  0  0  0
   61.6981   48.8788   34.4597 H   0  0  0  0  0  0
   63.3896   48.8802   33.9708 H   0  0  0  0  0  0
   62.1111   48.8222   32.7541 H   0  0  0  0  0  0
   60.2738   46.8763   34.5759 H   0  0  0  0  0  0
   60.4003   46.7017   32.8457 H   0  0  0  0  0  0
   60.8082   45.3567   33.8952 H   0  0  0  0  0  0
   64.3822   44.0775   35.9397 H   0  0  0  0  0  0
   63.6080   43.7597   34.4207 H   0  0  0  0  0  0
   65.2843   43.3077   34.6304 H   0  0  0  0  0  0
   66.9351   45.9099   35.3390 H   0  0  0  0  0  0
   67.0717   44.7956   34.0080 H   0  0  0  0  0  0
   66.8212   46.5134   33.7211 H   0  0  0  0  0  0
   63.7675   48.5903   27.2465 H   0  0  0  0  0  0
   63.2079   48.4388   28.8994 H   0  0  0  0  0  0
  1  2  2  0  0  0
  1  7  1  0  0  0
  1  8  1  0  0  0
  2  4  1  0  0  0
  2 21  1  0  0  0
  3  9  2  0  0  0
  3 11  1  0  0  0
  3  5  1  0  0  0
  4  6  1  0  0  0
  5 14  2  0  0  0
  5 12  1  0  0  0
  6  7  2  0  0  0
  6 13  1  0  0  0
  7 29  1  0  0  0
  8 10  1  0  0  0
  8 23  1  0  0  0
  8 30  1  0  0  0
  9 10  1  0  0  0
  9 31  1  0  0  0
 10 17  2  0  0  0
 11 18  1  0  0  0
 11 24  1  0  0  0
 11 25  1  0  0  0
 12 19  1  0  0  0
 12 26  1  0  0  0
 12 27  1  0  0  0
 13 16  2  0  0  0
 13 32  1  0  0  0
 14 17  1  0  0  0
 14 33  1  0  0  0
 15 16  1  0  0  0
 15 20  2  0  0  0
 15 22  1  0  0  0
 16 34  1  0  0  0
 17 35  1  0  0  0
 18 19  1  0  0  0
 18 36  1  0  0  0
 18 37  1  0  0  0
 19 38  1  0  0  0
 19 39  1  0  0  0
 21 28  1  0  0  0
 21 40  1  0  0  0
 21 41  1  0  0  0
 22 42  1  0  0  0
 23 28  1  0  0  0
 23 43  1  0  0  0
 23 44  1  0  0  0
 24 45  1  0  0  0
 24 46  1  0  0  0
 24 47  1  0  0  0
 25 48  1  0  0  0
 25 49  1  0  0  0
 25 50  1  0  0  0
 26 51  1  0  0  0
 26 52  1  0  0  0
 26 53  1  0  0  0
 27 54  1  0  0  0
 27 55  1  0  0  0
 27 56  1  0  0  0
 28 57  1  0  0  0
 28 58  1  0  0  0
M  END
> <s_m_entry_id>
30879

> <s_m_entry_name>
dock_pv.92

> <s_m_Source_Path>
/home/csk/Desktop/cluster/DUD-E-result/rxra

> <s_m_Source_File>
dock_pv.maegz

> <i_m_Source_File_Index>
92

> <chembl_id>
CHEMBL62537

> <chembl_pref_name>
None

> <i_lp_mmshare_version>
53161

> <r_lp_tautomer_probability>
1

> <s_lp_Force_Field>
OPLS_2005

> <r_lp_Energy>
22.05415

> <b_lp_Chiralities_Consistent>
1

> <s_lp_Variant>
CHEMBL2061_lig394-1

> <s_i_glide_gridfile>
glide-grid_1mv9

> <i_i_glide_lignum>
458

> <i_i_glide_rotatable_bonds>
4

> <r_i_docking_score>
-11.1309200139542

> <r_i_glide_ligand_efficiency>
-0.39753285764122

> <r_i_glide_ligand_efficiency_sa>
-1.20714389013073

> <r_i_glide_ligand_efficiency_ln>
-2.56934315723336

> <r_i_glide_gscore>
-11.1309200139542

> <r_i_glide_lipo>
-6.81668708077451

> <r_i_glide_hbond>
-0.0910625894328195

> <r_i_glide_metal>
0

> <r_i_glide_rewards>
-1.84700639404823

> <r_i_glide_evdw>
-44.9293251037598

> <r_i_glide_ecoul>
-3.37563133239746

> <r_i_glide_erotb>
0.376647005348996

> <r_i_glide_esite>
0

> <r_i_glide_emodel>
-69.365601943249

> <r_i_glide_energy>
-48.3049564361572

> <r_i_glide_einternal>
1.39742505550385

> <i_i_glide_confnum>
39

> <i_i_glide_posenum>
322

> <r_i_glide_eff_state_penalty>
0

> <s_user_duplicate_titles>
CHEMBL2061_lig394

> <i_f3d_flags>
0

> <s_m_subgroup_title>
dock_pv

> <s_m_subgroupid>
dock_pv

> <b_m_subgroup_collapsed>
1

$$$$
CHEMBL2061_lig453
                    3D
 Schrodinger Suite 2021-1.
 62 65  0  0  1  0            999 V2000
   64.0307   47.3648   35.0630 C   0  0  0  0  0  0
   65.3145   46.6026   34.6971 C   0  0  0  0  0  0
   65.0865   45.2541   33.9634 C   0  0  0  0  0  0
   63.0184   47.1619   34.1717 N   0  0  0  0  0  0
   64.0079   48.0928   36.0517 O   0  0  0  0  0  0
   66.4799   44.7154   33.6018 C   0  0  0  0  0  0
   64.2834   44.2595   34.8228 C   0  0  0  0  0  0
   63.1844   46.4835   32.9254 C   0  0  0  0  0  0
   64.2273   45.5554   32.7440 C   0  0  0  0  0  0
   64.3772   44.9143   31.5051 C   0  0  0  0  0  0
   63.4797   45.1429   30.4630 C   0  0  0  0  0  0
   62.4068   46.0153   30.6792 C   0  0  0  0  0  0
   62.2815   46.6653   31.8836 C   0  0  0  0  0  0
   61.3291   46.2880   29.7277 C   0  0  0  0  0  0
   60.0570   45.8033   30.0162 C   0  0  0  0  0  0
   58.9998   46.0048   29.1444 C   0  0  0  0  0  0
   59.2269   46.7585   28.0064 C   0  0  0  0  0  0
   60.4708   47.3356   27.7420 C   0  0  0  0  0  0
   61.5359   47.1062   28.6216 C   0  0  0  0  0  0
   57.6481   45.3498   29.3866 C   0  0  1  0  0  0
   62.7827   47.6779   28.4872 O   0  0  0  0  0  0
   63.4047   47.5577   27.2259 C   0  0  0  0  0  0
   64.7167   47.7465   27.3415 F   0  0  0  0  0  0
   63.2081   46.3444   26.7253 F   0  0  0  0  0  0
   62.9256   48.4769   26.4128 F   0  0  0  0  0  0
   61.8069   48.0094   34.3143 C   0  0  0  0  0  0
   62.0080   49.3462   33.5334 C   0  0  0  0  0  0
   63.6499   44.3775   29.1618 C   0  0  0  0  0  0
   57.5461   44.0222   30.0897 C   0  0  0  0  0  0
   57.0472   45.2584   30.7793 C   0  0  2  0  0  0
   55.5296   45.3315   30.8759 C   0  0  0  0  0  0
   55.2076   45.6770   32.1391 O   0  0  0  0  0  0
   54.7234   45.0756   29.9832 O   0  0  0  0  0  0
   61.1938   48.1569   35.7294 C   0  0  0  0  0  0
   65.8599   46.4625   35.6202 H   0  0  0  0  0  0
   65.9101   47.2832   34.0853 H   0  0  0  0  0  0
   67.1729   44.7749   34.4424 H   0  0  0  0  0  0
   66.9204   45.2637   32.7701 H   0  0  0  0  0  0
   66.4079   43.6654   33.3391 H   0  0  0  0  0  0
   64.8083   44.0794   35.7390 H   0  0  0  0  0  0
   63.2991   44.6340   35.0989 H   0  0  0  0  0  0
   64.1475   43.3007   34.3213 H   0  0  0  0  0  0
   65.1730   44.1993   31.3592 H   0  0  0  0  0  0
   61.4221   47.3084   31.9603 H   0  0  0  0  0  0
   59.8941   45.2770   30.9381 H   0  0  0  0  0  0
   58.4080   46.8769   27.3391 H   0  0  0  0  0  0
   60.5937   47.9564   26.8678 H   0  0  0  0  0  0
   56.9530   45.4917   28.5548 H   0  0  0  0  0  0
   61.0022   47.4458   33.8477 H   0  0  0  0  0  0
   61.2198   50.0771   33.7387 H   0  0  0  0  0  0
   62.9629   49.8236   33.7399 H   0  0  0  0  0  0
   61.9881   49.2294   32.4533 H   0  0  0  0  0  0
   63.9977   43.3607   29.3570 H   0  0  0  0  0  0
   62.7170   44.2838   28.6070 H   0  0  0  0  0  0
   64.3911   44.8759   28.5393 H   0  0  0  0  0  0
   56.8368   43.2782   29.7388 H   0  0  0  0  0  0
   58.4092   43.5576   30.5423 H   0  0  0  0  0  0
   57.6132   45.6537   31.6244 H   0  0  0  0  0  0
   55.9893   45.8445   32.6710 H   0  0  0  0  0  0
   60.1622   48.4956   35.6699 H   0  0  0  0  0  0
   61.1908   47.2014   36.2532 H   0  0  0  0  0  0
   61.7182   48.8768   36.3545 H   0  0  0  0  0  0
  1  5  2  0  0  0
  1  2  1  0  0  0
  1  4  1  0  0  0
  2  3  1  0  0  0
  2 35  1  0  0  0
  2 36  1  0  0  0
  3  9  1  0  0  0
  3  6  1  0  0  0
  3  7  1  0  0  0
  4  8  1  0  0  0
  4 26  1  0  0  0
  6 37  1  0  0  0
  6 38  1  0  0  0
  6 39  1  0  0  0
  7 40  1  0  0  0
  7 41  1  0  0  0
  7 42  1  0  0  0
  8  9  2  0  0  0
  8 13  1  0  0  0
  9 10  1  0  0  0
 10 11  2  0  0  0
 10 43  1  0  0  0
 11 12  1  0  0  0
 11 28  1  0  0  0
 12 14  1  0  0  0
 12 13  2  0  0  0
 13 44  1  0  0  0
 14 19  1  0  0  0
 14 15  2  0  0  0
 15 16  1  0  0  0
 15 45  1  0  0  0
 16 17  2  0  0  0
 16 20  1  0  0  0
 17 18  1  0  0  0
 17 46  1  0  0  0
 18 19  2  0  0  0
 18 47  1  0  0  0
 19 21  1  0  0  0
 20 29  1  0  0  0
 20 30  1  0  0  0
 20 48  1  0  0  0
 21 22  1  0  0  0
 22 23  1  0  0  0
 22 24  1  0  0  0
 22 25  1  0  0  0
 26 27  1  0  0  0
 26 34  1  0  0  0
 26 49  1  0  0  0
 27 50  1  0  0  0
 27 51  1  0  0  0
 27 52  1  0  0  0
 28 53  1  0  0  0
 28 54  1  0  0  0
 28 55  1  0  0  0
 29 30  1  0  0  0
 29 56  1  0  0  0
 29 57  1  0  0  0
 30 31  1  0  0  0
 30 58  1  0  0  0
 31 32  1  0  0  0
 31 33  2  0  0  0
 32 59  1  0  0  0
 34 60  1  0  0  0
 34 61  1  0  0  0
 34 62  1  0  0  0
M  END
> <s_m_entry_id>
30880

> <s_m_entry_name>
dock_pv.93

> <s_m_Source_Path>
/home/csk/Desktop/cluster/DUD-E-result/rxra

> <s_m_Source_File>
dock_pv.maegz

> <i_m_Source_File_Index>
93

> <chembl_id>
CHEMBL248414

> <chembl_pref_name>
None

> <i_lp_mmshare_version>
53161

> <r_lp_tautomer_probability>
1

> <s_lp_Force_Field>
OPLS_2005

> <r_lp_Energy>
44.794982

> <b_lp_Chiralities_Consistent>
1

> <s_lp_Variant>
CHEMBL2061_lig453-1

> <s_i_glide_gridfile>
glide-grid_1mv9

> <i_i_glide_lignum>
529

> <i_i_glide_rotatable_bonds>
7

> <r_i_docking_score>
-11.1156489179145

> <r_i_glide_ligand_efficiency>
-0.326930850526897

> <r_i_glide_ligand_efficiency_sa>
-1.05912904032366

> <r_i_glide_ligand_efficiency_ln>
-2.45575862935865

> <r_i_glide_gscore>
-11.1156489179145

> <r_i_glide_lipo>
-6.31552080399268

> <r_i_glide_hbond>
0

> <r_i_glide_metal>
0

> <r_i_glide_rewards>
-2.86704525681818

> <r_i_glide_evdw>
-37.3782844543457

> <r_i_glide_ecoul>
-2.81526637077332

> <r_i_glide_erotb>
0.358121321229635

> <r_i_glide_esite>
0

> <r_i_glide_emodel>
-37.9882339427922

> <r_i_glide_energy>
-40.193550825119

> <r_i_glide_einternal>
9.61455345153809

> <i_i_glide_confnum>
42

> <i_i_glide_posenum>
242

> <r_i_glide_eff_state_penalty>
0

> <s_user_duplicate_titles>
CHEMBL2061_lig453,CHEMBL2061_lig459,414673

> <i_f3d_flags>
0

> <s_m_subgroup_title>
dock_pv

> <s_m_subgroupid>
dock_pv

> <b_m_subgroup_collapsed>
1

$$$$
CHEMBL2061_lig409
                    3D
 Schrodinger Suite 2021-1.
 64 66  0  0  1  0            999 V2000
   63.9770   46.0354   33.0247 C   0  0  0  0  0  0
   63.0575   46.9050   33.6664 C   0  0  0  0  0  0
   63.9324   45.9435   31.6363 C   0  0  0  0  0  0
   63.0057   46.6272   30.8594 C   0  0  0  0  0  0
   65.0019   45.1634   33.7714 C   0  0  0  0  0  0
   61.6414   46.6485   28.5680 C   0  0  1  0  0  0
   60.3544   46.2214   29.3159 C   0  0  0  0  0  0
   63.0430   47.1180   35.1909 C   0  0  0  0  0  0
   62.9655   46.3571   29.3599 C   0  0  2  0  0  0
   62.2144   47.6771   32.8558 C   0  0  0  0  0  0
   56.6831   46.0387   28.9535 C   0  0  0  0  0  0
   55.3712   45.7059   29.4588 C   0  0  0  0  0  0
   59.0813   46.3147   28.8622 C   0  0  0  0  0  0
   57.8804   45.8665   29.5777 C   0  0  0  0  0  0
   62.1674   47.5424   31.4800 C   0  0  0  0  0  0
   65.1227   45.6185   35.2345 C   0  0  0  0  0  0
   63.7955   45.9614   35.9035 C   0  0  0  0  0  0
   54.3902   46.4384   29.3390 O   0  0  0  0  0  0
   55.3213   44.4771   30.0398 O   0  0  0  0  0  0
   61.8451   45.7214   27.3731 C   0  0  0  0  0  0
   63.3867   44.9015   29.0037 C   0  0  0  0  0  0
   64.5368   43.6875   33.7177 C   0  0  0  0  0  0
   66.4085   45.3476   33.1566 C   0  0  0  0  0  0
   61.5509   48.1136   28.0650 C   0  0  0  0  0  0
   63.7893   48.4317   35.4513 C   0  0  0  0  0  0
   61.5917   47.1747   35.7389 C   0  0  0  0  0  0
   62.3571   44.4255   28.0101 C   0  0  0  0  0  0
   58.0085   45.2769   30.9849 C   0  0  0  0  0  0
   64.6330   45.2817   31.1553 H   0  0  0  0  0  0
   60.5253   45.7798   30.2865 H   0  0  0  0  0  0
   63.7193   47.0086   28.9141 H   0  0  0  0  0  0
   61.6120   48.4481   33.2941 H   0  0  0  0  0  0
   56.6336   46.4769   27.9698 H   0  0  0  0  0  0
   58.9472   46.7484   27.8812 H   0  0  0  0  0  0
   61.4790   48.1528   30.9193 H   0  0  0  0  0  0
   65.7874   46.4770   35.3192 H   0  0  0  0  0  0
   65.6075   44.8282   35.7843 H   0  0  0  0  0  0
   64.0075   46.2204   36.9414 H   0  0  0  0  0  0
   63.1818   45.0610   35.9388 H   0  0  0  0  0  0
   56.1798   44.0535   29.9821 H   0  0  0  0  0  0
   60.9279   45.6685   26.7883 H   0  0  0  0  0  0
   62.6213   46.1099   26.7085 H   0  0  0  0  0  0
   64.3710   44.8812   28.5391 H   0  0  0  0  0  0
   63.3358   44.1879   29.8289 H   0  0  0  0  0  0
   65.2898   43.0248   34.1390 H   0  0  0  0  0  0
   63.6081   43.5223   34.2605 H   0  0  0  0  0  0
   64.3783   43.3519   32.6933 H   0  0  0  0  0  0
   67.1760   44.8755   33.7713 H   0  0  0  0  0  0
   66.4968   44.8944   32.1691 H   0  0  0  0  0  0
   66.6734   46.4019   33.0585 H   0  0  0  0  0  0
   62.3767   48.3482   27.3915 H   0  0  0  0  0  0
   60.6360   48.3002   27.5032 H   0  0  0  0  0  0
   61.6079   48.8601   28.8605 H   0  0  0  0  0  0
   63.9890   48.5926   36.5105 H   0  0  0  0  0  0
   64.7420   48.4532   34.9240 H   0  0  0  0  0  0
   63.2114   49.2770   35.0867 H   0  0  0  0  0  0
   61.5626   47.6758   36.7074 H   0  0  0  0  0  0
   60.9017   47.7496   35.1284 H   0  0  0  0  0  0
   61.1524   46.1827   35.8488 H   0  0  0  0  0  0
   62.7219   43.6629   27.3390 H   0  0  0  0  0  0
   61.5924   43.9132   28.5783 H   0  0  0  0  0  0
   58.7151   45.8700   31.5651 H   0  0  0  0  0  0
   57.0952   45.3127   31.5754 H   0  0  0  0  0  0
   58.4077   44.2631   30.9421 H   0  0  0  0  0  0
  1  2  2  0  0  0
  1  3  1  0  0  0
  1  5  1  0  0  0
  2  8  1  0  0  0
  2 10  1  0  0  0
  3  4  2  0  0  0
  3 29  1  0  0  0
  4  9  1  0  0  0
  4 15  1  0  0  0
  5 16  1  0  0  0
  5 22  1  0  0  0
  5 23  1  0  0  0
  6  9  1  0  0  0
  6  7  1  0  0  0
  6 20  1  0  0  0
  6 24  1  0  0  0
  7 13  2  0  0  0
  7 30  1  0  0  0
  8 25  1  0  0  0
  8 26  1  0  0  0
  8 17  1  0  0  0
  9 21  1  0  0  0
  9 31  1  0  0  0
 10 15  2  0  0  0
 10 32  1  0  0  0
 11 14  2  0  0  0
 11 12  1  0  0  0
 11 33  1  0  0  0
 12 18  2  0  0  0
 12 19  1  0  0  0
 13 14  1  0  0  0
 13 34  1  0  0  0
 14 28  1  0  0  0
 15 35  1  0  0  0
 16 17  1  0  0  0
 16 36  1  0  0  0
 16 37  1  0  0  0
 17 38  1  0  0  0
 17 39  1  0  0  0
 19 40  1  0  0  0
 20 27  1  0  0  0
 20 41  1  0  0  0
 20 42  1  0  0  0
 21 27  1  0  0  0
 21 43  1  0  0  0
 21 44  1  0  0  0
 22 45  1  0  0  0
 22 46  1  0  0  0
 22 47  1  0  0  0
 23 48  1  0  0  0
 23 49  1  0  0  0
 23 50  1  0  0  0
 24 51  1  0  0  0
 24 52  1  0  0  0
 24 53  1  0  0  0
 25 54  1  0  0  0
 25 55  1  0  0  0
 25 56  1  0  0  0
 26 57  1  0  0  0
 26 58  1  0  0  0
 26 59  1  0  0  0
 27 60  1  0  0  0
 27 61  1  0  0  0
 28 62  1  0  0  0
 28 63  1  0  0  0
 28 64  1  0  0  0
M  END
> <s_m_entry_id>
30882

> <s_m_entry_name>
dock_pv.95

> <s_m_Source_Path>
/home/csk/Desktop/cluster/DUD-E-result/rxra

> <s_m_Source_File>
dock_pv.maegz

> <i_m_Source_File_Index>
95

> <chembl_id>
CHEMBL75814

> <chembl_pref_name>
None

> <i_lp_mmshare_version>
53161

> <r_lp_tautomer_probability>
1

> <s_lp_Force_Field>
OPLS_2005

> <r_lp_Energy>
43.444654

> <b_lp_Chiralities_Consistent>
1

> <s_lp_Variant>
CHEMBL2061_lig409-1

> <s_i_glide_gridfile>
glide-grid_1mv9

> <i_i_glide_lignum>
480

> <i_i_glide_rotatable_bonds>
5

> <r_i_docking_score>
-11.1142152386867

> <r_i_glide_ligand_efficiency>
-0.396936258524527

> <r_i_glide_ligand_efficiency_sa>
-1.20533226383436

> <r_i_glide_ligand_efficiency_ln>
-2.56548720462813

> <r_i_glide_gscore>
-11.1142152386867

> <r_i_glide_lipo>
-6.9612461563342

> <r_i_glide_hbond>
0

> <r_i_glide_metal>
0

> <r_i_glide_rewards>
-1.98737917188312

> <r_i_glide_evdw>
-48.7664489746094

> <r_i_glide_ecoul>
-1.75416803359985

> <r_i_glide_erotb>
0.535857743301027

> <r_i_glide_esite>
0

> <r_i_glide_emodel>
-69.871891841133

> <r_i_glide_energy>
-50.5206170082092

> <r_i_glide_einternal>
3.76581120491028

> <i_i_glide_confnum>
242

> <i_i_glide_posenum>
167

> <r_i_glide_eff_state_penalty>
0

> <s_user_duplicate_titles>
CHEMBL2061_lig409,125224

> <i_f3d_flags>
0

> <s_m_subgroup_title>
dock_pv

> <s_m_subgroupid>
dock_pv

> <b_m_subgroup_collapsed>
1

$$$$
CHEMBL2061_lig33
                    3D
 Schrodinger Suite 2021-1.
 56 59  0  0  1  0            999 V2000
   62.6262   48.7074   34.2314 C   0  0  0  0  0  0
   62.6226   47.1849   34.4331 C   0  0  0  0  0  0
   61.3826   46.7204   35.2327 C   0  0  0  0  0  0
   64.9558   43.5885   33.6642 C   0  0  0  0  0  0
   64.8136   45.1324   33.6784 C   0  0  0  0  0  0
   66.1379   45.8523   33.3197 C   0  0  0  0  0  0
   64.3970   45.4674   35.1334 C   0  0  0  0  0  0
   63.9032   46.8978   35.2694 C   0  0  0  0  0  0
   63.7176   45.5899   32.6819 C   0  0  0  0  0  0
   62.6660   46.4770   33.0439 C   0  0  0  0  0  0
   61.6297   46.6843   32.1063 C   0  0  0  0  0  0
   61.6187   46.0821   30.8398 C   0  0  0  0  0  0
   62.7117   45.2847   30.4619 C   0  0  0  0  0  0
   63.7429   45.0835   31.3726 C   0  0  0  0  0  0
   60.5209   46.2791   29.9567 N   0  0  0  0  0  0
   59.4613   46.8768   28.0544 N   0  0  0  0  0  0
   60.5809   46.9188   28.7246 C   0  0  0  0  0  0
   58.5651   46.2899   28.8974 C   0  0  0  0  0  0
   59.1764   45.9271   30.1240 C   0  0  0  0  0  0
   58.4080   45.3650   31.1575 C   0  0  0  0  0  0
   57.0367   45.2354   30.9390 C   0  0  0  0  0  0
   56.4132   45.6176   29.7551 C   0  0  0  0  0  0
   57.1914   46.0770   28.6886 C   0  0  0  0  0  0
   54.9084   45.5869   29.6770 C   0  0  0  0  0  0
   54.3739   46.6020   28.9388 O   0  0  0  0  0  0
   54.2210   44.7802   30.3037 O   0  0  0  0  0  0
   61.8005   47.6509   28.1949 C   0  0  0  0  0  0
   62.7838   44.5153   29.1445 C   0  0  0  0  0  0
   63.1437   49.2337   35.0387 H   0  0  0  0  0  0
   63.1681   48.9589   33.3390 H   0  0  0  0  0  0
   61.6205   49.1128   34.1381 H   0  0  0  0  0  0
   61.2743   47.2925   36.1541 H   0  0  0  0  0  0
   60.4578   46.8556   34.6711 H   0  0  0  0  0  0
   61.4419   45.6770   35.5162 H   0  0  0  0  0  0
   65.7478   43.2767   34.3448 H   0  0  0  0  0  0
   64.0359   43.0876   33.9712 H   0  0  0  0  0  0
   65.2080   43.1904   32.6858 H   0  0  0  0  0  0
   66.9188   45.6469   34.0536 H   0  0  0  0  0  0
   66.5146   45.5181   32.3525 H   0  0  0  0  0  0
   66.0217   46.9345   33.2550 H   0  0  0  0  0  0
   65.2277   45.2999   35.8186 H   0  0  0  0  0  0
   63.6072   44.7984   35.4768 H   0  0  0  0  0  0
   64.7202   47.5556   34.9680 H   0  0  0  0  0  0
   63.7360   47.1335   36.3222 H   0  0  0  0  0  0
   60.8073   47.3231   32.3811 H   0  0  0  0  0  0
   64.5605   44.4479   31.0684 H   0  0  0  0  0  0
   58.8080   45.1265   32.1279 H   0  0  0  0  0  0
   56.4167   44.8772   31.7390 H   0  0  0  0  0  0
   56.7428   46.3360   27.7419 H   0  0  0  0  0  0
   55.0605   47.1797   28.5998 H   0  0  0  0  0  0
   61.6042   48.1304   27.2352 H   0  0  0  0  0  0
   62.1140   48.4423   28.8770 H   0  0  0  0  0  0
   62.6565   46.9983   28.0421 H   0  0  0  0  0  0
   63.0689   43.4799   29.3384 H   0  0  0  0  0  0
   61.8349   44.4700   28.6128 H   0  0  0  0  0  0
   63.5487   44.9367   28.4933 H   0  0  0  0  0  0
  1  2  1  0  0  0
  1 29  1  0  0  0
  1 30  1  0  0  0
  1 31  1  0  0  0
  2  8  1  0  0  0
  2 10  1  0  0  0
  2  3  1  0  0  0
  3 32  1  0  0  0
  3 33  1  0  0  0
  3 34  1  0  0  0
  4  5  1  0  0  0
  4 35  1  0  0  0
  4 36  1  0  0  0
  4 37  1  0  0  0
  5  7  1  0  0  0
  5  9  1  0  0  0
  5  6  1  0  0  0
  6 38  1  0  0  0
  6 39  1  0  0  0
  6 40  1  0  0  0
  7  8  1  0  0  0
  7 41  1  0  0  0
  7 42  1  0  0  0
  8 43  1  0  0  0
  8 44  1  0  0  0
  9 14  1  0  0  0
  9 10  2  0  0  0
 10 11  1  0  0  0
 11 12  2  0  0  0
 11 45  1  0  0  0
 12 15  1  0  0  0
 12 13  1  0  0  0
 13 14  2  0  0  0
 13 28  1  0  0  0
 14 46  1  0  0  0
 15 19  1  0  0  0
 15 17  1  0  0  0
 16 18  1  0  0  0
 16 17  2  0  0  0
 17 27  1  0  0  0
 18 19  2  0  0  0
 18 23  1  0  0  0
 19 20  1  0  0  0
 20 21  2  0  0  0
 20 47  1  0  0  0
 21 22  1  0  0  0
 21 48  1  0  0  0
 22 23  2  0  0  0
 22 24  1  0  0  0
 23 49  1  0  0  0
 24 25  1  0  0  0
 24 26  2  0  0  0
 25 50  1  0  0  0
 27 51  1  0  0  0
 27 52  1  0  0  0
 27 53  1  0  0  0
 28 54  1  0  0  0
 28 55  1  0  0  0
 28 56  1  0  0  0
M  END
> <s_m_entry_id>
30883

> <s_m_entry_name>
dock_pv.96

> <s_m_Source_Path>
/home/csk/Desktop/cluster/DUD-E-result/rxra

> <s_m_Source_File>
dock_pv.maegz

> <i_m_Source_File_Index>
96

> <chembl_id>
CHEMBL2146900

> <chembl_pref_name>
None

> <i_lp_mmshare_version>
53161

> <r_lp_tautomer_probability>
1

> <s_lp_Force_Field>
OPLS_2005

> <r_lp_Energy>
26.848071

> <b_lp_Chiralities_Consistent>
1

> <s_lp_Variant>
CHEMBL2061_lig33-1

> <s_i_glide_gridfile>
glide-grid_1mv9

> <i_i_glide_lignum>
37

> <i_i_glide_rotatable_bonds>
3

> <r_i_docking_score>
-11.1059037470055

> <r_i_glide_ligand_efficiency>
-0.39663941953591

> <r_i_glide_ligand_efficiency_sa>
-1.20443088583611

> <r_i_glide_ligand_efficiency_ln>
-2.56356866831209

> <r_i_glide_gscore>
-11.1059037470055

> <r_i_glide_lipo>
-6.04411588786436

> <r_i_glide_hbond>
-0.200593801639499

> <r_i_glide_metal>
0

> <r_i_glide_rewards>
-2.48454134939873

> <r_i_glide_evdw>
-42.7325782775879

> <r_i_glide_ecoul>
-3.42109537124634

> <r_i_glide_erotb>
0.273140511463448

> <r_i_glide_esite>
0

> <r_i_glide_emodel>
-45.7611773226386

> <r_i_glide_energy>
-46.1536736488342

> <r_i_glide_einternal>
3.25561881065369

> <i_i_glide_confnum>
1

> <i_i_glide_posenum>
395

> <r_i_glide_eff_state_penalty>
0

> <s_user_duplicate_titles>
CHEMBL2061_lig33

> <i_f3d_flags>
0

> <s_m_subgroup_title>
dock_pv

> <s_m_subgroupid>
dock_pv

> <b_m_subgroup_collapsed>
1

$$$$
CHEMBL2061_lig386
                    3D
 Schrodinger Suite 2021-1.
 58 60  0  0  1  0            999 V2000
   62.9062   46.3502   33.1674 C   0  0  0  0  0  0
   64.0316   45.5426   32.8435 C   0  0  0  0  0  0
   62.0598   46.0774   30.8679 C   0  0  0  0  0  0
   61.0912   46.4674   29.8237 C   0  0  0  0  0  0
   61.9819   46.6326   32.1488 C   0  0  0  0  0  0
   64.1124   45.0018   31.5542 C   0  0  0  0  0  0
   63.1547   45.2385   30.5774 C   0  0  0  0  0  0
   62.6852   46.9484   34.5790 C   0  0  0  0  0  0
   65.1389   45.1815   33.8611 C   0  0  0  0  0  0
   64.4422   47.6772   26.9391 N   0  0  0  0  0  0
   55.4095   45.1938   30.3206 C   0  0  0  0  0  0
   63.3049   47.8871   26.9389 C   0  0  0  0  0  0
   61.6959   47.1650   28.9531 N   0  0  0  0  0  0
   59.6367   46.0652   29.8616 C   0  0  0  0  0  0
   56.8825   45.3935   30.1254 C   0  0  0  0  0  0
   65.0181   46.0577   35.1301 C   0  0  0  0  0  0
   63.5846   46.2316   35.6158 C   0  0  0  0  0  0
   54.8081   45.6386   31.2963 O   0  0  0  0  0  0
   58.7606   46.0772   28.7562 C   0  0  0  0  0  0
   59.0704   45.6770   31.0828 C   0  0  0  0  0  0
   57.7335   45.3372   31.2213 C   0  0  0  0  0  0
   57.4088   45.7519   28.8848 C   0  0  0  0  0  0
   61.8518   48.1688   26.9391 C   0  0  0  0  0  0
   54.8080   44.4769   29.3391 O   0  0  0  0  0  0
   61.0261   47.3794   27.7661 O   0  0  0  0  0  0
   63.3268   44.5350   29.2295 C   0  0  0  0  0  0
   64.9789   43.6893   34.2414 C   0  0  0  0  0  0
   63.0630   48.4443   34.5388 C   0  0  0  0  0  0
   61.2261   46.7265   35.0585 C   0  0  0  0  0  0
   66.5390   45.4894   33.2693 C   0  0  0  0  0  0
   61.1722   47.3134   32.3635 H   0  0  0  0  0  0
   64.9387   44.3525   31.3070 H   0  0  0  0  0  0
   65.6080   45.6446   35.9431 H   0  0  0  0  0  0
   65.4373   47.0445   34.9391 H   0  0  0  0  0  0
   63.1792   45.2523   35.8740 H   0  0  0  0  0  0
   63.6080   46.7961   36.5468 H   0  0  0  0  0  0
   59.0802   46.3268   27.7594 H   0  0  0  0  0  0
   59.6474   45.6770   31.9922 H   0  0  0  0  0  0
   57.3598   45.1187   32.2071 H   0  0  0  0  0  0
   56.7762   45.8207   28.0107 H   0  0  0  0  0  0
   61.4821   48.0769   25.9202 H   0  0  0  0  0  0
   61.7349   49.1982   27.2855 H   0  0  0  0  0  0
   55.4405   44.1202   28.7100 H   0  0  0  0  0  0
   64.0014   43.6796   29.2912 H   0  0  0  0  0  0
   62.3725   44.1439   28.8745 H   0  0  0  0  0  0
   63.7088   45.2295   28.4813 H   0  0  0  0  0  0
   65.7552   43.3828   34.9387 H   0  0  0  0  0  0
   64.0119   43.4732   34.6970 H   0  0  0  0  0  0
   65.0740   43.0388   33.3709 H   0  0  0  0  0  0
   63.0336   48.8770   35.5384 H   0  0  0  0  0  0
   64.0626   48.6059   34.1388 H   0  0  0  0  0  0
   62.3757   49.0093   33.9086 H   0  0  0  0  0  0
   61.0989   47.0581   36.0897 H   0  0  0  0  0  0
   60.4988   47.2771   34.4667 H   0  0  0  0  0  0
   60.9367   45.6773   35.0162 H   0  0  0  0  0  0
   67.3250   45.3223   34.0071 H   0  0  0  0  0  0
   66.7792   44.8593   32.4145 H   0  0  0  0  0  0
   66.6201   46.5264   32.9388 H   0  0  0  0  0  0
  1  2  2  0  0  0
  1  5  1  0  0  0
  1  8  1  0  0  0
  2  6  1  0  0  0
  2  9  1  0  0  0
  3  5  2  0  0  0
  3  4  1  0  0  0
  3  7  1  0  0  0
  4 13  2  0  0  0
  4 14  1  0  0  0
  5 31  1  0  0  0
  6  7  2  0  0  0
  6 32  1  0  0  0
  7 26  1  0  0  0
  8 17  1  0  0  0
  8 28  1  0  0  0
  8 29  1  0  0  0
  9 27  1  0  0  0
  9 30  1  0  0  0
  9 16  1  0  0  0
 10 12  3  0  0  0
 11 15  1  0  0  0
 11 18  2  0  0  0
 11 24  1  0  0  0
 12 23  1  0  0  0
 13 25  1  0  0  0
 14 19  2  0  0  0
 14 20  1  0  0  0
 15 21  1  0  0  0
 15 22  2  0  0  0
 16 17  1  0  0  0
 16 33  1  0  0  0
 16 34  1  0  0  0
 17 35  1  0  0  0
 17 36  1  0  0  0
 19 22  1  0  0  0
 19 37  1  0  0  0
 20 21  2  0  0  0
 20 38  1  0  0  0
 21 39  1  0  0  0
 22 40  1  0  0  0
 23 25  1  0  0  0
 23 41  1  0  0  0
 23 42  1  0  0  0
 24 43  1  0  0  0
 26 44  1  0  0  0
 26 45  1  0  0  0
 26 46  1  0  0  0
 27 47  1  0  0  0
 27 48  1  0  0  0
 27 49  1  0  0  0
 28 50  1  0  0  0
 28 51  1  0  0  0
 28 52  1  0  0  0
 29 53  1  0  0  0
 29 54  1  0  0  0
 29 55  1  0  0  0
 30 56  1  0  0  0
 30 57  1  0  0  0
 30 58  1  0  0  0
M  END
> <s_m_entry_id>
30884

> <s_m_entry_name>
dock_pv.97

> <s_m_Source_Path>
/home/csk/Desktop/cluster/DUD-E-result/rxra

> <s_m_Source_File>
dock_pv.maegz

> <i_m_Source_File_Index>
97

> <chembl_id>
CHEMBL164902

> <chembl_pref_name>
None

> <i_lp_mmshare_version>
53161

> <r_lp_tautomer_probability>
1

> <s_lp_Force_Field>
OPLS_2005

> <r_lp_Energy>
37.252474

> <b_lp_Chiralities_Consistent>
1

> <s_lp_Variant>
CHEMBL2061_lig386-1

> <s_i_glide_gridfile>
glide-grid_1mv9

> <i_i_glide_lignum>
446

> <i_i_glide_rotatable_bonds>
6

> <r_i_docking_score>
-11.1038524745862

> <r_i_glide_ligand_efficiency>
-0.37012841581954

> <r_i_glide_ligand_efficiency_sa>
-1.1500750437078

> <r_i_glide_ligand_efficiency_ln>
-2.52291626838892

> <r_i_glide_gscore>
-11.1038524745862

> <r_i_glide_lipo>
-5.97335313260416

> <r_i_glide_hbond>
-0.0979095970059176

> <r_i_glide_metal>
0

> <r_i_glide_rewards>
-2.61400162726824

> <r_i_glide_evdw>
-48.703670501709

> <r_i_glide_ecoul>
-3.09085559844971

> <r_i_glide_erotb>
0.480223747145031

> <r_i_glide_esite>
0

> <r_i_glide_emodel>
-64.0591814496835

> <r_i_glide_energy>
-51.7945261001587

> <r_i_glide_einternal>
19.1448574066162

> <i_i_glide_confnum>
73

> <i_i_glide_posenum>
279

> <r_i_glide_eff_state_penalty>
0

> <s_user_duplicate_titles>
CHEMBL2061_lig386,273338

> <i_f3d_flags>
0

> <s_m_subgroup_title>
dock_pv

> <s_m_subgroupid>
dock_pv

> <b_m_subgroup_collapsed>
1

$$$$
CHEMBL2061_lig316
                    3D
 Schrodinger Suite 2021-1.
 50 52  0  0  1  0            999 V2000
   55.8971   45.5969   29.6779 C   0  0  0  0  0  0
   57.0312   45.2676   30.9385 S   0  0  0  0  0  0
   62.9020   46.4768   33.0476 C   0  0  0  0  0  0
   58.2962   45.7824   29.8725 C   0  0  0  0  0  0
   57.9021   46.0771   28.6597 N   0  0  0  0  0  0
   64.0885   45.8106   32.6314 C   0  0  0  0  0  0
   56.5916   45.9856   28.5391 C   0  0  0  0  0  0
   54.5064   45.4441   29.8952 C   0  0  0  0  0  0
   61.9087   46.7075   32.0845 C   0  0  0  0  0  0
   59.6370   45.9191   30.3987 C   0  0  0  0  0  0
   60.8287   46.2719   29.8642 C   0  0  0  0  0  0
   62.0100   46.2675   30.7601 C   0  0  0  0  0  0
   62.6832   46.9722   34.5023 C   0  0  0  0  0  0
   65.1961   45.3892   33.6257 C   0  0  0  0  0  0
   64.2115   45.4512   31.2769 C   0  0  0  0  0  0
   63.1983   45.6716   30.3556 C   0  0  0  0  0  0
   54.0081   44.5259   30.5390 O   0  0  0  0  0  0
   63.6161   46.2127   35.4764 C   0  0  0  0  0  0
   65.0543   46.1436   34.9693 C   0  0  0  0  0  0
   53.8153   46.4768   29.3389 O   0  0  0  0  0  0
   61.0554   46.6851   28.4146 C   0  0  0  0  0  0
   63.0216   48.4770   34.5403 C   0  0  0  0  0  0
   61.2381   46.6967   34.9983 C   0  0  0  0  0  0
   65.0581   43.8684   33.8835 C   0  0  0  0  0  0
   66.5878   45.7602   33.0691 C   0  0  0  0  0  0
   56.1431   46.2073   27.5811 H   0  0  0  0  0  0
   61.0018   47.2070   32.3877 H   0  0  0  0  0  0
   59.6424   45.6772   31.4509 H   0  0  0  0  0  0
   65.0852   44.9244   30.9267 H   0  0  0  0  0  0
   63.3198   45.3040   29.3469 H   0  0  0  0  0  0
   63.2495   45.1999   35.6462 H   0  0  0  0  0  0
   63.6075   46.6893   36.4580 H   0  0  0  0  0  0
   65.6747   45.6785   35.7312 H   0  0  0  0  0  0
   65.4348   47.1590   34.8699 H   0  0  0  0  0  0
   54.4269   47.0816   28.9125 H   0  0  0  0  0  0
   61.7215   47.5467   28.3660 H   0  0  0  0  0  0
   61.5129   45.8667   27.8593 H   0  0  0  0  0  0
   60.1395   46.9576   27.8968 H   0  0  0  0  0  0
   62.9845   48.8764   35.5550 H   0  0  0  0  0  0
   64.0110   48.6905   34.1398 H   0  0  0  0  0  0
   62.3160   49.0481   33.9359 H   0  0  0  0  0  0
   61.1499   46.8588   36.0734 H   0  0  0  0  0  0
   60.5025   47.3511   34.5376 H   0  0  0  0  0  0
   60.9241   45.6759   34.7946 H   0  0  0  0  0  0
   65.8072   43.5195   34.5946 H   0  0  0  0  0  0
   64.0777   43.5973   34.2759 H   0  0  0  0  0  0
   65.2015   43.2942   32.9676 H   0  0  0  0  0  0
   67.3755   45.5286   33.7870 H   0  0  0  0  0  0
   66.8081   45.1993   32.1637 H   0  0  0  0  0  0
   66.6627   46.8220   32.8277 H   0  0  0  0  0  0
  1  2  1  0  0  0
  1  7  2  0  0  0
  1  8  1  0  0  0
  2  4  1  0  0  0
  3  9  1  0  0  0
  3 13  1  0  0  0
  3  6  2  0  0  0
  4 10  1  0  0  0
  4  5  2  0  0  0
  5  7  1  0  0  0
  6 15  1  0  0  0
  6 14  1  0  0  0
  7 26  1  0  0  0
  8 17  2  0  0  0
  8 20  1  0  0  0
  9 12  2  0  0  0
  9 27  1  0  0  0
 10 11  2  0  0  0
 10 28  1  0  0  0
 11 12  1  0  0  0
 11 21  1  0  0  0
 12 16  1  0  0  0
 13 18  1  0  0  0
 13 22  1  0  0  0
 13 23  1  0  0  0
 14 19  1  0  0  0
 14 24  1  0  0  0
 14 25  1  0  0  0
 15 16  2  0  0  0
 15 29  1  0  0  0
 16 30  1  0  0  0
 18 19  1  0  0  0
 18 31  1  0  0  0
 18 32  1  0  0  0
 19 33  1  0  0  0
 19 34  1  0  0  0
 20 35  1  0  0  0
 21 36  1  0  0  0
 21 37  1  0  0  0
 21 38  1  0  0  0
 22 39  1  0  0  0
 22 40  1  0  0  0
 22 41  1  0  0  0
 23 42  1  0  0  0
 23 43  1  0  0  0
 23 44  1  0  0  0
 24 45  1  0  0  0
 24 46  1  0  0  0
 24 47  1  0  0  0
 25 48  1  0  0  0
 25 49  1  0  0  0
 25 50  1  0  0  0
M  END
> <s_m_entry_id>
30885

> <s_m_entry_name>
dock_pv.98

> <s_m_Source_Path>
/home/csk/Desktop/cluster/DUD-E-result/rxra

> <s_m_Source_File>
dock_pv.maegz

> <i_m_Source_File_Index>
98

> <chembl_id>
CHEMBL93577

> <chembl_pref_name>
None

> <i_lp_mmshare_version>
53161

> <r_lp_tautomer_probability>
1

> <s_lp_Force_Field>
OPLS_2005

> <r_lp_Energy>
24.803467

> <b_lp_Chiralities_Consistent>
1

> <s_lp_Variant>
CHEMBL2061_lig316-1

> <s_i_glide_gridfile>
glide-grid_1mv9

> <i_i_glide_lignum>
364

> <i_i_glide_rotatable_bonds>
4

> <r_i_docking_score>
-11.0953057670841

> <r_i_glide_ligand_efficiency>
-0.443812230683363

> <r_i_glide_ligand_efficiency_sa>
-1.29771483356158

> <r_i_glide_ligand_efficiency_ln>
-2.6299199662817

> <r_i_glide_gscore>
-11.0953057670841

> <r_i_glide_lipo>
-5.85472411456712

> <r_i_glide_hbond>
-0.32

> <r_i_glide_metal>
0

> <r_i_glide_rewards>
-2.33232717276104

> <r_i_glide_evdw>
-44.522144317627

> <r_i_glide_ecoul>
-5.44038963317871

> <r_i_glide_erotb>
0.45391118110223

> <r_i_glide_esite>
0

> <r_i_glide_emodel>
-70.7585807609714

> <r_i_glide_energy>
-49.9625339508057

> <r_i_glide_einternal>
4.55883884429932

> <i_i_glide_confnum>
24

> <i_i_glide_posenum>
261

> <r_i_glide_eff_state_penalty>
0

> <s_user_duplicate_titles>
CHEMBL2061_lig316,149875

> <i_f3d_flags>
0

> <s_m_subgroup_title>
dock_pv

> <s_m_subgroupid>
dock_pv

> <b_m_subgroup_collapsed>
1

$$$$
CHEMBL2061_lig277
                    3D
 Schrodinger Suite 2021-1.
 54 57  0  0  1  0            999 V2000
   61.0720   46.5414   29.1829 C   0  0  0  0  0  0
   62.8112   46.4770   32.6313 C   0  0  0  0  0  0
   61.5810   46.5138   27.7390 C   0  0  0  0  0  0
   61.2676   47.8265   28.3951 C   0  0  0  0  0  0
   63.9510   45.6701   32.3686 C   0  0  0  0  0  0
   62.1110   46.2527   30.2853 C   0  0  0  0  0  0
   61.9877   46.8314   31.5489 C   0  0  0  0  0  0
   62.4146   46.9358   34.0579 C   0  0  0  0  0  0
   64.9790   45.3001   33.4639 C   0  0  0  0  0  0
   55.4829   45.0356   30.2594 C   0  0  0  0  0  0
   59.6036   46.0980   29.4604 C   0  0  0  0  0  0
   64.1070   45.1500   31.0724 C   0  0  0  0  0  0
   56.9227   45.3355   29.9616 C   0  0  0  0  0  0
   63.1919   45.4036   30.0581 C   0  0  0  0  0  0
   63.3131   46.2799   35.1433 C   0  0  0  0  0  0
   64.7793   46.1849   34.7219 C   0  0  0  0  0  0
   54.9550   45.2770   31.3390 O   0  0  0  0  0  0
   59.1829   45.6770   30.7269 C   0  0  0  0  0  0
   58.6352   46.1371   28.4493 C   0  0  0  0  0  0
   57.3132   45.7726   28.6939 C   0  0  0  0  0  0
   57.8744   45.2793   30.9782 C   0  0  0  0  0  0
   54.8080   44.4770   29.2294 O   0  0  0  0  0  0
   62.5697   48.4661   34.1703 C   0  0  0  0  0  0
   60.9671   46.4636   34.3545 C   0  0  0  0  0  0
   64.7901   43.8109   33.8425 C   0  0  0  0  0  0
   66.4080   45.6004   32.9633 C   0  0  0  0  0  0
   62.6295   46.3168   27.5163 H   0  0  0  0  0  0
   60.9402   46.1475   26.9390 H   0  0  0  0  0  0
   60.3975   48.3893   28.0557 H   0  0  0  0  0  0
   62.0983   48.4779   28.6646 H   0  0  0  0  0  0
   61.1610   47.5036   31.7194 H   0  0  0  0  0  0
   64.9355   44.4949   30.8495 H   0  0  0  0  0  0
   63.3341   44.9264   29.1004 H   0  0  0  0  0  0
   62.9634   45.2770   35.3845 H   0  0  0  0  0  0
   63.2368   46.8272   36.0847 H   0  0  0  0  0  0
   65.3759   45.8043   35.5530 H   0  0  0  0  0  0
   65.1549   47.1932   34.5396 H   0  0  0  0  0  0
   59.8490   45.6770   31.5679 H   0  0  0  0  0  0
   58.8831   46.4829   27.4587 H   0  0  0  0  0  0
   56.5991   45.8648   27.8872 H   0  0  0  0  0  0
   57.6080   44.9808   31.9822 H   0  0  0  0  0  0
   55.3952   44.1884   28.5257 H   0  0  0  0  0  0
   62.2006   48.8110   35.1351 H   0  0  0  0  0  0
   63.6080   48.7871   34.1043 H   0  0  0  0  0  0
   62.0086   48.9981   33.4018 H   0  0  0  0  0  0
   60.6625   46.7402   35.3626 H   0  0  0  0  0  0
   60.2288   46.8770   33.6732 H   0  0  0  0  0  0
   60.8627   45.3828   34.2643 H   0  0  0  0  0  0
   65.4456   43.5284   34.6662 H   0  0  0  0  0  0
   63.7667   43.5806   34.1390 H   0  0  0  0  0  0
   65.0310   43.1531   33.0068 H   0  0  0  0  0  0
   67.1468   45.4551   33.7534 H   0  0  0  0  0  0
   66.7029   44.9449   32.1445 H   0  0  0  0  0  0
   66.5063   46.6284   32.6104 H   0  0  0  0  0  0
  1  3  1  0  0  0
  1  4  1  0  0  0
  1  6  1  0  0  0
  1 11  1  0  0  0
  2  7  1  0  0  0
  2  8  1  0  0  0
  2  5  2  0  0  0
  3  4  1  0  0  0
  3 27  1  0  0  0
  3 28  1  0  0  0
  4 29  1  0  0  0
  4 30  1  0  0  0
  5 12  1  0  0  0
  5  9  1  0  0  0
  6  7  2  0  0  0
  6 14  1  0  0  0
  7 31  1  0  0  0
  8 15  1  0  0  0
  8 23  1  0  0  0
  8 24  1  0  0  0
  9 16  1  0  0  0
  9 25  1  0  0  0
  9 26  1  0  0  0
 10 13  1  0  0  0
 10 17  2  0  0  0
 10 22  1  0  0  0
 11 18  2  0  0  0
 11 19  1  0  0  0
 12 14  2  0  0  0
 12 32  1  0  0  0
 13 20  1  0  0  0
 13 21  2  0  0  0
 14 33  1  0  0  0
 15 16  1  0  0  0
 15 34  1  0  0  0
 15 35  1  0  0  0
 16 36  1  0  0  0
 16 37  1  0  0  0
 18 21  1  0  0  0
 18 38  1  0  0  0
 19 20  2  0  0  0
 19 39  1  0  0  0
 20 40  1  0  0  0
 21 41  1  0  0  0
 22 42  1  0  0  0
 23 43  1  0  0  0
 23 44  1  0  0  0
 23 45  1  0  0  0
 24 46  1  0  0  0
 24 47  1  0  0  0
 24 48  1  0  0  0
 25 49  1  0  0  0
 25 50  1  0  0  0
 25 51  1  0  0  0
 26 52  1  0  0  0
 26 53  1  0  0  0
 26 54  1  0  0  0
M  END
> <s_m_entry_id>
30886

> <s_m_entry_name>
dock_pv.99

> <s_m_Source_Path>
/home/csk/Desktop/cluster/DUD-E-result/rxra

> <s_m_Source_File>
dock_pv.maegz

> <i_m_Source_File_Index>
99

> <chembl_id>
CHEMBL326855

> <chembl_pref_name>
None

> <i_lp_mmshare_version>
53161

> <r_lp_tautomer_probability>
1

> <s_lp_Force_Field>
OPLS_2005

> <r_lp_Energy>
30.26134

> <b_lp_Chiralities_Consistent>
1

> <s_lp_Variant>
CHEMBL2061_lig277-1

> <s_i_glide_gridfile>
glide-grid_1mv9

> <i_i_glide_lignum>
322

> <i_i_glide_rotatable_bonds>
4

> <r_i_docking_score>
-11.0871137871206

> <r_i_glide_ligand_efficiency>
-0.426427453350792

> <r_i_glide_ligand_efficiency_sa>
-1.26328965264072

> <r_i_glide_ligand_efficiency_ln>
-2.60377229311767

> <r_i_glide_gscore>
-11.0871137871206

> <r_i_glide_lipo>
-6.37927570193181

> <r_i_glide_hbond>
0

> <r_i_glide_metal>
0

> <r_i_glide_rewards>
-2.29556715336471

> <r_i_glide_evdw>
-48.8422393798828

> <r_i_glide_ecoul>
-2.93636441230774

> <r_i_glide_erotb>
0.470295699016224

> <r_i_glide_esite>
0

> <r_i_glide_emodel>
-80.6031458455802

> <r_i_glide_energy>
-51.7786037921906

> <r_i_glide_einternal>
8.93126392364502

> <i_i_glide_confnum>
59

> <i_i_glide_posenum>
148

> <r_i_glide_eff_state_penalty>
0

> <s_user_duplicate_titles>
CHEMBL2061_lig277,187779

> <i_f3d_flags>
0

> <s_m_subgroup_title>
dock_pv

> <s_m_subgroupid>
dock_pv

> <b_m_subgroup_collapsed>
1

$$$$
CHEMBL2061_lig138
                    3D
 Schrodinger Suite 2021-1.
 58 58  0  0  1  0            999 V2000
   63.5958   46.1152   31.8470 C   0  0  0  0  0  0
   62.4777   46.9690   31.9363 C   0  0  0  0  0  0
   64.1109   45.7720   30.5810 C   0  0  0  0  0  0
   62.0193   47.6077   30.7757 C   0  0  0  0  0  0
   63.5603   46.3502   29.4411 C   0  0  0  0  0  0
   62.5432   47.2890   29.5239 C   0  0  0  0  0  0
   64.1135   45.5449   32.9804 O   0  0  0  0  0  0
   61.6819   47.1078   33.1890 C   0  0  0  0  0  0
   56.2440   45.2737   31.3388 C   0  0  0  0  0  0
   55.1730   44.8809   30.4584 C   0  0  0  0  0  0
   59.6608   46.0769   32.1762 C   0  0  0  0  0  0
   57.5859   45.1585   31.1777 C   0  0  0  0  0  0
   60.4105   46.6579   33.2716 C   0  0  0  0  0  0
   58.3833   45.6771   32.2806 C   0  0  0  0  0  0
   54.0079   44.8771   30.8264 O   0  0  0  0  0  0
   65.1894   44.7164   30.3384 C   0  0  0  0  0  0
   65.5774   45.5454   34.8676 C   0  0  0  0  0  0
   65.1137   46.3246   33.6405 C   0  0  0  0  0  0
   62.0172   47.9454   28.2545 C   0  0  0  0  0  0
   55.5435   44.5583   29.1954 O   0  0  0  0  0  0
   64.6308   45.4371   35.7998 F   0  0  0  0  0  0
   66.0093   44.3277   34.5420 F   0  0  0  0  0  0
   62.2928   47.8273   34.3792 C   0  0  0  0  0  0
   58.2589   44.5170   29.9614 C   0  0  0  0  0  0
   64.6310   43.2888   30.4934 C   0  0  0  0  0  0
   66.5174   44.9232   31.0604 C   0  0  0  0  0  0
   60.8767   47.1316   27.6194 C   0  0  0  0  0  0
   63.1436   48.2591   27.2501 C   0  0  0  0  0  0
   61.2074   48.3115   30.8414 H   0  0  0  0  0  0
   63.9333   46.0675   28.4685 H   0  0  0  0  0  0
   55.8610   45.7191   32.2471 H   0  0  0  0  0  0
   60.1409   45.9671   31.2171 H   0  0  0  0  0  0
   59.8989   46.7660   34.2172 H   0  0  0  0  0  0
   57.9104   45.7866   33.2479 H   0  0  0  0  0  0
   65.4888   44.8770   29.3049 H   0  0  0  0  0  0
   66.4105   46.0656   35.3370 H   0  0  0  0  0  0
   65.9645   46.5283   32.9984 H   0  0  0  0  0  0
   64.7664   47.3107   33.9325 H   0  0  0  0  0  0
   61.6069   48.9052   28.5453 H   0  0  0  0  0  0
   56.4930   44.6200   29.0862 H   0  0  0  0  0  0
   62.8543   47.1295   34.9971 H   0  0  0  0  0  0
   62.9424   48.6414   34.0568 H   0  0  0  0  0  0
   61.5236   48.2561   35.0233 H   0  0  0  0  0  0
   59.2875   44.2071   30.1391 H   0  0  0  0  0  0
   57.7510   43.5900   29.7018 H   0  0  0  0  0  0
   58.2266   45.1816   29.0972 H   0  0  0  0  0  0
   63.7145   43.1582   29.9174 H   0  0  0  0  0  0
   65.3376   42.5392   30.1391 H   0  0  0  0  0  0
   64.4016   43.0631   31.5354 H   0  0  0  0  0  0
   66.8028   45.9726   31.0646 H   0  0  0  0  0  0
   66.4939   44.5561   32.0843 H   0  0  0  0  0  0
   67.3157   44.3978   30.5386 H   0  0  0  0  0  0
   60.0507   46.9962   28.3191 H   0  0  0  0  0  0
   60.4785   47.6352   26.7377 H   0  0  0  0  0  0
   61.2148   46.1408   27.3119 H   0  0  0  0  0  0
   64.0232   48.6805   27.7386 H   0  0  0  0  0  0
   63.4591   47.3803   26.6856 H   0  0  0  0  0  0
   62.8082   48.9957   26.5382 H   0  0  0  0  0  0
  1  2  1  0  0  0
  1  3  2  0  0  0
  1  7  1  0  0  0
  2  4  2  0  0  0
  2  8  1  0  0  0
  3  5  1  0  0  0
  3 16  1  0  0  0
  4  6  1  0  0  0
  4 29  1  0  0  0
  5  6  2  0  0  0
  5 30  1  0  0  0
  6 19  1  0  0  0
  7 18  1  0  0  0
  8 13  2  0  0  0
  8 23  1  0  0  0
  9 12  2  0  0  0
  9 10  1  0  0  0
  9 31  1  0  0  0
 10 15  2  0  0  0
 10 20  1  0  0  0
 11 13  1  0  0  0
 11 14  2  0  0  0
 11 32  1  0  0  0
 12 14  1  0  0  0
 12 24  1  0  0  0
 13 33  1  0  0  0
 14 34  1  0  0  0
 16 25  1  0  0  0
 16 26  1  0  0  0
 16 35  1  0  0  0
 17 18  1  0  0  0
 17 21  1  0  0  0
 17 22  1  0  0  0
 17 36  1  0  0  0
 18 37  1  0  0  0
 18 38  1  0  0  0
 19 27  1  0  0  0
 19 28  1  0  0  0
 19 39  1  0  0  0
 20 40  1  0  0  0
 23 41  1  0  0  0
 23 42  1  0  0  0
 23 43  1  0  0  0
 24 44  1  0  0  0
 24 45  1  0  0  0
 24 46  1  0  0  0
 25 47  1  0  0  0
 25 48  1  0  0  0
 25 49  1  0  0  0
 26 50  1  0  0  0
 26 51  1  0  0  0
 26 52  1  0  0  0
 27 53  1  0  0  0
 27 54  1  0  0  0
 27 55  1  0  0  0
 28 56  1  0  0  0
 28 57  1  0  0  0
 28 58  1  0  0  0
M  END
> <s_m_entry_id>
30887

> <s_m_entry_name>
dock_pv.100

> <s_m_Source_Path>
/home/csk/Desktop/cluster/DUD-E-result/rxra

> <s_m_Source_File>
dock_pv.maegz

> <i_m_Source_File_Index>
100

> <chembl_id>
CHEMBL88931

> <chembl_pref_name>
None

> <i_lp_mmshare_version>
53161

> <r_lp_tautomer_probability>
1

> <s_lp_Force_Field>
OPLS_2005

> <r_lp_Energy>
27.081437

> <b_lp_Chiralities_Consistent>
1

> <s_lp_Variant>
CHEMBL2061_lig138-1

> <s_i_glide_gridfile>
glide-grid_1mv9

> <i_i_glide_lignum>
177

> <i_i_glide_rotatable_bonds>
10

> <r_i_docking_score>
-11.0870255982072

> <r_i_glide_ligand_efficiency>
-0.39596519993597

> <r_i_glide_ligand_efficiency_sa>
-1.20238355803658

> <r_i_glide_ligand_efficiency_ln>
-2.55921103728291

> <r_i_glide_gscore>
-11.0870255982072

> <r_i_glide_lipo>
-5.39783486798824

> <r_i_glide_hbond>
-0.414734056279958

> <r_i_glide_metal>
0

> <r_i_glide_rewards>
-3.1596867079126

> <r_i_glide_evdw>
-42.8145332336426

> <r_i_glide_ecoul>
-4.89711141586304

> <r_i_glide_erotb>
0.76052340803521

> <r_i_glide_esite>
0

> <r_i_glide_emodel>
-77.3096023401697

> <r_i_glide_energy>
-47.7116446495056

> <r_i_glide_einternal>
3.25850129127502

> <i_i_glide_confnum>
13

> <i_i_glide_posenum>
122

> <r_i_glide_eff_state_penalty>
0

> <s_user_duplicate_titles>
CHEMBL2061_lig138,147192

> <i_f3d_flags>
0

> <s_m_subgroup_title>
dock_pv

> <s_m_subgroupid>
dock_pv

> <b_m_subgroup_collapsed>
1

$$$$
CHEMBL2061_lig105
                    3D
 Schrodinger Suite 2021-1.
 59 60  0  0  1  0            999 V2000
   63.3551   45.7932   33.2735 C   0  0  0  0  0  0
   62.2397   46.5679   32.9264 C   0  0  0  0  0  0
   62.8902   46.4938   30.5734 C   0  0  0  0  0  0
   64.1214   45.2220   32.2488 C   0  0  0  0  0  0
   62.0808   46.9903   31.6001 C   0  0  0  0  0  0
   63.8634   45.5642   30.9245 C   0  0  0  0  0  0
   63.5950   45.5241   34.5998 O   0  0  0  0  0  0
   61.1735   46.8256   33.9194 C   0  0  0  0  0  0
   62.7861   46.9463   29.1535 C   0  0  0  0  0  0
   55.9686   45.3373   31.1617 C   0  0  0  0  0  0
   55.1060   45.0103   30.0593 C   0  0  0  0  0  0
   59.2948   45.8954   32.5291 C   0  0  0  0  0  0
   57.3202   45.2416   31.1835 C   0  0  0  0  0  0
   59.8850   46.4769   33.7163 C   0  0  0  0  0  0
   57.9743   45.6810   32.4088 C   0  0  0  0  0  0
   61.6109   47.4923   28.6025 C   0  0  0  0  0  0
   54.0092   44.4873   30.2148 O   0  0  0  0  0  0
   65.2180   44.1982   32.4734 C   0  0  0  0  0  0
   64.6374   46.2782   36.6289 C   0  0  0  0  0  0
   64.8125   46.0502   35.1335 C   0  0  0  0  0  0
   60.4333   47.4676   29.2691 F   0  0  0  0  0  0
   55.5897   45.3761   28.8419 O   0  0  0  0  0  0
   64.0085   47.4080   36.9150 F   0  0  0  0  0  0
   64.0084   45.2784   37.2143 F   0  0  0  0  0  0
   61.5581   47.5493   35.2001 C   0  0  0  0  0  0
   63.9322   46.8877   28.3335 C   0  0  0  0  0  0
   58.1591   44.6845   30.0320 C   0  0  0  0  0  0
   61.6289   48.0672   27.3338 C   0  0  0  0  0  0
   64.9079   43.0623   33.4764 C   0  0  0  0  0  0
   66.6025   44.8791   32.6275 C   0  0  0  0  0  0
   63.9514   47.4736   27.0769 C   0  0  0  0  0  0
   62.8058   48.0769   26.5911 C   0  0  0  0  0  0
   61.2812   47.6816   31.3795 H   0  0  0  0  0  0
   64.4571   45.1007   30.1541 H   0  0  0  0  0  0
   55.4297   45.6810   32.0317 H   0  0  0  0  0  0
   59.9343   45.6784   31.6894 H   0  0  0  0  0  0
   59.2080   46.7076   34.5087 H   0  0  0  0  0  0
   57.3549   45.9040   33.2656 H   0  0  0  0  0  0
   65.2048   43.6686   31.5241 H   0  0  0  0  0  0
   65.5977   46.3281   37.1273 H   0  0  0  0  0  0
   65.6189   45.3292   35.0122 H   0  0  0  0  0  0
   65.1275   46.9783   34.6460 H   0  0  0  0  0  0
   54.9958   45.1001   28.1443 H   0  0  0  0  0  0
   62.3982   48.2274   35.0355 H   0  0  0  0  0  0
   60.7271   48.1241   35.6060 H   0  0  0  0  0  0
   61.8370   46.8146   35.9527 H   0  0  0  0  0  0
   64.8661   46.4800   28.6811 H   0  0  0  0  0  0
   58.9420   44.0720   30.4708 H   0  0  0  0  0  0
   57.6248   44.0229   29.3499 H   0  0  0  0  0  0
   58.6478   45.4871   29.4835 H   0  0  0  0  0  0
   60.7213   48.4826   26.9186 H   0  0  0  0  0  0
   64.0866   42.4378   33.1206 H   0  0  0  0  0  0
   65.7759   42.4229   33.6211 H   0  0  0  0  0  0
   64.6356   43.3938   34.4756 H   0  0  0  0  0  0
   67.2050   44.7671   31.7316 H   0  0  0  0  0  0
   66.5181   45.9474   32.8117 H   0  0  0  0  0  0
   67.1883   44.4772   33.4507 H   0  0  0  0  0  0
   64.8518   47.4523   26.4805 H   0  0  0  0  0  0
   62.8235   48.4769   25.5922 H   0  0  0  0  0  0
  1  2  1  0  0  0
  1  4  2  0  0  0
  1  7  1  0  0  0
  2  5  2  0  0  0
  2  8  1  0  0  0
  3  6  2  0  0  0
  3  9  1  0  0  0
  3  5  1  0  0  0
  4  6  1  0  0  0
  4 18  1  0  0  0
  5 33  1  0  0  0
  6 34  1  0  0  0
  7 20  1  0  0  0
  8 14  2  0  0  0
  8 25  1  0  0  0
  9 16  2  0  0  0
  9 26  1  0  0  0
 10 13  2  0  0  0
 10 11  1  0  0  0
 10 35  1  0  0  0
 11 17  2  0  0  0
 11 22  1  0  0  0
 12 14  1  0  0  0
 12 15  2  0  0  0
 12 36  1  0  0  0
 13 15  1  0  0  0
 13 27  1  0  0  0
 14 37  1  0  0  0
 15 38  1  0  0  0
 16 21  1  0  0  0
 16 28  1  0  0  0
 18 29  1  0  0  0
 18 30  1  0  0  0
 18 39  1  0  0  0
 19 20  1  0  0  0
 19 23  1  0  0  0
 19 24  1  0  0  0
 19 40  1  0  0  0
 20 41  1  0  0  0
 20 42  1  0  0  0
 22 43  1  0  0  0
 25 44  1  0  0  0
 25 45  1  0  0  0
 25 46  1  0  0  0
 26 31  2  0  0  0
 26 47  1  0  0  0
 27 48  1  0  0  0
 27 49  1  0  0  0
 27 50  1  0  0  0
 28 32  2  0  0  0
 28 51  1  0  0  0
 29 52  1  0  0  0
 29 53  1  0  0  0
 29 54  1  0  0  0
 30 55  1  0  0  0
 30 56  1  0  0  0
 30 57  1  0  0  0
 31 32  1  0  0  0
 31 58  1  0  0  0
 32 59  1  0  0  0
M  END
> <s_m_entry_id>
30888

> <s_m_entry_name>
dock_pv.101

> <s_m_Source_Path>
/home/csk/Desktop/cluster/DUD-E-result/rxra

> <s_m_Source_File>
dock_pv.maegz

> <i_m_Source_File_Index>
101

> <chembl_id>
CHEMBL422088

> <chembl_pref_name>
None

> <i_lp_mmshare_version>
53161

> <r_lp_tautomer_probability>
1

> <s_lp_Force_Field>
OPLS_2005

> <r_lp_Energy>
33.788984

> <b_lp_Chiralities_Consistent>
1

> <s_lp_Variant>
CHEMBL2061_lig105-1

> <s_i_glide_gridfile>
glide-grid_1mv9

> <i_i_glide_lignum>
144

> <i_i_glide_rotatable_bonds>
10

> <r_i_docking_score>
-11.0804139296889

> <r_i_glide_ligand_efficiency>
-0.346262935302778

> <r_i_glide_ligand_efficiency_sa>
-1.09931629424447

> <r_i_glide_ligand_efficiency_ln>
-2.48120671953355

> <r_i_glide_gscore>
-11.0804139296889

> <r_i_glide_lipo>
-6.17110238960312

> <r_i_glide_hbond>
-0.32

> <r_i_glide_metal>
0

> <r_i_glide_rewards>
-2.77917481956835

> <r_i_glide_evdw>
-36.0398750305176

> <r_i_glide_ecoul>
-4.77848434448242

> <r_i_glide_erotb>
0.708629682680817

> <r_i_glide_esite>
0

> <r_i_glide_emodel>
-55.4859588384076

> <r_i_glide_energy>
-40.818359375

> <r_i_glide_einternal>
8.32414150238037

> <i_i_glide_confnum>
5

> <i_i_glide_posenum>
394

> <r_i_glide_eff_state_penalty>
0

> <s_user_duplicate_titles>
CHEMBL2061_lig105,217021

> <i_f3d_flags>
0

> <s_m_subgroup_title>
dock_pv

> <s_m_subgroupid>
dock_pv

> <b_m_subgroup_collapsed>
1

$$$$
CHEMBL2061_lig262
                    3D
 Schrodinger Suite 2021-1.
 61 62  0  0  1  0            999 V2000
   61.1745   46.3252   29.5273 C   0  0  0  0  0  0
   62.2022   46.1095   30.5769 C   0  0  0  0  0  0
   62.8531   46.4119   32.9406 C   0  0  0  0  0  0
   64.0576   45.7014   32.6848 C   0  0  0  0  0  0
   59.9094   45.6399   29.7821 C   0  0  0  0  0  0
   61.9734   46.6170   31.8616 C   0  0  0  0  0  0
   64.2684   45.1869   31.3949 C   0  0  0  0  0  0
   63.3617   45.3564   30.3549 C   0  0  0  0  0  0
   62.4864   46.9513   34.3511 C   0  0  0  0  0  0
   65.1092   45.4053   33.7824 C   0  0  0  0  0  0
   58.6739   46.1524   29.6152 C   0  0  0  0  0  0
   61.4132   47.1069   28.4334 C   0  0  0  0  0  0
   56.2920   46.0757   29.4765 C   0  0  0  0  0  0
   54.9239   45.6702   29.6719 C   0  0  0  0  0  0
   57.4241   45.4545   29.8961 C   0  0  0  0  0  0
   63.3725   46.2934   35.4397 C   0  0  0  0  0  0
   64.8501   46.2489   35.0543 C   0  0  0  0  0  0
   54.0071   46.4746   29.7386 O   0  0  0  0  0  0
   54.7254   44.3298   29.7352 O   0  0  0  0  0  0
   63.6666   44.6647   29.0324 C   0  0  0  0  0  0
   62.7266   48.4765   34.3862 C   0  0  0  0  0  0
   65.0202   43.9035   34.1481 C   0  0  0  0  0  0
   66.5167   45.8018   33.2836 C   0  0  0  0  0  0
   61.0256   46.5794   34.7162 C   0  0  0  0  0  0
   62.7275   47.8356   28.1708 C   0  0  0  0  0  0
   60.4213   47.3495   27.3059 C   0  0  0  0  0  0
   57.4439   44.1509   30.6967 C   0  0  0  0  0  0
   59.9995   44.6259   30.1381 H   0  0  0  0  0  0
   61.0674   47.1774   32.0295 H   0  0  0  0  0  0
   65.1479   44.5920   31.1988 H   0  0  0  0  0  0
   58.6075   47.1693   29.2534 H   0  0  0  0  0  0
   56.3580   47.0127   28.9393 H   0  0  0  0  0  0
   63.0341   45.2803   35.6550 H   0  0  0  0  0  0
   63.2742   46.8336   36.3818 H   0  0  0  0  0  0
   65.4341   45.8623   35.8906 H   0  0  0  0  0  0
   65.2074   47.2689   34.9209 H   0  0  0  0  0  0
   55.5363   43.8649   29.5260 H   0  0  0  0  0  0
   64.6976   44.8791   28.7471 H   0  0  0  0  0  0
   63.5806   43.5835   29.1431 H   0  0  0  0  0  0
   63.0323   44.9779   28.2032 H   0  0  0  0  0  0
   62.5308   48.8721   35.3839 H   0  0  0  0  0  0
   63.7520   48.7451   34.1393 H   0  0  0  0  0  0
   62.0765   49.0029   33.6881 H   0  0  0  0  0  0
   65.7272   43.6587   34.9384 H   0  0  0  0  0  0
   64.0249   43.6120   34.4848 H   0  0  0  0  0  0
   65.2673   43.2675   33.2993 H   0  0  0  0  0  0
   67.2703   45.6543   34.0601 H   0  0  0  0  0  0
   66.8087   45.1957   32.4290 H   0  0  0  0  0  0
   66.5601   46.8470   32.9745 H   0  0  0  0  0  0
   60.8082   46.8017   35.7606 H   0  0  0  0  0  0
   60.2977   47.1320   34.1295 H   0  0  0  0  0  0
   60.8130   45.5237   34.5508 H   0  0  0  0  0  0
   63.1640   47.5083   27.2264 H   0  0  0  0  0  0
   62.5555   48.9093   28.1156 H   0  0  0  0  0  0
   63.4737   47.6654   28.9386 H   0  0  0  0  0  0
   60.0083   48.3483   27.4217 H   0  0  0  0  0  0
   60.9100   47.3099   26.3353 H   0  0  0  0  0  0
   59.6067   46.6293   27.2750 H   0  0  0  0  0  0
   58.2372   44.1863   31.4432 H   0  0  0  0  0  0
   56.5475   44.0171   31.2966 H   0  0  0  0  0  0
   57.6096   43.2794   30.0603 H   0  0  0  0  0  0
  1  2  1  0  0  0
  1  5  1  0  0  0
  1 12  2  0  0  0
  2  6  2  0  0  0
  2  8  1  0  0  0
  3  6  1  0  0  0
  3  9  1  0  0  0
  3  4  2  0  0  0
  4  7  1  0  0  0
  4 10  1  0  0  0
  5 11  2  0  0  0
  5 28  1  0  0  0
  6 29  1  0  0  0
  7  8  2  0  0  0
  7 30  1  0  0  0
  8 20  1  0  0  0
  9 16  1  0  0  0
  9 21  1  0  0  0
  9 24  1  0  0  0
 10 17  1  0  0  0
 10 22  1  0  0  0
 10 23  1  0  0  0
 11 15  1  0  0  0
 11 31  1  0  0  0
 12 25  1  0  0  0
 12 26  1  0  0  0
 13 15  2  0  0  0
 13 14  1  0  0  0
 13 32  1  0  0  0
 14 18  2  0  0  0
 14 19  1  0  0  0
 15 27  1  0  0  0
 16 17  1  0  0  0
 16 33  1  0  0  0
 16 34  1  0  0  0
 17 35  1  0  0  0
 17 36  1  0  0  0
 19 37  1  0  0  0
 20 38  1  0  0  0
 20 39  1  0  0  0
 20 40  1  0  0  0
 21 41  1  0  0  0
 21 42  1  0  0  0
 21 43  1  0  0  0
 22 44  1  0  0  0
 22 45  1  0  0  0
 22 46  1  0  0  0
 23 47  1  0  0  0
 23 48  1  0  0  0
 23 49  1  0  0  0
 24 50  1  0  0  0
 24 51  1  0  0  0
 24 52  1  0  0  0
 25 53  1  0  0  0
 25 54  1  0  0  0
 25 55  1  0  0  0
 26 56  1  0  0  0
 26 57  1  0  0  0
 26 58  1  0  0  0
 27 59  1  0  0  0
 27 60  1  0  0  0
 27 61  1  0  0  0
M  END
> <s_m_entry_id>
30889

> <s_m_entry_name>
dock_pv.102

> <s_m_Source_Path>
/home/csk/Desktop/cluster/DUD-E-result/rxra

> <s_m_Source_File>
dock_pv.maegz

> <i_m_Source_File_Index>
102

> <chembl_id>
CHEMBL115164

> <chembl_pref_name>
None

> <i_lp_mmshare_version>
53161

> <r_lp_tautomer_probability>
1

> <s_lp_Force_Field>
OPLS_2005

> <r_lp_Energy>
44.445648

> <b_lp_Chiralities_Consistent>
1

> <s_lp_Variant>
CHEMBL2061_lig262-1

> <s_i_glide_gridfile>
glide-grid_1mv9

> <i_i_glide_lignum>
305

> <i_i_glide_rotatable_bonds>
5

> <r_i_docking_score>
-11.0748172459403

> <r_i_glide_ligand_efficiency>
-0.410178416516308

> <r_i_glide_ligand_efficiency_sa>
-1.23053524819704

> <r_i_glide_ligand_efficiency_ln>
-2.578034872223

> <r_i_glide_gscore>
-11.0748172459403

> <r_i_glide_lipo>
-6.69816016600381

> <r_i_glide_hbond>
-0.191169197728409

> <r_i_glide_metal>
0

> <r_i_glide_rewards>
-2.01278013319535

> <r_i_glide_evdw>
-43.6741218566895

> <r_i_glide_ecoul>
-3.74728560447693

> <r_i_glide_erotb>
0.573091184493258

> <r_i_glide_esite>
0

> <r_i_glide_emodel>
-79.1008765491001

> <r_i_glide_energy>
-47.4214074611664

> <r_i_glide_einternal>
6.38031959533691

> <i_i_glide_confnum>
49

> <i_i_glide_posenum>
363

> <r_i_glide_eff_state_penalty>
0

> <s_user_duplicate_titles>
CHEMBL2061_lig262,187896

> <i_f3d_flags>
0

> <s_m_subgroup_title>
dock_pv

> <s_m_subgroupid>
dock_pv

> <b_m_subgroup_collapsed>
1

$$$$
CHEMBL2061_lig402
                    3D
 Schrodinger Suite 2021-1.
 62 64  0  0  1  0            999 V2000
   62.8232   46.3117   30.4231 C   0  0  0  0  0  0
   63.1187   46.4543   32.8613 C   0  0  0  0  0  0
   64.0170   45.3569   32.8150 C   0  0  0  0  0  0
   62.1920   46.8736   29.2082 C   0  0  0  0  0  0
   62.5465   46.8984   31.6570 C   0  0  0  0  0  0
   64.3011   44.7892   31.5659 C   0  0  0  0  0  0
   63.7119   45.2354   30.3872 C   0  0  0  0  0  0
   60.8664   46.8346   28.9367 C   0  0  0  0  0  0
   64.6905   44.7555   34.0752 C   0  0  0  0  0  0
   62.6747   47.0730   34.2014 C   0  0  0  0  0  0
   59.8232   46.2142   29.7381 C   0  0  0  0  0  0
   56.1910   45.7757   29.5181 C   0  0  0  0  0  0
   54.8919   45.4650   30.0592 C   0  0  0  0  0  0
   58.5338   46.1813   29.3454 C   0  0  0  0  0  0
   57.4024   45.7024   30.1297 C   0  0  0  0  0  0
   64.0979   45.3271   35.3932 C   0  0  0  0  0  0
   63.7304   46.7950   35.3017 C   0  0  0  0  0  0
   53.8787   46.0768   29.7389 O   0  0  0  0  0  0
   63.0141   47.5748   28.1462 C   0  0  0  0  0  0
   54.8858   44.4308   30.9387 O   0  0  0  0  0  0
   60.6342   47.5517   27.6170 C   0  0  0  0  0  0
   64.0072   44.4822   29.1073 C   0  0  0  0  0  0
   62.5885   48.6038   34.1572 C   0  0  0  0  0  0
   61.3035   46.4471   34.5631 C   0  0  0  0  0  0
   64.4077   43.2346   34.1260 C   0  0  0  0  0  0
   66.1986   45.1074   34.0295 C   0  0  0  0  0  0
   61.9744   48.1265   27.2043 C   0  0  0  0  0  0
   57.6148   45.2772   31.5830 C   0  0  0  0  0  0
   61.8372   47.7111   31.6723 H   0  0  0  0  0  0
   64.9809   43.9519   31.5173 H   0  0  0  0  0  0
   60.1035   45.7936   30.6924 H   0  0  0  0  0  0
   56.1196   46.1416   28.5030 H   0  0  0  0  0  0
   58.3158   46.5724   28.3619 H   0  0  0  0  0  0
   64.7955   45.1845   36.2197 H   0  0  0  0  0  0
   63.2081   44.7808   35.6967 H   0  0  0  0  0  0
   64.6452   47.3582   35.1075 H   0  0  0  0  0  0
   63.3758   47.1450   36.2725 H   0  0  0  0  0  0
   63.6080   48.3886   28.5389 H   0  0  0  0  0  0
   63.6714   46.8749   27.6309 H   0  0  0  0  0  0
   55.7708   44.0696   31.0231 H   0  0  0  0  0  0
   60.2738   46.8400   26.8746 H   0  0  0  0  0  0
   59.8962   48.3423   27.7390 H   0  0  0  0  0  0
   64.3312   43.4655   29.3370 H   0  0  0  0  0  0
   63.1148   44.3897   28.4876 H   0  0  0  0  0  0
   64.7765   45.0051   28.5404 H   0  0  0  0  0  0
   62.0941   48.8770   35.0849 H   0  0  0  0  0  0
   63.5632   49.0929   34.1399 H   0  0  0  0  0  0
   62.0080   49.0102   33.3344 H   0  0  0  0  0  0
   61.0445   46.6021   35.6112 H   0  0  0  0  0  0
   60.5012   46.8806   33.9657 H   0  0  0  0  0  0
   61.2714   45.3812   34.3569 H   0  0  0  0  0  0
   64.4080   42.8770   35.1529 H   0  0  0  0  0  0
   63.4224   42.9782   33.7389 H   0  0  0  0  0  0
   65.1393   42.6598   33.5573 H   0  0  0  0  0  0
   66.7257   44.7254   34.9021 H   0  0  0  0  0  0
   66.6868   44.6752   33.1556 H   0  0  0  0  0  0
   66.3661   46.1844   33.9923 H   0  0  0  0  0  0
   62.2158   47.9494   26.1563 H   0  0  0  0  0  0
   61.9388   49.2101   27.3390 H   0  0  0  0  0  0
   58.3461   45.9329   32.0561 H   0  0  0  0  0  0
   56.7312   45.4135   32.2012 H   0  0  0  0  0  0
   58.0079   44.2621   31.6502 H   0  0  0  0  0  0
  1  4  1  0  0  0
  1  5  2  0  0  0
  1  7  1  0  0  0
  2  5  1  0  0  0
  2 10  1  0  0  0
  2  3  2  0  0  0
  3  6  1  0  0  0
  3  9  1  0  0  0
  4  8  2  0  0  0
  4 19  1  0  0  0
  5 29  1  0  0  0
  6  7  2  0  0  0
  6 30  1  0  0  0
  7 22  1  0  0  0
  8 11  1  0  0  0
  8 21  1  0  0  0
  9 16  1  0  0  0
  9 25  1  0  0  0
  9 26  1  0  0  0
 10 17  1  0  0  0
 10 23  1  0  0  0
 10 24  1  0  0  0
 11 14  2  0  0  0
 11 31  1  0  0  0
 12 15  2  0  0  0
 12 13  1  0  0  0
 12 32  1  0  0  0
 13 18  2  0  0  0
 13 20  1  0  0  0
 14 15  1  0  0  0
 14 33  1  0  0  0
 15 28  1  0  0  0
 16 17  1  0  0  0
 16 34  1  0  0  0
 16 35  1  0  0  0
 17 36  1  0  0  0
 17 37  1  0  0  0
 19 27  1  0  0  0
 19 38  1  0  0  0
 19 39  1  0  0  0
 20 40  1  0  0  0
 21 27  1  0  0  0
 21 41  1  0  0  0
 21 42  1  0  0  0
 22 43  1  0  0  0
 22 44  1  0  0  0
 22 45  1  0  0  0
 23 46  1  0  0  0
 23 47  1  0  0  0
 23 48  1  0  0  0
 24 49  1  0  0  0
 24 50  1  0  0  0
 24 51  1  0  0  0
 25 52  1  0  0  0
 25 53  1  0  0  0
 25 54  1  0  0  0
 26 55  1  0  0  0
 26 56  1  0  0  0
 26 57  1  0  0  0
 27 58  1  0  0  0
 27 59  1  0  0  0
 28 60  1  0  0  0
 28 61  1  0  0  0
 28 62  1  0  0  0
M  END
> <s_m_entry_id>
30890

> <s_m_entry_name>
dock_pv.103

> <s_m_Source_Path>
/home/csk/Desktop/cluster/DUD-E-result/rxra

> <s_m_Source_File>
dock_pv.maegz

> <i_m_Source_File_Index>
103

> <chembl_id>
CHEMBL312737

> <chembl_pref_name>
None

> <i_lp_mmshare_version>
53161

> <r_lp_tautomer_probability>
1

> <s_lp_Force_Field>
OPLS_2005

> <r_lp_Energy>
43.860065

> <b_lp_Chiralities_Consistent>
1

> <s_lp_Variant>
CHEMBL2061_lig402-1

> <s_i_glide_gridfile>
glide-grid_1mv9

> <i_i_glide_lignum>
473

> <i_i_glide_rotatable_bonds>
5

> <r_i_docking_score>
-11.0728678713868

> <r_i_glide_ligand_efficiency>
-0.395459566835244

> <r_i_glide_ligand_efficiency_sa>
-1.2008481581408

> <r_i_glide_ligand_efficiency_ln>
-2.55594301824385

> <r_i_glide_gscore>
-11.0728678713868

> <r_i_glide_lipo>
-6.83194779379967

> <r_i_glide_hbond>
-0.163287943159028

> <r_i_glide_metal>
0

> <r_i_glide_rewards>
-1.85167272795224

> <r_i_glide_evdw>
-43.8744888305664

> <r_i_glide_ecoul>
-3.82143759727478

> <r_i_glide_erotb>
0.540980674643655

> <r_i_glide_esite>
0

> <r_i_glide_emodel>
-61.0036563110378

> <r_i_glide_energy>
-47.6959264278412

> <r_i_glide_einternal>
2.33945274353027

> <i_i_glide_confnum>
1

> <i_i_glide_posenum>
50

> <r_i_glide_eff_state_penalty>
0

> <s_user_duplicate_titles>
CHEMBL2061_lig402,125733

> <i_f3d_flags>
0

> <s_m_subgroup_title>
dock_pv

> <s_m_subgroupid>
dock_pv

> <b_m_subgroup_collapsed>
1

$$$$
CHEMBL2061_lig266
                    3D
 Schrodinger Suite 2021-1.
 54 56  0  0  1  0            999 V2000
   62.7251   46.4409   32.5496 C   0  0  0  0  0  0
   63.8453   45.6875   32.0979 C   0  0  0  0  0  0
   61.7652   46.8315   31.5977 C   0  0  0  0  0  0
   61.7924   46.4012   30.2684 C   0  0  0  0  0  0
   60.6993   46.7293   29.3094 C   0  0  0  0  0  0
   62.4934   46.7949   34.0446 C   0  0  0  0  0  0
   64.9679   45.2105   33.0512 C   0  0  0  0  0  0
   55.2373   44.9319   30.3013 C   0  0  0  0  0  0
   63.8892   45.3102   30.7445 C   0  0  0  0  0  0
   59.3302   46.1310   29.5378 C   0  0  0  0  0  0
   56.6678   45.2768   30.0096 C   0  0  0  0  0  0
   62.8781   45.6379   29.8508 C   0  0  0  0  0  0
   60.9533   47.5321   28.2423 C   0  0  0  0  0  0
   63.5152   46.0726   34.9711 C   0  0  0  0  0  0
   64.9232   46.0107   34.3792 C   0  0  0  0  0  0
   54.6830   45.2770   31.3389 O   0  0  0  0  0  0
   58.3799   46.0792   28.5073 C   0  0  0  0  0  0
   58.9158   45.6770   30.7978 C   0  0  0  0  0  0
   57.6079   45.2766   31.0393 C   0  0  0  0  0  0
   57.0652   45.6770   28.7346 C   0  0  0  0  0  0
   54.6115   44.2051   29.3390 O   0  0  0  0  0  0
   62.6661   48.3167   34.2492 C   0  0  0  0  0  0
   61.0826   46.3028   34.4691 C   0  0  0  0  0  0
   64.7562   43.7012   33.3386 C   0  0  0  0  0  0
   66.3572   45.5007   32.4363 C   0  0  0  0  0  0
   62.2641   48.2073   27.8702 C   0  0  0  0  0  0
   60.9336   47.4390   31.9192 H   0  0  0  0  0  0
   64.7068   44.7096   30.3757 H   0  0  0  0  0  0
   62.9412   45.2919   28.8288 H   0  0  0  0  0  0
   60.1650   47.7720   27.5472 H   0  0  0  0  0  0
   63.2075   45.0521   35.1893 H   0  0  0  0  0  0
   63.5510   46.5560   35.9491 H   0  0  0  0  0  0
   65.6068   45.5721   35.1087 H   0  0  0  0  0  0
   65.2848   47.0286   34.2233 H   0  0  0  0  0  0
   58.6374   46.3761   27.5039 H   0  0  0  0  0  0
   59.5765   45.6780   31.6459 H   0  0  0  0  0  0
   57.3361   44.9988   32.0459 H   0  0  0  0  0  0
   56.3655   45.7026   27.9106 H   0  0  0  0  0  0
   55.2084   43.8880   28.6539 H   0  0  0  0  0  0
   62.4208   48.5898   35.2755 H   0  0  0  0  0  0
   63.6881   48.6464   34.0755 H   0  0  0  0  0  0
   62.0151   48.8969   33.5948 H   0  0  0  0  0  0
   60.9460   46.3465   35.5504 H   0  0  0  0  0  0
   60.2863   46.9016   34.0326 H   0  0  0  0  0  0
   60.8950   45.2780   34.1474 H   0  0  0  0  0  0
   65.5161   43.3134   34.0181 H   0  0  0  0  0  0
   63.7823   43.4869   33.7770 H   0  0  0  0  0  0
   64.8080   43.1102   32.4237 H   0  0  0  0  0  0
   67.1532   45.3098   33.1580 H   0  0  0  0  0  0
   66.5666   44.8777   31.5669 H   0  0  0  0  0  0
   66.4410   46.5417   32.1222 H   0  0  0  0  0  0
   62.6376   47.8019   26.9297 H   0  0  0  0  0  0
   62.1007   49.2769   27.7391 H   0  0  0  0  0  0
   63.0402   48.0809   28.6230 H   0  0  0  0  0  0
  1  2  2  0  0  0
  1  3  1  0  0  0
  1  6  1  0  0  0
  2  7  1  0  0  0
  2  9  1  0  0  0
  3  4  2  0  0  0
  3 27  1  0  0  0
  4  5  1  0  0  0
  4 12  1  0  0  0
  5 10  1  0  0  0
  5 13  2  0  0  0
  6 14  1  0  0  0
  6 22  1  0  0  0
  6 23  1  0  0  0
  7 24  1  0  0  0
  7 25  1  0  0  0
  7 15  1  0  0  0
  8 11  1  0  0  0
  8 16  2  0  0  0
  8 21  1  0  0  0
  9 12  2  0  0  0
  9 28  1  0  0  0
 10 17  1  0  0  0
 10 18  2  0  0  0
 11 19  2  0  0  0
 11 20  1  0  0  0
 12 29  1  0  0  0
 13 26  1  0  0  0
 13 30  1  0  0  0
 14 15  1  0  0  0
 14 31  1  0  0  0
 14 32  1  0  0  0
 15 33  1  0  0  0
 15 34  1  0  0  0
 17 20  2  0  0  0
 17 35  1  0  0  0
 18 19  1  0  0  0
 18 36  1  0  0  0
 19 37  1  0  0  0
 20 38  1  0  0  0
 21 39  1  0  0  0
 22 40  1  0  0  0
 22 41  1  0  0  0
 22 42  1  0  0  0
 23 43  1  0  0  0
 23 44  1  0  0  0
 23 45  1  0  0  0
 24 46  1  0  0  0
 24 47  1  0  0  0
 24 48  1  0  0  0
 25 49  1  0  0  0
 25 50  1  0  0  0
 25 51  1  0  0  0
 26 52  1  0  0  0
 26 53  1  0  0  0
 26 54  1  0  0  0
M  END
> <s_m_entry_id>
30891

> <s_m_entry_name>
dock_pv.104

> <s_m_Source_Path>
/home/csk/Desktop/cluster/DUD-E-result/rxra

> <s_m_Source_File>
dock_pv.maegz

> <i_m_Source_File_Index>
104

> <chembl_id>
CHEMBL115050

> <chembl_pref_name>
None

> <i_lp_mmshare_version>
53161

> <r_lp_tautomer_probability>
1

> <s_lp_Force_Field>
OPLS_2005

> <r_lp_Energy>
31.063284

> <b_lp_Chiralities_Consistent>
1

> <s_lp_Variant>
CHEMBL2061_lig266-1

> <s_i_glide_gridfile>
glide-grid_1mv9

> <i_i_glide_lignum>
309

> <i_i_glide_rotatable_bonds>
4

> <r_i_docking_score>
-11.0661102441433

> <r_i_glide_ligand_efficiency>
-0.425619624774744

> <r_i_glide_ligand_efficiency_sa>
-1.26089646366283

> <r_i_glide_ligand_efficiency_ln>
-2.59883967996771

> <r_i_glide_gscore>
-11.0661102441433

> <r_i_glide_lipo>
-6.42616361881183

> <r_i_glide_hbond>
-0.0657389601439968

> <r_i_glide_metal>
0

> <r_i_glide_rewards>
-2.2349180074914

> <r_i_glide_evdw>
-43.2086181640625

> <r_i_glide_ecoul>
-4.32769632339478

> <r_i_glide_erotb>
0.470295699016224

> <r_i_glide_esite>
0

> <r_i_glide_emodel>
-74.194966324127

> <r_i_glide_energy>
-47.5363144874573

> <r_i_glide_einternal>
6.93939399719238

> <i_i_glide_confnum>
48

> <i_i_glide_posenum>
14

> <r_i_glide_eff_state_penalty>
0

> <s_user_duplicate_titles>
CHEMBL2061_lig266,CHEMBL2061_lig271,187855

> <i_f3d_flags>
0

> <s_m_subgroup_title>
dock_pv

> <s_m_subgroupid>
dock_pv

> <b_m_subgroup_collapsed>
1

$$$$
CHEMBL2061_lig367
                    3D
 Schrodinger Suite 2021-1.
 51 53  0  0  1  0            999 V2000
   62.8350   46.5017   32.9384 C   0  0  0  0  0  0
   61.9566   46.4375   30.6303 C   0  0  0  0  0  0
   63.9189   45.6736   32.5367 C   0  0  0  0  0  0
   60.9123   46.8257   29.6424 C   0  0  0  0  0  0
   61.9140   46.9015   31.9500 C   0  0  0  0  0  0
   63.9545   45.2215   31.2074 C   0  0  0  0  0  0
   62.9868   45.5679   30.2743 C   0  0  0  0  0  0
   62.6542   46.9837   34.4063 C   0  0  0  0  0  0
   65.0185   45.1976   33.5147 C   0  0  0  0  0  0
   55.4242   45.0415   30.2824 C   0  0  0  0  0  0
   59.5465   46.2101   29.7334 C   0  0  0  0  0  0
   56.8735   45.3526   30.0528 C   0  0  0  0  0  0
   61.2513   47.7109   28.6813 C   0  0  0  0  0  0
   64.9807   46.0052   34.8357 C   0  0  0  0  0  0
   63.5658   46.1846   35.3752 C   0  0  0  0  0  0
   54.8447   45.2770   31.3390 O   0  0  0  0  0  0
   58.6457   46.2425   28.6592 C   0  0  0  0  0  0
   59.0860   45.6771   30.9400 C   0  0  0  0  0  0
   57.7713   45.2763   31.1134 C   0  0  0  0  0  0
   57.3256   45.8199   28.8149 C   0  0  0  0  0  0
   63.0784   44.8767   28.6929 Cl  0  0  0  0  0  0
   54.8080   44.4769   29.2205 O   0  0  0  0  0  0
   63.0368   48.4767   34.4970 C   0  0  0  0  0  0
   64.7925   43.6967   33.8212 C   0  0  0  0  0  0
   66.4080   45.4744   32.9075 C   0  0  0  0  0  0
   61.2079   46.7252   34.8904 C   0  0  0  0  0  0
   61.1177   47.5771   32.2199 H   0  0  0  0  0  0
   64.7365   44.5480   30.8905 H   0  0  0  0  0  0
   62.2490   48.1241   28.6377 H   0  0  0  0  0  0
   60.5581   48.0477   27.9262 H   0  0  0  0  0  0
   65.6054   45.5272   35.5912 H   0  0  0  0  0  0
   65.4225   46.9913   34.6916 H   0  0  0  0  0  0
   63.1501   45.1982   35.5780 H   0  0  0  0  0  0
   63.6088   46.6760   36.3485 H   0  0  0  0  0  0
   58.9449   46.6273   27.6969 H   0  0  0  0  0  0
   59.7094   45.6771   31.8177 H   0  0  0  0  0  0
   57.4605   44.9502   32.0945 H   0  0  0  0  0  0
   56.6542   45.9140   27.9727 H   0  0  0  0  0  0
   55.4346   44.1998   28.5474 H   0  0  0  0  0  0
   62.9787   48.8513   35.5202 H   0  0  0  0  0  0
   64.0479   48.6621   34.1392 H   0  0  0  0  0  0
   62.3733   49.0884   33.8852 H   0  0  0  0  0  0
   65.5238   43.3257   34.5391 H   0  0  0  0  0  0
   63.8000   43.4981   34.2257 H   0  0  0  0  0  0
   64.8939   43.0848   32.9250 H   0  0  0  0  0  0
   67.2060   45.2396   33.6149 H   0  0  0  0  0  0
   66.6024   44.8768   32.0180 H   0  0  0  0  0  0
   66.5255   46.5214   32.6221 H   0  0  0  0  0  0
   61.0833   47.0120   35.9357 H   0  0  0  0  0  0
   60.4631   47.2770   34.3238 H   0  0  0  0  0  0
   60.9332   45.6769   34.8062 H   0  0  0  0  0  0
  1  3  2  0  0  0
  1  5  1  0  0  0
  1  8  1  0  0  0
  2  5  2  0  0  0
  2  4  1  0  0  0
  2  7  1  0  0  0
  3  6  1  0  0  0
  3  9  1  0  0  0
  4 11  1  0  0  0
  4 13  2  0  0  0
  5 27  1  0  0  0
  6  7  2  0  0  0
  6 28  1  0  0  0
  7 21  1  0  0  0
  8 15  1  0  0  0
  8 23  1  0  0  0
  8 26  1  0  0  0
  9 24  1  0  0  0
  9 25  1  0  0  0
  9 14  1  0  0  0
 10 12  1  0  0  0
 10 16  2  0  0  0
 10 22  1  0  0  0
 11 17  2  0  0  0
 11 18  1  0  0  0
 12 19  1  0  0  0
 12 20  2  0  0  0
 13 29  1  0  0  0
 13 30  1  0  0  0
 14 15  1  0  0  0
 14 31  1  0  0  0
 14 32  1  0  0  0
 15 33  1  0  0  0
 15 34  1  0  0  0
 17 20  1  0  0  0
 17 35  1  0  0  0
 18 19  2  0  0  0
 18 36  1  0  0  0
 19 37  1  0  0  0
 20 38  1  0  0  0
 22 39  1  0  0  0
 23 40  1  0  0  0
 23 41  1  0  0  0
 23 42  1  0  0  0
 24 43  1  0  0  0
 24 44  1  0  0  0
 24 45  1  0  0  0
 25 46  1  0  0  0
 25 47  1  0  0  0
 25 48  1  0  0  0
 26 49  1  0  0  0
 26 50  1  0  0  0
 26 51  1  0  0  0
M  END
> <s_m_entry_id>
30892

> <s_m_entry_name>
dock_pv.105

> <s_m_Source_Path>
/home/csk/Desktop/cluster/DUD-E-result/rxra

> <s_m_Source_File>
dock_pv.maegz

> <i_m_Source_File_Index>
105

> <chembl_id>
CHEMBL101609

> <chembl_pref_name>
None

> <i_lp_mmshare_version>
53161

> <r_lp_tautomer_probability>
1

> <s_lp_Force_Field>
OPLS_2005

> <r_lp_Energy>
29.853733

> <b_lp_Chiralities_Consistent>
1

> <s_lp_Variant>
CHEMBL2061_lig367-1

> <s_i_glide_gridfile>
glide-grid_1mv9

> <i_i_glide_lignum>
427

> <i_i_glide_rotatable_bonds>
4

> <r_i_docking_score>
-11.0571505791769

> <r_i_glide_ligand_efficiency>
-0.425275022276035

> <r_i_glide_ligand_efficiency_sa>
-1.25987558011635

> <r_i_glide_ligand_efficiency_ln>
-2.5967355320494

> <r_i_glide_gscore>
-11.0571505791769

> <r_i_glide_lipo>
-6.52608357494922

> <r_i_glide_hbond>
-0.0172066374892157

> <r_i_glide_metal>
0

> <r_i_glide_rewards>
-2.13356607462612

> <r_i_glide_evdw>
-47.3365592956543

> <r_i_glide_ecoul>
-2.92257213592529

> <r_i_glide_erotb>
0.424919493059154

> <r_i_glide_esite>
0

> <r_i_glide_emodel>
-78.4173259211725

> <r_i_glide_energy>
-50.2591314315796

> <r_i_glide_einternal>
4.30750131607056

> <i_i_glide_confnum>
15

> <i_i_glide_posenum>
180

> <r_i_glide_eff_state_penalty>
0

> <s_user_duplicate_titles>
CHEMBL2061_lig367,163355

> <i_f3d_flags>
0

> <s_m_subgroup_title>
dock_pv

> <s_m_subgroupid>
dock_pv

> <b_m_subgroup_collapsed>
1

$$$$
CHEMBL2061_lig426
                    3D
 Schrodinger Suite 2021-1.
 49 51  0  0  1  0            999 V2000
   64.0383   46.8028   35.2498 C   0  0  0  0  0  0
   65.0523   45.7060   34.8899 C   0  0  0  0  0  0
   65.5404   45.7398   33.4141 C   0  0  0  0  0  0
   63.2239   47.1465   34.2078 N   0  0  0  0  0  0
   64.0080   47.2770   36.3875 O   0  0  0  0  0  0
   66.3717   44.4768   33.2092 C   0  0  0  0  0  0
   66.4456   46.9446   33.1394 C   0  0  0  0  0  0
   63.1880   46.5222   32.9236 C   0  0  0  0  0  0
   64.3210   45.8137   32.4775 C   0  0  0  0  0  0
   64.3038   45.2498   31.1923 C   0  0  0  0  0  0
   63.2009   45.3694   30.3469 C   0  0  0  0  0  0
   62.0730   46.0770   30.7845 C   0  0  0  0  0  0
   62.0860   46.6552   32.0578 C   0  0  0  0  0  0
   62.2013   48.1592   34.5275 C   0  0  0  0  0  0
   60.9226   47.5744   35.1501 C   0  0  0  0  0  0
   63.2392   44.6852   28.9855 C   0  0  0  0  0  0
   60.8541   46.2385   29.9352 C   0  0  0  0  0  0
   59.3124   45.6770   30.5145 S   0  0  0  0  0  0
   58.4950   46.2131   29.0871 C   0  0  0  0  0  0
   59.4066   46.7666   28.1936 C   0  0  0  0  0  0
   60.7235   46.7772   28.6625 C   0  0  0  0  0  0
   57.0491   46.1245   28.9427 C   0  0  0  0  0  0
   56.1801   45.6721   29.8761 C   0  0  0  0  0  0
   54.7481   45.6770   29.7390 C   0  0  0  0  0  0
   54.2865   46.6829   28.9390 O   0  0  0  0  0  0
   54.0080   44.9003   30.3392 O   0  0  0  0  0  0
   65.8954   45.8032   35.5713 H   0  0  0  0  0  0
   64.5666   44.7570   35.1224 H   0  0  0  0  0  0
   67.2052   44.4770   33.9139 H   0  0  0  0  0  0
   65.7932   43.5615   33.3438 H   0  0  0  0  0  0
   66.8080   44.4770   32.2138 H   0  0  0  0  0  0
   67.3510   46.8901   33.7390 H   0  0  0  0  0  0
   66.7721   46.8770   32.1041 H   0  0  0  0  0  0
   65.9678   47.9071   33.3202 H   0  0  0  0  0  0
   65.1654   44.7120   30.8282 H   0  0  0  0  0  0
   61.2081   47.2022   32.3633 H   0  0  0  0  0  0
   62.6179   48.8770   35.2331 H   0  0  0  0  0  0
   61.9848   48.7568   33.6423 H   0  0  0  0  0  0
   60.2057   48.3709   35.3392 H   0  0  0  0  0  0
   60.4401   46.8416   34.5034 H   0  0  0  0  0  0
   61.1347   47.0977   36.1079 H   0  0  0  0  0  0
   64.0080   43.9134   28.9402 H   0  0  0  0  0  0
   62.2920   44.1851   28.7791 H   0  0  0  0  0  0
   63.4194   45.4126   28.1940 H   0  0  0  0  0  0
   59.1355   47.1784   27.2389 H   0  0  0  0  0  0
   61.5528   47.1805   28.1000 H   0  0  0  0  0  0
   56.6894   46.4770   27.9876 H   0  0  0  0  0  0
   56.5264   45.2702   30.8173 H   0  0  0  0  0  0
   55.0080   47.2211   28.6090 H   0  0  0  0  0  0
  1  5  2  0  0  0
  1  2  1  0  0  0
  1  4  1  0  0  0
  2  3  1  0  0  0
  2 27  1  0  0  0
  2 28  1  0  0  0
  3  6  1  0  0  0
  3  7  1  0  0  0
  3  9  1  0  0  0
  4  8  1  0  0  0
  4 14  1  0  0  0
  6 29  1  0  0  0
  6 30  1  0  0  0
  6 31  1  0  0  0
  7 32  1  0  0  0
  7 33  1  0  0  0
  7 34  1  0  0  0
  8  9  2  0  0  0
  8 13  1  0  0  0
  9 10  1  0  0  0
 10 11  2  0  0  0
 10 35  1  0  0  0
 11 12  1  0  0  0
 11 16  1  0  0  0
 12 13  2  0  0  0
 12 17  1  0  0  0
 13 36  1  0  0  0
 14 15  1  0  0  0
 14 37  1  0  0  0
 14 38  1  0  0  0
 15 39  1  0  0  0
 15 40  1  0  0  0
 15 41  1  0  0  0
 16 42  1  0  0  0
 16 43  1  0  0  0
 16 44  1  0  0  0
 17 18  1  0  0  0
 17 21  2  0  0  0
 18 19  1  0  0  0
 19 20  2  0  0  0
 19 22  1  0  0  0
 20 21  1  0  0  0
 20 45  1  0  0  0
 21 46  1  0  0  0
 22 23  2  0  0  0
 22 47  1  0  0  0
 23 24  1  0  0  0
 23 48  1  0  0  0
 24 25  1  0  0  0
 24 26  2  0  0  0
 25 49  1  0  0  0
M  END
> <s_m_entry_id>
30893

> <s_m_entry_name>
dock_pv.106

> <s_m_Source_Path>
/home/csk/Desktop/cluster/DUD-E-result/rxra

> <s_m_Source_File>
dock_pv.maegz

> <i_m_Source_File_Index>
106

> <chembl_id>
CHEMBL400380

> <chembl_pref_name>
None

> <i_lp_mmshare_version>
53161

> <r_lp_tautomer_probability>
1

> <s_lp_Force_Field>
OPLS_2005

> <r_lp_Energy>
30.441268

> <b_lp_Chiralities_Consistent>
1

> <s_lp_Variant>
CHEMBL2061_lig426-1

> <s_i_glide_gridfile>
glide-grid_1mv9

> <i_i_glide_lignum>
497

> <i_i_glide_rotatable_bonds>
5

> <r_i_docking_score>
-11.050496720303

> <r_i_glide_ligand_efficiency>
-0.425019104627037

> <r_i_glide_ligand_efficiency_sa>
-1.25911742508817

> <r_i_glide_ligand_efficiency_ln>
-2.59517289512594

> <r_i_glide_gscore>
-11.050496720303

> <r_i_glide_lipo>
-5.17293359529375

> <r_i_glide_hbond>
-0.329606506838554

> <r_i_glide_metal>
0

> <r_i_glide_rewards>
-3.10367155948847

> <r_i_glide_evdw>
-44.8637161254883

> <r_i_glide_ecoul>
-4.16548824310303

> <r_i_glide_erotb>
0.423723984057686

> <r_i_glide_esite>
0

> <r_i_glide_emodel>
-77.8979320378872

> <r_i_glide_energy>
-49.0292043685913

> <r_i_glide_einternal>
2.42588782310486

> <i_i_glide_confnum>
12

> <i_i_glide_posenum>
267

> <r_i_glide_eff_state_penalty>
0

> <s_user_duplicate_titles>
CHEMBL2061_lig426

> <i_f3d_flags>
0

> <s_m_subgroup_title>
dock_pv

> <s_m_subgroupid>
dock_pv

> <b_m_subgroup_collapsed>
1

$$$$
CHEMBL2061_lig280
                    3D
 Schrodinger Suite 2021-1.
 54 56  0  0  1  0            999 V2000
   56.1530   45.3475   29.8667 C   0  0  0  0  0  0
   63.1317   46.6533   33.2593 C   0  0  0  0  0  0
   64.3203   46.0485   32.7750 C   0  0  0  0  0  0
   62.1210   46.4078   31.0372 C   0  0  0  0  0  0
   60.8995   46.5159   30.2178 C   0  0  0  0  0  0
   58.4396   45.7883   30.1081 C   0  0  0  0  0  0
   57.2754   45.3121   30.7173 C   0  0  0  0  0  0
   62.0730   46.8311   32.3626 C   0  0  0  0  0  0
   56.5085   45.6772   28.5692 C   0  0  0  0  0  0
   64.3686   45.6498   31.4308 C   0  0  0  0  0  0
   59.7413   46.0072   30.7123 C   0  0  0  0  0  0
   54.8023   45.1130   30.2516 C   0  0  0  0  0  0
   58.1707   46.0770   28.4432 S   0  0  0  0  0  0
   63.2926   45.7996   30.5652 C   0  0  0  0  0  0
   62.9362   47.0763   34.7347 C   0  0  0  0  0  0
   65.5765   45.8779   33.6506 C   0  0  0  0  0  0
   54.4159   44.1762   30.9390 O   0  0  0  0  0  0
   64.2936   47.1606   35.4674 C   0  0  0  0  0  0
   65.2108   45.9823   35.1507 C   0  0  0  0  0  0
   53.9894   46.0774   29.7390 O   0  0  0  0  0  0
   61.0588   47.2371   28.8816 C   0  0  0  0  0  0
   63.4194   45.2233   29.1587 C   0  0  0  0  0  0
   62.3312   48.4771   34.8046 C   0  0  0  0  0  0
   61.9942   46.0829   35.4438 C   0  0  0  0  0  0
   66.2061   44.4860   33.4497 C   0  0  0  0  0  0
   66.5741   46.9787   33.2348 C   0  0  0  0  0  0
   57.2249   45.0516   31.7632 H   0  0  0  0  0  0
   61.1566   47.2744   32.7204 H   0  0  0  0  0  0
   55.8804   45.7363   27.6918 H   0  0  0  0  0  0
   65.2706   45.1999   31.0439 H   0  0  0  0  0  0
   59.7570   45.6770   31.7364 H   0  0  0  0  0  0
   64.1416   47.2355   36.5459 H   0  0  0  0  0  0
   64.8079   48.0768   35.1841 H   0  0  0  0  0  0
   64.7371   45.0603   35.4907 H   0  0  0  0  0  0
   66.1178   46.0770   35.7389 H   0  0  0  0  0  0
   54.5082   46.7139   29.2413 H   0  0  0  0  0  0
   61.1003   46.5268   28.0556 H   0  0  0  0  0  0
   60.2425   47.9385   28.7110 H   0  0  0  0  0  0
   61.9775   47.8246   28.8576 H   0  0  0  0  0  0
   64.2115   44.4767   29.0995 H   0  0  0  0  0  0
   62.5023   44.7112   28.8655 H   0  0  0  0  0  0
   63.6276   46.0100   28.4338 H   0  0  0  0  0  0
   62.3908   48.8771   35.8189 H   0  0  0  0  0  0
   62.8435   49.1751   34.1389 H   0  0  0  0  0  0
   61.2748   48.4773   34.5484 H   0  0  0  0  0  0
   61.4216   46.5739   36.2277 H   0  0  0  0  0  0
   61.2477   45.6770   34.7624 H   0  0  0  0  0  0
   62.5400   45.2768   35.9177 H   0  0  0  0  0  0
   66.9143   44.2602   34.2433 H   0  0  0  0  0  0
   65.4647   43.6858   33.4270 H   0  0  0  0  0  0
   66.7705   44.4769   32.5187 H   0  0  0  0  0  0
   67.5303   46.8762   33.7389 H   0  0  0  0  0  0
   66.8048   46.8771   32.1749 H   0  0  0  0  0  0
   66.1955   47.9873   33.3966 H   0  0  0  0  0  0
  1  7  1  0  0  0
  1  9  2  0  0  0
  1 12  1  0  0  0
  2  8  1  0  0  0
  2 15  1  0  0  0
  2  3  2  0  0  0
  3 10  1  0  0  0
  3 16  1  0  0  0
  4  5  1  0  0  0
  4  8  2  0  0  0
  4 14  1  0  0  0
  5 11  2  0  0  0
  5 21  1  0  0  0
  6  7  2  0  0  0
  6 11  1  0  0  0
  6 13  1  0  0  0
  7 27  1  0  0  0
  8 28  1  0  0  0
  9 13  1  0  0  0
  9 29  1  0  0  0
 10 14  2  0  0  0
 10 30  1  0  0  0
 11 31  1  0  0  0
 12 17  2  0  0  0
 12 20  1  0  0  0
 14 22  1  0  0  0
 15 18  1  0  0  0
 15 23  1  0  0  0
 15 24  1  0  0  0
 16 19  1  0  0  0
 16 25  1  0  0  0
 16 26  1  0  0  0
 18 19  1  0  0  0
 18 32  1  0  0  0
 18 33  1  0  0  0
 19 34  1  0  0  0
 19 35  1  0  0  0
 20 36  1  0  0  0
 21 37  1  0  0  0
 21 38  1  0  0  0
 21 39  1  0  0  0
 22 40  1  0  0  0
 22 41  1  0  0  0
 22 42  1  0  0  0
 23 43  1  0  0  0
 23 44  1  0  0  0
 23 45  1  0  0  0
 24 46  1  0  0  0
 24 47  1  0  0  0
 24 48  1  0  0  0
 25 49  1  0  0  0
 25 50  1  0  0  0
 25 51  1  0  0  0
 26 52  1  0  0  0
 26 53  1  0  0  0
 26 54  1  0  0  0
M  END
> <s_m_entry_id>
30894

> <s_m_entry_name>
dock_pv.107

> <s_m_Source_Path>
/home/csk/Desktop/cluster/DUD-E-result/rxra

> <s_m_Source_File>
dock_pv.maegz

> <i_m_Source_File_Index>
107

> <chembl_id>
CHEMBL93628

> <chembl_pref_name>
None

> <i_lp_mmshare_version>
53161

> <r_lp_tautomer_probability>
1

> <s_lp_Force_Field>
OPLS_2005

> <r_lp_Energy>
25.284108

> <b_lp_Chiralities_Consistent>
1

> <s_lp_Variant>
CHEMBL2061_lig280-1

> <s_i_glide_gridfile>
glide-grid_1mv9

> <i_i_glide_lignum>
325

> <i_i_glide_rotatable_bonds>
4

> <r_i_docking_score>
-11.0484661792423

> <r_i_glide_ligand_efficiency>
-0.424941006893934

> <r_i_glide_ligand_efficiency_sa>
-1.25888606086116

> <r_i_glide_ligand_efficiency_ln>
-2.59469602922059

> <r_i_glide_gscore>
-11.0484661792423

> <r_i_glide_lipo>
-6.10247854826524

> <r_i_glide_hbond>
-0.32

> <r_i_glide_metal>
0

> <r_i_glide_rewards>
-2.35745514999084

> <r_i_glide_evdw>
-39.7830581665039

> <r_i_glide_ecoul>
-4.70031261444092

> <r_i_glide_erotb>
0.425667319505131

> <r_i_glide_esite>
0

> <r_i_glide_emodel>
-62.6284832044695

> <r_i_glide_energy>
-44.4833707809448

> <r_i_glide_einternal>
5.77320575714111

> <i_i_glide_confnum>
8

> <i_i_glide_posenum>
312

> <r_i_glide_eff_state_penalty>
0

> <s_user_duplicate_titles>
CHEMBL2061_lig280,150246

> <i_f3d_flags>
0

> <s_m_subgroup_title>
dock_pv

> <s_m_subgroupid>
dock_pv

> <b_m_subgroup_collapsed>
1

$$$$
CHEMBL2061_lig34
                    3D
 Schrodinger Suite 2021-1.
 52 55  0  0  1  0            999 V2000
   62.6612   48.4718   34.2091 C   0  0  0  0  0  0
   62.4191   46.9490   34.2173 C   0  0  0  0  0  0
   61.0161   46.6020   34.7826 C   0  0  0  0  0  0
   64.9272   43.9461   33.6612 C   0  0  0  0  0  0
   64.9728   45.4528   33.2990 C   0  0  0  0  0  0
   66.3187   45.8497   32.6402 C   0  0  0  0  0  0
   64.8673   46.2758   34.6056 C   0  0  0  0  0  0
   63.4468   46.2972   35.1807 C   0  0  0  0  0  0
   63.7858   45.7558   32.3447 C   0  0  0  0  0  0
   62.5889   46.3978   32.7728 C   0  0  0  0  0  0
   61.5277   46.5094   31.8489 C   0  0  0  0  0  0
   61.5988   46.0112   30.5447 C   0  0  0  0  0  0
   62.7837   45.3811   30.1289 C   0  0  0  0  0  0
   63.8461   45.2790   31.0242 C   0  0  0  0  0  0
   60.4551   46.0835   29.7048 N   0  0  0  0  0  0
   59.3625   46.5753   27.8338 N   0  0  0  0  0  0
   60.5887   46.5580   28.4456 N   0  0  0  0  0  0
   58.4443   46.1644   28.7465 C   0  0  0  0  0  0
   59.1019   45.8298   29.9562 C   0  0  0  0  0  0
   58.3681   45.3625   31.0571 C   0  0  0  0  0  0
   56.9818   45.2769   30.9097 C   0  0  0  0  0  0
   56.3144   45.6682   29.7510 C   0  0  0  0  0  0
   57.0497   46.0767   28.6334 C   0  0  0  0  0  0
   54.8068   45.6732   29.7361 C   0  0  0  0  0  0
   54.2589   46.6622   28.9677 O   0  0  0  0  0  0
   54.1295   44.8985   30.4152 O   0  0  0  0  0  0
   62.9283   44.7100   28.7651 C   0  0  0  0  0  0
   62.5005   48.8749   35.2064 H   0  0  0  0  0  0
   63.6735   48.7285   33.9214 H   0  0  0  0  0  0
   62.0079   48.9980   33.5160 H   0  0  0  0  0  0
   60.9643   46.7634   35.8595 H   0  0  0  0  0  0
   60.2343   47.2211   34.3512 H   0  0  0  0  0  0
   60.7455   45.5644   34.5914 H   0  0  0  0  0  0
   65.7042   43.6790   34.3774 H   0  0  0  0  0  0
   63.9710   43.6501   34.0938 H   0  0  0  0  0  0
   65.0773   43.3187   32.7848 H   0  0  0  0  0  0
   67.1469   45.7693   33.3459 H   0  0  0  0  0  0
   66.5731   45.2072   31.7984 H   0  0  0  0  0  0
   66.2993   46.8771   32.2749 H   0  0  0  0  0  0
   65.2050   47.3011   34.4377 H   0  0  0  0  0  0
   65.5573   45.8822   35.3558 H   0  0  0  0  0  0
   63.4547   46.8222   36.1383 H   0  0  0  0  0  0
   63.1503   45.2759   35.4200 H   0  0  0  0  0  0
   60.6162   46.9902   32.1611 H   0  0  0  0  0  0
   64.7305   44.7549   30.6989 H   0  0  0  0  0  0
   58.8078   45.1294   32.0116 H   0  0  0  0  0  0
   56.3893   44.9445   31.7390 H   0  0  0  0  0  0
   56.5643   46.3279   27.7049 H   0  0  0  0  0  0
   54.9356   47.2185   28.5833 H   0  0  0  0  0  0
   63.7115   43.9505   28.7668 H   0  0  0  0  0  0
   62.0105   44.1926   28.4875 H   0  0  0  0  0  0
   63.1541   45.4480   27.9955 H   0  0  0  0  0  0
  1  2  1  0  0  0
  1 28  1  0  0  0
  1 29  1  0  0  0
  1 30  1  0  0  0
  2  8  1  0  0  0
  2 10  1  0  0  0
  2  3  1  0  0  0
  3 31  1  0  0  0
  3 32  1  0  0  0
  3 33  1  0  0  0
  4  5  1  0  0  0
  4 34  1  0  0  0
  4 35  1  0  0  0
  4 36  1  0  0  0
  5  6  1  0  0  0
  5  7  1  0  0  0
  5  9  1  0  0  0
  6 37  1  0  0  0
  6 38  1  0  0  0
  6 39  1  0  0  0
  7  8  1  0  0  0
  7 40  1  0  0  0
  7 41  1  0  0  0
  8 42  1  0  0  0
  8 43  1  0  0  0
  9 14  1  0  0  0
  9 10  2  0  0  0
 10 11  1  0  0  0
 11 12  2  0  0  0
 11 44  1  0  0  0
 12 15  1  0  0  0
 12 13  1  0  0  0
 13 14  2  0  0  0
 13 27  1  0  0  0
 14 45  1  0  0  0
 15 19  1  0  0  0
 15 17  1  0  0  0
 16 18  1  0  0  0
 16 17  2  0  0  0
 18 19  2  0  0  0
 18 23  1  0  0  0
 19 20  1  0  0  0
 20 21  2  0  0  0
 20 46  1  0  0  0
 21 22  1  0  0  0
 21 47  1  0  0  0
 22 23  2  0  0  0
 22 24  1  0  0  0
 23 48  1  0  0  0
 24 25  1  0  0  0
 24 26  2  0  0  0
 25 49  1  0  0  0
 27 50  1  0  0  0
 27 51  1  0  0  0
 27 52  1  0  0  0
M  END
> <s_m_entry_id>
30895

> <s_m_entry_name>
dock_pv.108

> <s_m_Source_Path>
/home/csk/Desktop/cluster/DUD-E-result/rxra

> <s_m_Source_File>
dock_pv.maegz

> <i_m_Source_File_Index>
108

> <chembl_id>
CHEMBL2146901

> <chembl_pref_name>
None

> <i_lp_mmshare_version>
53161

> <r_lp_tautomer_probability>
1

> <s_lp_Force_Field>
OPLS_2005

> <r_lp_Energy>
27.784588

> <b_lp_Chiralities_Consistent>
1

> <s_lp_Variant>
CHEMBL2061_lig34-1

> <s_i_glide_gridfile>
glide-grid_1mv9

> <i_i_glide_lignum>
38

> <i_i_glide_rotatable_bonds>
3

> <r_i_docking_score>
-11.0460797285022

> <r_i_glide_ligand_efficiency>
-0.409114064018601

> <r_i_glide_ligand_efficiency_sa>
-1.22734219070743

> <r_i_glide_ligand_efficiency_ln>
-2.57134525193841

> <r_i_glide_gscore>
-11.0460797285022

> <r_i_glide_lipo>
-5.78370766873362

> <r_i_glide_hbond>
-0.284775043135154

> <r_i_glide_metal>
0

> <r_i_glide_rewards>
-2.42399802740912

> <r_i_glide_evdw>
-45.4345626831055

> <r_i_glide_ecoul>
-3.81846714019775

> <r_i_glide_erotb>
0.290899215960604

> <r_i_glide_esite>
0

> <r_i_glide_emodel>
-78.4354445455586

> <r_i_glide_energy>
-49.2530298233032

> <r_i_glide_einternal>
3.19611430168152

> <i_i_glide_confnum>
9

> <i_i_glide_posenum>
283

> <r_i_glide_eff_state_penalty>
0

> <s_user_duplicate_titles>
CHEMBL2061_lig34

> <i_f3d_flags>
0

> <s_m_subgroup_title>
dock_pv

> <s_m_subgroupid>
dock_pv

> <b_m_subgroup_collapsed>
1

$$$$
CHEMBL2061_lig308
                    3D
 Schrodinger Suite 2021-1.
 50 52  0  0  1  0            999 V2000
   55.9366   45.6664   29.4686 C   0  0  0  0  0  0
   56.4708   46.0620   28.3378 N   0  0  0  0  0  0
   62.7688   46.4698   33.0335 C   0  0  0  0  0  0
   56.9215   45.2961   30.3795 C   0  0  0  0  0  0
   63.9350   45.7906   32.5863 C   0  0  0  0  0  0
   58.1108   45.6943   29.8152 C   0  0  0  0  0  0
   61.7353   46.6752   32.0993 C   0  0  0  0  0  0
   54.5336   45.6502   29.7406 C   0  0  0  0  0  0
   57.8512   46.0773   28.5426 O   0  0  0  0  0  0
   59.4268   45.8376   30.3933 C   0  0  0  0  0  0
   60.6173   46.2262   29.8829 C   0  0  0  0  0  0
   61.8038   46.2295   30.7736 C   0  0  0  0  0  0
   62.6229   46.9726   34.4978 C   0  0  0  0  0  0
   65.0680   45.3586   33.5435 C   0  0  0  0  0  0
   64.0217   45.4230   31.2336 C   0  0  0  0  0  0
   62.9839   45.6399   30.3401 C   0  0  0  0  0  0
   54.0076   44.8762   30.5390 O   0  0  0  0  0  0
   63.5686   46.1900   35.4442 C   0  0  0  0  0  0
   64.9848   46.0905   34.9022 C   0  0  0  0  0  0
   53.8752   46.6624   29.0989 O   0  0  0  0  0  0
   60.8404   46.6770   28.4417 C   0  0  0  0  0  0
   62.9926   48.4730   34.5391 C   0  0  0  0  0  0
   61.2041   46.7205   35.0485 C   0  0  0  0  0  0
   64.9437   43.8341   33.7892 C   0  0  0  0  0  0
   66.4241   45.7600   32.9432 C   0  0  0  0  0  0
   56.7773   44.9380   31.3864 H   0  0  0  0  0  0
   60.8298   47.1683   32.4148 H   0  0  0  0  0  0
   59.3937   45.5780   31.4375 H   0  0  0  0  0  0
   64.8864   44.8942   30.8659 H   0  0  0  0  0  0
   63.0797   45.2666   29.3311 H   0  0  0  0  0  0
   63.2003   45.1785   35.6210 H   0  0  0  0  0  0
   63.6053   46.6642   36.4283 H   0  0  0  0  0  0
   65.6076   45.5922   35.6445 H   0  0  0  0  0  0
   65.3917   47.0977   34.8170 H   0  0  0  0  0  0
   54.4749   47.1657   28.5393 H   0  0  0  0  0  0
   61.5570   47.4982   28.4046 H   0  0  0  0  0  0
   61.2351   45.8522   27.8479 H   0  0  0  0  0  0
   59.9324   47.0242   27.9557 H   0  0  0  0  0  0
   62.9653   48.8641   35.5570 H   0  0  0  0  0  0
   63.9893   48.6657   34.1459 H   0  0  0  0  0  0
   62.2999   49.0594   33.9372 H   0  0  0  0  0  0
   61.1357   46.9851   36.1042 H   0  0  0  0  0  0
   60.4421   47.3073   34.5420 H   0  0  0  0  0  0
   60.9071   45.6772   34.9524 H   0  0  0  0  0  0
   65.7140   43.4802   34.4757 H   0  0  0  0  0  0
   63.9753   43.5582   34.2072 H   0  0  0  0  0  0
   65.0592   43.2680   32.8651 H   0  0  0  0  0  0
   67.2303   45.6060   33.6603 H   0  0  0  0  0  0
   66.6829   45.1677   32.0660 H   0  0  0  0  0  0
   66.4444   46.8128   32.6525 H   0  0  0  0  0  0
  1  2  2  0  0  0
  1  4  1  0  0  0
  1  8  1  0  0  0
  2  9  1  0  0  0
  3  7  1  0  0  0
  3 13  1  0  0  0
  3  5  2  0  0  0
  4  6  2  0  0  0
  4 26  1  0  0  0
  5 15  1  0  0  0
  5 14  1  0  0  0
  6 10  1  0  0  0
  6  9  1  0  0  0
  7 12  2  0  0  0
  7 27  1  0  0  0
  8 17  2  0  0  0
  8 20  1  0  0  0
 10 11  2  0  0  0
 10 28  1  0  0  0
 11 12  1  0  0  0
 11 21  1  0  0  0
 12 16  1  0  0  0
 13 18  1  0  0  0
 13 22  1  0  0  0
 13 23  1  0  0  0
 14 19  1  0  0  0
 14 24  1  0  0  0
 14 25  1  0  0  0
 15 16  2  0  0  0
 15 29  1  0  0  0
 16 30  1  0  0  0
 18 19  1  0  0  0
 18 31  1  0  0  0
 18 32  1  0  0  0
 19 33  1  0  0  0
 19 34  1  0  0  0
 20 35  1  0  0  0
 21 36  1  0  0  0
 21 37  1  0  0  0
 21 38  1  0  0  0
 22 39  1  0  0  0
 22 40  1  0  0  0
 22 41  1  0  0  0
 23 42  1  0  0  0
 23 43  1  0  0  0
 23 44  1  0  0  0
 24 45  1  0  0  0
 24 46  1  0  0  0
 24 47  1  0  0  0
 25 48  1  0  0  0
 25 49  1  0  0  0
 25 50  1  0  0  0
M  END
> <s_m_entry_id>
30896

> <s_m_entry_name>
dock_pv.109

> <s_m_Source_Path>
/home/csk/Desktop/cluster/DUD-E-result/rxra

> <s_m_Source_File>
dock_pv.maegz

> <i_m_Source_File_Index>
109

> <chembl_id>
CHEMBL357015

> <chembl_pref_name>
None

> <i_lp_mmshare_version>
53161

> <r_lp_tautomer_probability>
1

> <s_lp_Force_Field>
OPLS_2005

> <r_lp_Energy>
28.316267

> <b_lp_Chiralities_Consistent>
1

> <s_lp_Variant>
CHEMBL2061_lig308-1

> <s_i_glide_gridfile>
glide-grid_1mv9

> <i_i_glide_lignum>
356

> <i_i_glide_rotatable_bonds>
4

> <r_i_docking_score>
-11.0306075353806

> <r_i_glide_ligand_efficiency>
-0.441224301415224

> <r_i_glide_ligand_efficiency_sa>
-1.29014768248442

> <r_i_glide_ligand_efficiency_ln>
-2.61458454651843

> <r_i_glide_gscore>
-11.0306075353806

> <r_i_glide_lipo>
-5.57281651518514

> <r_i_glide_hbond>
-0.397128496081022

> <r_i_glide_metal>
0

> <r_i_glide_rewards>
-2.46811071783849

> <r_i_glide_evdw>
-48.1845283508301

> <r_i_glide_ecoul>
-4.50735902786255

> <r_i_glide_erotb>
0.492778465444933

> <r_i_glide_esite>
0

> <r_i_glide_emodel>
-79.8935637542108

> <r_i_glide_energy>
-52.6918873786926

> <r_i_glide_einternal>
4.35734462738037

> <i_i_glide_confnum>
20

> <i_i_glide_posenum>
112

> <r_i_glide_eff_state_penalty>
0

> <s_user_duplicate_titles>
CHEMBL2061_lig308

> <i_f3d_flags>
0

> <s_m_subgroup_title>
dock_pv

> <s_m_subgroupid>
dock_pv

> <b_m_subgroup_collapsed>
1

$$$$
CHEMBL2061_lig430
                    3D
 Schrodinger Suite 2021-1.
 52 55  0  0  1  0            999 V2000
   64.9485   46.1824   34.7768 C   0  0  0  0  0  0
   65.1267   45.6617   33.5299 N   0  0  0  0  0  0
   65.6079   45.8627   35.7390 O   0  0  0  0  0  0
   64.1934   45.8143   32.4777 C   0  0  0  0  0  0
   63.0576   46.6146   32.7116 C   0  0  0  0  0  0
   62.0670   46.7174   31.7582 C   0  0  0  0  0  0
   62.1590   45.9761   30.5874 C   0  0  0  0  0  0
   63.2895   45.2001   30.3294 C   0  0  0  0  0  0
   64.3115   45.1310   31.2595 C   0  0  0  0  0  0
   61.0396   46.0226   29.6535 C   0  0  0  0  0  0
   66.1888   44.6459   33.3966 C   0  0  0  0  0  0
   65.6270   43.2584   33.7391 C   0  0  0  0  0  0
   62.8947   47.2609   34.0206 C   0  0  0  0  0  0
   63.8484   47.1025   34.9523 C   0  0  0  0  0  0
   63.5792   47.9524   36.1714 C   0  0  0  0  0  0
   62.1065   48.2847   36.0284 C   0  0  0  0  0  0
   61.7821   48.1442   34.5420 C   0  0  0  0  0  0
   59.7372   45.8761   30.1424 C   0  0  0  0  0  0
   58.6364   46.0206   29.3124 C   0  0  0  0  0  0
   58.8802   46.3547   27.9853 C   0  0  0  0  0  0
   60.1720   46.4770   27.4729 C   0  0  0  0  0  0
   61.2617   46.2770   28.3017 C   0  0  0  0  0  0
   62.5438   46.3277   27.8051 O   0  0  0  0  0  0
   63.0430   47.6262   27.5346 C   0  0  0  0  0  0
   62.4886   48.0770   26.4287 F   0  0  0  0  0  0
   62.8081   48.4767   28.5321 F   0  0  0  0  0  0
   64.3592   47.5617   27.3420 F   0  0  0  0  0  0
   57.2763   45.8225   29.8534 C   0  0  0  0  0  0
   56.1221   46.0376   29.1828 C   0  0  0  0  0  0
   54.8075   45.8433   29.7317 C   0  0  0  0  0  0
   54.7464   44.9000   30.7163 O   0  0  0  0  0  0
   53.8299   46.4768   29.3395 O   0  0  0  0  0  0
   61.1995   47.3309   31.9515 H   0  0  0  0  0  0
   63.3671   44.6227   29.4192 H   0  0  0  0  0  0
   65.1503   44.4967   31.0227 H   0  0  0  0  0  0
   67.0375   44.8760   34.0453 H   0  0  0  0  0  0
   66.6238   44.6601   32.3991 H   0  0  0  0  0  0
   66.4067   42.5004   33.7394 H   0  0  0  0  0  0
   65.1757   43.2770   34.7316 H   0  0  0  0  0  0
   64.8647   42.9359   33.0289 H   0  0  0  0  0  0
   64.1960   48.8512   36.1388 H   0  0  0  0  0  0
   63.7903   47.4471   37.1122 H   0  0  0  0  0  0
   61.8367   49.2336   36.5074 H   0  0  0  0  0  0
   61.5197   47.5235   36.5393 H   0  0  0  0  0  0
   61.8088   49.1053   34.0292 H   0  0  0  0  0  0
   60.8081   47.6769   34.4084 H   0  0  0  0  0  0
   59.5844   45.6770   31.1934 H   0  0  0  0  0  0
   58.0455   46.4766   27.3391 H   0  0  0  0  0  0
   60.3627   46.6971   26.4374 H   0  0  0  0  0  0
   57.2431   45.4801   30.8795 H   0  0  0  0  0  0
   56.1064   46.4031   28.1681 H   0  0  0  0  0  0
   55.5921   44.4633   30.8329 H   0  0  0  0  0  0
  1  3  2  0  0  0
  1 14  1  0  0  0
  1  2  1  0  0  0
  2 11  1  0  0  0
  2  4  1  0  0  0
  4  5  2  0  0  0
  4  9  1  0  0  0
  5  6  1  0  0  0
  5 13  1  0  0  0
  6  7  2  0  0  0
  6 33  1  0  0  0
  7  8  1  0  0  0
  7 10  1  0  0  0
  8  9  2  0  0  0
  8 34  1  0  0  0
  9 35  1  0  0  0
 10 22  1  0  0  0
 10 18  2  0  0  0
 11 12  1  0  0  0
 11 36  1  0  0  0
 11 37  1  0  0  0
 12 38  1  0  0  0
 12 39  1  0  0  0
 12 40  1  0  0  0
 13 17  1  0  0  0
 13 14  2  0  0  0
 14 15  1  0  0  0
 15 16  1  0  0  0
 15 41  1  0  0  0
 15 42  1  0  0  0
 16 17  1  0  0  0
 16 43  1  0  0  0
 16 44  1  0  0  0
 17 45  1  0  0  0
 17 46  1  0  0  0
 18 19  1  0  0  0
 18 47  1  0  0  0
 19 28  1  0  0  0
 19 20  2  0  0  0
 20 21  1  0  0  0
 20 48  1  0  0  0
 21 22  2  0  0  0
 21 49  1  0  0  0
 22 23  1  0  0  0
 23 24  1  0  0  0
 24 25  1  0  0  0
 24 26  1  0  0  0
 24 27  1  0  0  0
 28 29  2  0  0  0
 28 50  1  0  0  0
 29 30  1  0  0  0
 29 51  1  0  0  0
 30 31  1  0  0  0
 30 32  2  0  0  0
 31 52  1  0  0  0
M  END
> <s_m_entry_id>
30897

> <s_m_entry_name>
dock_pv.110

> <s_m_Source_Path>
/home/csk/Desktop/cluster/DUD-E-result/rxra

> <s_m_Source_File>
dock_pv.maegz

> <i_m_Source_File_Index>
110

> <chembl_id>
CHEMBL247012

> <chembl_pref_name>
None

> <i_lp_mmshare_version>
53161

> <r_lp_tautomer_probability>
1

> <s_lp_Force_Field>
OPLS_2005

> <r_lp_Energy>
51.642655

> <b_lp_Chiralities_Consistent>
1

> <s_lp_Variant>
CHEMBL2061_lig430-1

> <s_i_glide_gridfile>
glide-grid_1mv9

> <i_i_glide_lignum>
501

> <i_i_glide_rotatable_bonds>
7

> <r_i_docking_score>
-11.0266479878408

> <r_i_glide_ligand_efficiency>
-0.344582749620025

> <r_i_glide_ligand_efficiency_sa>
-1.09398203721003

> <r_i_glide_ligand_efficiency_ln>
-2.46916705954954

> <r_i_glide_gscore>
-11.0266479878408

> <r_i_glide_lipo>
-6.31920469099493

> <r_i_glide_hbond>
-0.167695945188955

> <r_i_glide_metal>
0

> <r_i_glide_rewards>
-2.65273632752594

> <r_i_glide_evdw>
-35.997859954834

> <r_i_glide_ecoul>
-3.29218077659607

> <r_i_glide_erotb>
0.40670909010013

> <r_i_glide_esite>
0

> <r_i_glide_emodel>
-36.0285242422934

> <r_i_glide_energy>
-39.2900407314301

> <r_i_glide_einternal>
7.0219898223877

> <i_i_glide_confnum>
9

> <i_i_glide_posenum>
18

> <r_i_glide_eff_state_penalty>
0

> <s_user_duplicate_titles>
CHEMBL2061_lig430,414795

> <i_f3d_flags>
0

> <s_m_subgroup_title>
dock_pv

> <s_m_subgroupid>
dock_pv

> <b_m_subgroup_collapsed>
1

$$$$
CHEMBL2061_lig466
                    3D
 Schrodinger Suite 2021-1.
 46 48  0  0  1  0            999 V2000
   65.6887   45.4512   32.8831 C   0  0  0  0  0  0
   65.1933   46.1180   34.0672 C   0  0  0  0  0  0
   63.9471   46.6196   34.2102 C   0  0  0  0  0  0
   64.8386   45.4821   31.8043 N   0  0  0  0  0  0
   63.5014   45.9926   31.8503 C   0  0  0  0  0  0
   63.0102   46.5067   33.0626 C   0  0  0  0  0  0
   61.6441   46.7778   33.1469 C   0  0  0  0  0  0
   60.8185   46.4770   32.0810 C   0  0  0  0  0  0
   61.3524   46.0770   30.8530 C   0  0  0  0  0  0
   62.7007   45.8609   30.7521 N   0  0  0  0  0  0
   66.7725   44.8771   32.9391 O   0  0  0  0  0  0
   63.4333   47.1578   35.5429 C   0  0  0  0  0  0
   60.5077   45.8715   29.7163 N   0  0  0  0  0  0
   59.0776   45.7586   29.6767 C   0  0  0  0  0  0
   58.3360   46.0768   28.5265 C   0  0  0  0  0  0
   56.9414   45.9879   28.5395 C   0  0  0  0  0  0
   56.2722   45.6660   29.7149 C   0  0  0  0  0  0
   57.0538   45.3512   30.8213 C   0  0  0  0  0  0
   58.4095   45.3531   30.7954 N   0  0  0  0  0  0
   54.7728   45.6724   29.7945 C   0  0  0  0  0  0
   54.1733   46.6281   29.0250 O   0  0  0  0  0  0
   54.1465   44.9277   30.5456 O   0  0  0  0  0  0
   61.2098   45.9026   28.4107 C   0  0  0  0  0  0
   61.5052   47.3301   27.9154 C   0  0  0  0  0  0
   65.2732   44.7407   30.5967 C   0  0  0  0  0  0
   64.2738   46.8767   36.5390 F   0  0  0  0  0  0
   63.2627   48.4767   35.4702 F   0  0  0  0  0  0
   62.2745   46.5749   35.8270 F   0  0  0  0  0  0
   64.6728   43.3186   30.5293 C   0  0  0  0  0  0
   65.8743   46.1364   34.9054 H   0  0  0  0  0  0
   61.1664   47.1416   34.0395 H   0  0  0  0  0  0
   59.7688   46.4822   32.2826 H   0  0  0  0  0  0
   58.8188   46.3923   27.6187 H   0  0  0  0  0  0
   56.3740   46.1683   27.6437 H   0  0  0  0  0  0
   56.5928   45.2668   31.7890 H   0  0  0  0  0  0
   54.8163   47.1767   28.5716 H   0  0  0  0  0  0
   62.1525   45.3560   28.4594 H   0  0  0  0  0  0
   60.6603   45.3576   27.6490 H   0  0  0  0  0  0
   61.9968   47.3077   26.9423 H   0  0  0  0  0  0
   60.5957   47.9217   27.8104 H   0  0  0  0  0  0
   62.1673   47.8587   28.6021 H   0  0  0  0  0  0
   64.9879   45.3068   29.7087 H   0  0  0  0  0  0
   66.3616   44.6736   30.5372 H   0  0  0  0  0  0
   65.1318   42.7222   29.7413 H   0  0  0  0  0  0
   64.8060   42.7765   31.4659 H   0  0  0  0  0  0
   63.6062   43.3466   30.3148 H   0  0  0  0  0  0
  1  2  1  0  0  0
  1  4  1  0  0  0
  1 11  2  0  0  0
  2  3  2  0  0  0
  2 30  1  0  0  0
  3  6  1  0  0  0
  3 12  1  0  0  0
  4  5  1  0  0  0
  4 25  1  0  0  0
  5  6  2  0  0  0
  5 10  1  0  0  0
  6  7  1  0  0  0
  7  8  2  0  0  0
  7 31  1  0  0  0
  8  9  1  0  0  0
  8 32  1  0  0  0
  9 10  2  0  0  0
  9 13  1  0  0  0
 12 26  1  0  0  0
 12 27  1  0  0  0
 12 28  1  0  0  0
 13 14  1  0  0  0
 13 23  1  0  0  0
 14 15  2  0  0  0
 14 19  1  0  0  0
 15 16  1  0  0  0
 15 33  1  0  0  0
 16 17  2  0  0  0
 16 34  1  0  0  0
 17 18  1  0  0  0
 17 20  1  0  0  0
 18 19  2  0  0  0
 18 35  1  0  0  0
 20 21  1  0  0  0
 20 22  2  0  0  0
 21 36  1  0  0  0
 23 24  1  0  0  0
 23 37  1  0  0  0
 23 38  1  0  0  0
 24 39  1  0  0  0
 24 40  1  0  0  0
 24 41  1  0  0  0
 25 29  1  0  0  0
 25 42  1  0  0  0
 25 43  1  0  0  0
 29 44  1  0  0  0
 29 45  1  0  0  0
 29 46  1  0  0  0
M  END
> <s_m_entry_id>
30898

> <s_m_entry_name>
dock_pv.111

> <s_m_Source_Path>
/home/csk/Desktop/cluster/DUD-E-result/rxra

> <s_m_Source_File>
dock_pv.maegz

> <i_m_Source_File_Index>
111

> <chembl_id>
CHEMBL1223372

> <chembl_pref_name>
None

> <i_lp_mmshare_version>
53161

> <r_lp_tautomer_probability>
1

> <s_lp_Force_Field>
OPLS_2005

> <r_lp_Energy>
34.160292

> <b_lp_Chiralities_Consistent>
1

> <s_lp_Variant>
CHEMBL2061_lig466-1

> <s_i_glide_gridfile>
glide-grid_1mv9

> <i_i_glide_lignum>
555

> <i_i_glide_rotatable_bonds>
7

> <r_i_docking_score>
-11.0147151267224

> <r_i_glide_ligand_efficiency>
-0.379817762990427

> <r_i_glide_ligand_efficiency_sa>
-1.16692050262006

> <r_i_glide_ligand_efficiency_ln>
-2.52209045494326

> <r_i_glide_gscore>
-11.0147151267224

> <r_i_glide_lipo>
-4.74484817975519

> <r_i_glide_hbond>
-0.325682317452667

> <r_i_glide_metal>
0

> <r_i_glide_rewards>
-3.30722127708931

> <r_i_glide_evdw>
-44.2028617858887

> <r_i_glide_ecoul>
-5.22684812545776

> <r_i_glide_erotb>
0.357206955687901

> <r_i_glide_esite>
0

> <r_i_glide_emodel>
-66.2060578685688

> <r_i_glide_energy>
-49.4297099113464

> <r_i_glide_einternal>
8.9629487991333

> <i_i_glide_confnum>
7

> <i_i_glide_posenum>
199

> <r_i_glide_eff_state_penalty>
0

> <s_user_duplicate_titles>
CHEMBL2061_lig466

> <i_f3d_flags>
0

> <s_m_subgroup_title>
dock_pv

> <s_m_subgroupid>
dock_pv

> <b_m_subgroup_collapsed>
1

$$$$
CHEMBL2061_lig375
                    3D
 Schrodinger Suite 2021-1.
 57 59  0  0  1  0            999 V2000
   62.8910   46.4770   32.8722 C   0  0  0  0  0  0
   63.9872   45.6462   32.5143 C   0  0  0  0  0  0
   62.0245   46.3152   30.5587 C   0  0  0  0  0  0
   60.9747   46.6961   29.5676 C   0  0  0  0  0  0
   61.9840   46.8396   31.8584 C   0  0  0  0  0  0
   64.0397   45.1500   31.2030 C   0  0  0  0  0  0
   63.0760   45.4406   30.2406 C   0  0  0  0  0  0
   62.6681   46.9882   34.3246 C   0  0  0  0  0  0
   65.0811   45.2104   33.5210 C   0  0  0  0  0  0
   55.4391   45.0349   30.2839 C   0  0  0  0  0  0
   61.2242   47.4785   28.5791 N   0  0  0  0  0  0
   59.5857   46.1597   29.7122 C   0  0  0  0  0  0
   56.8930   45.3359   30.0543 C   0  0  0  0  0  0
   64.9989   46.0431   34.8256 C   0  0  0  0  0  0
   63.5671   46.2176   35.3291 C   0  0  0  0  0  0
   54.8630   45.2771   31.3390 O   0  0  0  0  0  0
   59.1111   45.6770   30.9390 C   0  0  0  0  0  0
   58.6733   46.1802   28.6436 C   0  0  0  0  0  0
   57.3472   45.7829   28.8109 C   0  0  0  0  0  0
   57.7931   45.2769   31.1164 C   0  0  0  0  0  0
   54.8080   44.4770   29.2254 O   0  0  0  0  0  0
   63.2145   44.7766   28.8728 C   0  0  0  0  0  0
   63.0284   48.4867   34.4025 C   0  0  0  0  0  0
   61.2079   46.7254   34.7740 C   0  0  0  0  0  0
   64.8729   43.7126   33.8574 C   0  0  0  0  0  0
   66.4855   45.4916   32.9364 C   0  0  0  0  0  0
   62.5538   47.9481   28.5634 O   0  0  0  0  0  0
   62.7724   48.6800   27.3718 C   0  0  0  0  0  0
   61.1903   47.5284   32.1049 H   0  0  0  0  0  0
   64.8403   44.4782   30.9316 H   0  0  0  0  0  0
   65.6078   45.5878   35.6076 H   0  0  0  0  0  0
   65.4353   47.0299   34.6700 H   0  0  0  0  0  0
   63.1543   45.2321   35.5417 H   0  0  0  0  0  0
   63.5863   46.7283   36.2934 H   0  0  0  0  0  0
   59.7355   45.6770   31.8170 H   0  0  0  0  0  0
   58.9779   46.5434   27.6721 H   0  0  0  0  0  0
   56.6762   45.8708   27.9678 H   0  0  0  0  0  0
   57.4807   44.9715   32.1035 H   0  0  0  0  0  0
   55.4234   44.1907   28.5457 H   0  0  0  0  0  0
   64.2447   44.4770   28.6914 H   0  0  0  0  0  0
   62.5689   43.9002   28.8052 H   0  0  0  0  0  0
   62.9608   45.4502   28.0561 H   0  0  0  0  0  0
   62.8866   48.8758   35.4117 H   0  0  0  0  0  0
   64.0657   48.6784   34.1390 H   0  0  0  0  0  0
   62.4072   49.0851   33.7357 H   0  0  0  0  0  0
   61.0550   47.0137   35.8150 H   0  0  0  0  0  0
   60.4787   47.2769   34.1877 H   0  0  0  0  0  0
   60.9380   45.6768   34.6846 H   0  0  0  0  0  0
   65.6031   43.3690   34.5897 H   0  0  0  0  0  0
   63.8797   43.5080   34.2571 H   0  0  0  0  0  0
   64.9944   43.0824   32.9757 H   0  0  0  0  0  0
   67.2629   45.2800   33.6719 H   0  0  0  0  0  0
   66.7050   44.8772   32.0644 H   0  0  0  0  0  0
   66.5966   46.5345   32.6342 H   0  0  0  0  0  0
   63.8135   49.0002   27.3386 H   0  0  0  0  0  0
   62.5844   48.0766   26.4817 H   0  0  0  0  0  0
   62.1512   49.5757   27.3413 H   0  0  0  0  0  0
  1  2  2  0  0  0
  1  5  1  0  0  0
  1  8  1  0  0  0
  2  6  1  0  0  0
  2  9  1  0  0  0
  3  5  2  0  0  0
  3  4  1  0  0  0
  3  7  1  0  0  0
  4 11  2  0  0  0
  4 12  1  0  0  0
  5 29  1  0  0  0
  6  7  2  0  0  0
  6 30  1  0  0  0
  7 22  1  0  0  0
  8 15  1  0  0  0
  8 23  1  0  0  0
  8 24  1  0  0  0
  9 25  1  0  0  0
  9 26  1  0  0  0
  9 14  1  0  0  0
 10 13  1  0  0  0
 10 16  2  0  0  0
 10 21  1  0  0  0
 11 27  1  0  0  0
 12 17  2  0  0  0
 12 18  1  0  0  0
 13 19  1  0  0  0
 13 20  2  0  0  0
 14 15  1  0  0  0
 14 31  1  0  0  0
 14 32  1  0  0  0
 15 33  1  0  0  0
 15 34  1  0  0  0
 17 20  1  0  0  0
 17 35  1  0  0  0
 18 19  2  0  0  0
 18 36  1  0  0  0
 19 37  1  0  0  0
 20 38  1  0  0  0
 21 39  1  0  0  0
 22 40  1  0  0  0
 22 41  1  0  0  0
 22 42  1  0  0  0
 23 43  1  0  0  0
 23 44  1  0  0  0
 23 45  1  0  0  0
 24 46  1  0  0  0
 24 47  1  0  0  0
 24 48  1  0  0  0
 25 49  1  0  0  0
 25 50  1  0  0  0
 25 51  1  0  0  0
 26 52  1  0  0  0
 26 53  1  0  0  0
 26 54  1  0  0  0
 27 28  1  0  0  0
 28 55  1  0  0  0
 28 56  1  0  0  0
 28 57  1  0  0  0
M  END
> <s_m_entry_id>
30899

> <s_m_entry_name>
dock_pv.112

> <s_m_Source_Path>
/home/csk/Desktop/cluster/DUD-E-result/rxra

> <s_m_Source_File>
dock_pv.maegz

> <i_m_Source_File_Index>
112

> <chembl_id>
CHEMBL2110181

> <chembl_pref_name>
None

> <i_lp_mmshare_version>
53161

> <r_lp_tautomer_probability>
1

> <s_lp_Force_Field>
OPLS_2005

> <r_lp_Energy>
36.912032

> <b_lp_Chiralities_Consistent>
1

> <s_lp_Variant>
CHEMBL2061_lig375-1

> <s_i_glide_gridfile>
glide-grid_1mv9

> <i_i_glide_lignum>
435

> <i_i_glide_rotatable_bonds>
5

> <r_i_docking_score>
-10.9979359069425

> <r_i_glide_ligand_efficiency>
-0.392783425247948

> <r_i_glide_ligand_efficiency_sa>
-1.19272181611867

> <r_i_glide_ligand_efficiency_ln>
-2.53864652075203

> <r_i_glide_gscore>
-10.9979359069425

> <r_i_glide_lipo>
-6.21348236516927

> <r_i_glide_hbond>
-0.0114901724878828

> <r_i_glide_metal>
0

> <r_i_glide_rewards>
-2.41337621273745

> <r_i_glide_evdw>
-49.1011619567871

> <r_i_glide_ecoul>
-2.95399379730225

> <r_i_glide_erotb>
0.538570010886759

> <r_i_glide_esite>
0

> <r_i_glide_emodel>
-82.5263082504943

> <r_i_glide_energy>
-52.0551557540894

> <r_i_glide_einternal>
4.48045682907104

> <i_i_glide_confnum>
21

> <i_i_glide_posenum>
355

> <r_i_glide_eff_state_penalty>
0

> <s_user_duplicate_titles>
CHEMBL2061_lig375,CHEMBL2061_lig379,272479

> <i_f3d_flags>
0

> <s_m_subgroup_title>
dock_pv

> <s_m_subgroupid>
dock_pv

> <b_m_subgroup_collapsed>
1

$$$$
CHEMBL2061_lig260
                    3D
 Schrodinger Suite 2021-1.
 56 59  0  0  1  0            999 V2000
   55.4260   45.2772   31.1652 O   0  0  0  0  0  0
   55.2081   44.8771   28.9387 O   0  0  0  0  0  0
   62.0188   46.1338   27.8696 O   0  0  0  0  0  0
   61.6035   48.0770   28.7938 O   0  0  0  0  0  0
   55.9205   45.2298   30.0390 C   0  0  0  0  0  0
   57.3670   45.5435   29.7631 C   0  0  0  0  0  0
   57.7807   46.0770   28.5388 C   0  0  0  0  0  0
   59.1108   46.4530   28.3213 C   0  0  0  0  0  0
   60.0692   46.2888   29.3241 C   0  0  0  0  0  0
   59.6341   45.7527   30.5391 C   0  0  0  0  0  0
   58.3147   45.3829   30.7670 C   0  0  0  0  0  0
   61.5595   46.7105   29.0578 C   0  0  0  0  0  0
   62.5365   46.3803   30.2489 C   0  0  0  0  0  0
   63.6009   45.4897   30.1081 C   0  0  0  0  0  0
   64.3926   45.1622   31.2012 C   0  0  0  0  0  0
   64.1237   45.6462   32.4922 C   0  0  0  0  0  0
   63.0026   46.5008   32.6619 C   0  0  0  0  0  0
   62.3200   46.9351   31.5126 C   0  0  0  0  0  0
   62.4805   46.9381   34.0554 C   0  0  0  0  0  0
   63.2603   46.2582   35.2142 C   0  0  0  0  0  0
   64.7480   46.0896   34.9185 C   0  0  0  0  0  0
   65.0061   45.1942   33.6801 C   0  0  0  0  0  0
   63.0239   46.9784   27.3390 C   0  0  0  0  0  0
   62.5537   48.3555   27.7771 C   0  0  0  0  0  0
   62.6540   48.4626   34.2005 C   0  0  0  0  0  0
   61.0076   46.4769   34.2109 C   0  0  0  0  0  0
   64.6714   43.7199   34.0109 C   0  0  0  0  0  0
   66.4970   45.3863   33.3392 C   0  0  0  0  0  0
   55.7846   44.6790   28.1988 H   0  0  0  0  0  0
   57.0700   46.2208   27.7397 H   0  0  0  0  0  0
   59.4029   46.8670   27.3680 H   0  0  0  0  0  0
   60.2932   45.6768   31.3791 H   0  0  0  0  0  0
   58.0369   45.0060   31.7423 H   0  0  0  0  0  0
   63.8115   45.0203   29.1590 H   0  0  0  0  0  0
   65.2055   44.4705   31.0426 H   0  0  0  0  0  0
   61.5030   47.6329   31.6198 H   0  0  0  0  0  0
   62.8499   45.2768   35.4422 H   0  0  0  0  0  0
   63.1363   46.8223   36.1389 H   0  0  0  0  0  0
   65.2502   45.6800   35.7977 H   0  0  0  0  0  0
   65.1814   47.0795   34.7669 H   0  0  0  0  0  0
   64.0245   46.7232   27.6858 H   0  0  0  0  0  0
   63.0368   46.9279   26.2542 H   0  0  0  0  0  0
   63.3943   48.9439   28.1397 H   0  0  0  0  0  0
   62.0710   48.8579   26.9395 H   0  0  0  0  0  0
   62.2787   48.8008   35.1652 H   0  0  0  0  0  0
   63.6990   48.7648   34.1391 H   0  0  0  0  0  0
   62.1088   49.0165   33.4358 H   0  0  0  0  0  0
   60.5981   46.7791   35.1744 H   0  0  0  0  0  0
   60.3505   46.8800   33.4455 H   0  0  0  0  0  0
   60.9072   45.3944   34.1390 H   0  0  0  0  0  0
   65.1988   43.3886   34.9047 H   0  0  0  0  0  0
   63.6083   43.5571   34.1776 H   0  0  0  0  0  0
   64.9678   43.0514   33.2008 H   0  0  0  0  0  0
   67.1383   45.1558   34.1914 H   0  0  0  0  0  0
   66.8086   44.7276   32.5308 H   0  0  0  0  0  0
   66.7167   46.4100   33.0296 H   0  0  0  0  0  0
  1  5  2  0  0  0
  2  5  1  0  0  0
  2 29  1  0  0  0
  3 12  1  0  0  0
  3 23  1  0  0  0
  4 12  1  0  0  0
  4 24  1  0  0  0
  5  6  1  0  0  0
  6  7  2  0  0  0
  6 11  1  0  0  0
  7  8  1  0  0  0
  7 30  1  0  0  0
  8  9  2  0  0  0
  8 31  1  0  0  0
  9 10  1  0  0  0
  9 12  1  0  0  0
 10 11  2  0  0  0
 10 32  1  0  0  0
 11 33  1  0  0  0
 12 13  1  0  0  0
 13 14  2  0  0  0
 13 18  1  0  0  0
 14 15  1  0  0  0
 14 34  1  0  0  0
 15 16  2  0  0  0
 15 35  1  0  0  0
 16 17  1  0  0  0
 16 22  1  0  0  0
 17 18  2  0  0  0
 17 19  1  0  0  0
 18 36  1  0  0  0
 19 20  1  0  0  0
 19 25  1  0  0  0
 19 26  1  0  0  0
 20 21  1  0  0  0
 20 37  1  0  0  0
 20 38  1  0  0  0
 21 22  1  0  0  0
 21 39  1  0  0  0
 21 40  1  0  0  0
 22 27  1  0  0  0
 22 28  1  0  0  0
 23 24  1  0  0  0
 23 41  1  0  0  0
 23 42  1  0  0  0
 24 43  1  0  0  0
 24 44  1  0  0  0
 25 45  1  0  0  0
 25 46  1  0  0  0
 25 47  1  0  0  0
 26 48  1  0  0  0
 26 49  1  0  0  0
 26 50  1  0  0  0
 27 51  1  0  0  0
 27 52  1  0  0  0
 27 53  1  0  0  0
 28 54  1  0  0  0
 28 55  1  0  0  0
 28 56  1  0  0  0
M  END
> <s_m_entry_id>
30900

> <s_m_entry_name>
dock_pv.113

> <s_m_Source_Path>
/home/csk/Desktop/cluster/DUD-E-result/rxra

> <s_m_Source_File>
dock_pv.maegz

> <i_m_Source_File_Index>
113

> <chembl_id>
CHEMBL112715

> <chembl_pref_name>
None

> <i_lp_mmshare_version>
53161

> <r_lp_tautomer_probability>
1

> <s_lp_Force_Field>
OPLS_2005

> <r_lp_Energy>
33.13898

> <b_lp_Chiralities_Consistent>
1

> <s_lp_Variant>
CHEMBL2061_lig260-1

> <s_i_glide_gridfile>
glide-grid_1mv9

> <i_i_glide_lignum>
303

> <i_i_glide_rotatable_bonds>
4

> <r_i_docking_score>
-10.991720054626

> <r_i_glide_ligand_efficiency>
-0.392561430522356

> <r_i_glide_ligand_efficiency_sa>
-1.19204770938387

> <r_i_glide_ligand_efficiency_ln>
-2.53721171953201

> <r_i_glide_gscore>
-10.991720054626

> <r_i_glide_lipo>
-6.1010518642262

> <r_i_glide_hbond>
0

> <r_i_glide_metal>
0

> <r_i_glide_rewards>
-2.52488013168039

> <r_i_glide_evdw>
-52.1655120849609

> <r_i_glide_ecoul>
-1.06379187107086

> <r_i_glide_erotb>
0.402056326189286

> <r_i_glide_esite>
0

> <r_i_glide_emodel>
-84.735736876497

> <r_i_glide_energy>
-53.2293039560318

> <r_i_glide_einternal>
3.18249893188477

> <i_i_glide_confnum>
142

> <i_i_glide_posenum>
222

> <r_i_glide_eff_state_penalty>
0

> <s_user_duplicate_titles>
CHEMBL2061_lig260,187744

> <i_f3d_flags>
0

> <s_m_subgroup_title>
dock_pv

> <s_m_subgroupid>
dock_pv

> <b_m_subgroup_collapsed>
1

$$$$
CHEMBL2061_lig109
                    3D
 Schrodinger Suite 2021-1.
 58 58  0  0  1  0            999 V2000
   62.3963   47.6091   28.1885 C   0  0  0  0  0  0
   62.8051   47.0991   29.5740 C   0  0  0  0  0  0
   62.4659   46.9248   31.9782 C   0  0  0  0  0  0
   61.2318   46.7804   27.6395 C   0  0  0  0  0  0
   63.4334   45.9072   32.0439 C   0  0  0  0  0  0
   64.0714   45.4819   30.8726 C   0  0  0  0  0  0
   62.1929   47.5481   30.7504 C   0  0  0  0  0  0
   63.7463   46.0773   29.6544 C   0  0  0  0  0  0
   61.6453   47.2351   33.1687 C   0  0  0  0  0  0
   56.1821   45.4235   31.3367 C   0  0  0  0  0  0
   55.1810   45.1201   30.3378 C   0  0  0  0  0  0
   59.6390   46.0767   32.2593 C   0  0  0  0  0  0
   57.5244   45.2242   31.2624 C   0  0  0  0  0  0
   60.3983   46.7403   33.3077 C   0  0  0  0  0  0
   58.3350   45.7411   32.3652 C   0  0  0  0  0  0
   54.0104   44.8744   30.6144 O   0  0  0  0  0  0
   62.0080   48.8767   28.2025 F   0  0  0  0  0  0
   63.4505   47.5683   27.3666 F   0  0  0  0  0  0
   60.7852   47.3607   26.5393 F   0  0  0  0  0  0
   61.6086   45.5360   27.3419 F   0  0  0  0  0  0
   60.2047   46.7020   28.4875 F   0  0  0  0  0  0
   65.0722   44.3319   30.8764 C   0  0  0  0  0  0
   63.6087   45.1856   33.2029 O   0  0  0  0  0  0
   55.6299   45.2348   29.0575 O   0  0  0  0  0  0
   62.2257   48.1778   34.2140 C   0  0  0  0  0  0
   58.1942   44.4847   30.1091 C   0  0  0  0  0  0
   66.3930   44.7915   30.2365 C   0  0  0  0  0  0
   64.4675   43.0636   30.2407 C   0  0  0  0  0  0
   64.5365   45.6656   34.1634 C   0  0  0  0  0  0
   63.9281   45.3161   35.5378 C   0  0  0  0  0  0
   64.5279   46.0988   36.7098 C   0  0  0  0  0  0
   61.4332   48.3146   30.6993 H   0  0  0  0  0  0
   64.1946   45.7040   28.7450 H   0  0  0  0  0  0
   55.7586   45.8853   32.2170 H   0  0  0  0  0  0
   60.1373   45.8813   31.3212 H   0  0  0  0  0  0
   59.8868   46.9052   34.2449 H   0  0  0  0  0  0
   57.8475   45.9280   33.3124 H   0  0  0  0  0  0
   65.3147   44.0774   31.9077 H   0  0  0  0  0  0
   56.5628   45.4531   29.0406 H   0  0  0  0  0  0
   62.6012   49.0837   33.7391 H   0  0  0  0  0  0
   61.4685   48.4785   34.9395 H   0  0  0  0  0  0
   63.0272   47.7389   34.7884 H   0  0  0  0  0  0
   59.0950   43.9900   30.4551 H   0  0  0  0  0  0
   57.5703   43.6758   29.7285 H   0  0  0  0  0  0
   58.4528   45.1616   29.2971 H   0  0  0  0  0  0
   66.8082   45.5907   30.8473 H   0  0  0  0  0  0
   67.1358   44.0037   30.1390 H   0  0  0  0  0  0
   66.2467   45.1985   29.2408 H   0  0  0  0  0  0
   63.6656   42.6656   30.8624 H   0  0  0  0  0  0
   64.0407   43.2511   29.2549 H   0  0  0  0  0  0
   65.2100   42.2731   30.1389 H   0  0  0  0  0  0
   65.4933   45.1587   34.0338 H   0  0  0  0  0  0
   64.7415   46.7318   34.0560 H   0  0  0  0  0  0
   62.8523   45.4983   35.5255 H   0  0  0  0  0  0
   64.0386   44.2450   35.7124 H   0  0  0  0  0  0
   64.2289   45.6767   37.6674 H   0  0  0  0  0  0
   65.6080   46.0766   36.6796 H   0  0  0  0  0  0
   64.2240   47.1461   36.6980 H   0  0  0  0  0  0
  1  2  1  0  0  0
  1  4  1  0  0  0
  1 17  1  0  0  0
  1 18  1  0  0  0
  2  7  1  0  0  0
  2  8  2  0  0  0
  3  7  2  0  0  0
  3  9  1  0  0  0
  3  5  1  0  0  0
  4 19  1  0  0  0
  4 20  1  0  0  0
  4 21  1  0  0  0
  5  6  2  0  0  0
  5 23  1  0  0  0
  6  8  1  0  0  0
  6 22  1  0  0  0
  7 32  1  0  0  0
  8 33  1  0  0  0
  9 14  2  0  0  0
  9 25  1  0  0  0
 10 13  2  0  0  0
 10 11  1  0  0  0
 10 34  1  0  0  0
 11 16  2  0  0  0
 11 24  1  0  0  0
 12 14  1  0  0  0
 12 15  2  0  0  0
 12 35  1  0  0  0
 13 15  1  0  0  0
 13 26  1  0  0  0
 14 36  1  0  0  0
 15 37  1  0  0  0
 22 27  1  0  0  0
 22 28  1  0  0  0
 22 38  1  0  0  0
 23 29  1  0  0  0
 24 39  1  0  0  0
 25 40  1  0  0  0
 25 41  1  0  0  0
 25 42  1  0  0  0
 26 43  1  0  0  0
 26 44  1  0  0  0
 26 45  1  0  0  0
 27 46  1  0  0  0
 27 47  1  0  0  0
 27 48  1  0  0  0
 28 49  1  0  0  0
 28 50  1  0  0  0
 28 51  1  0  0  0
 29 30  1  0  0  0
 29 52  1  0  0  0
 29 53  1  0  0  0
 30 31  1  0  0  0
 30 54  1  0  0  0
 30 55  1  0  0  0
 31 56  1  0  0  0
 31 57  1  0  0  0
 31 58  1  0  0  0
M  END
> <s_m_entry_id>
30901

> <s_m_entry_name>
dock_pv.114

> <s_m_Source_Path>
/home/csk/Desktop/cluster/DUD-E-result/rxra

> <s_m_Source_File>
dock_pv.maegz

> <i_m_Source_File_Index>
114

> <chembl_id>
CHEMBL132568

> <chembl_pref_name>
None

> <i_lp_mmshare_version>
53161

> <r_lp_tautomer_probability>
1

> <s_lp_Force_Field>
OPLS_2005

> <r_lp_Energy>
26.499918

> <b_lp_Chiralities_Consistent>
1

> <s_lp_Variant>
CHEMBL2061_lig109-1

> <s_i_glide_gridfile>
glide-grid_1mv9

> <i_i_glide_lignum>
148

> <i_i_glide_rotatable_bonds>
11

> <r_i_docking_score>
-10.9847839703462

> <r_i_glide_ligand_efficiency>
-0.354347870011167

> <r_i_glide_ligand_efficiency_sa>
-1.11314154179501

> <r_i_glide_ligand_efficiency_ln>
-2.47740542851244

> <r_i_glide_gscore>
-10.9847839703462

> <r_i_glide_lipo>
-5.00784046121109

> <r_i_glide_hbond>
-0.403978912573293

> <r_i_glide_metal>
0

> <r_i_glide_rewards>
-3.56510889772727

> <r_i_glide_evdw>
-39.3081703186035

> <r_i_glide_ecoul>
-4.96947860717773

> <r_i_glide_erotb>
0.702974608172316

> <r_i_glide_esite>
0

> <r_i_glide_emodel>
-49.1094968378612

> <r_i_glide_energy>
-44.2776489257812

> <r_i_glide_einternal>
3.84877014160156

> <i_i_glide_confnum>
155

> <i_i_glide_posenum>
57

> <r_i_glide_eff_state_penalty>
0

> <s_user_duplicate_titles>
CHEMBL2061_lig109,217481

> <i_f3d_flags>
0

> <s_m_subgroup_title>
dock_pv

> <s_m_subgroupid>
dock_pv

> <b_m_subgroup_collapsed>
1

$$$$
CHEMBL2061_lig340
                    3D
 Schrodinger Suite 2021-1.
 63 65  0  0  1  0            999 V2000
   62.7860   46.6839   30.0405 C   0  0  0  0  0  0
   63.2724   46.4780   31.4316 C   0  0  0  0  0  0
   61.4318   46.5432   29.6094 C   0  0  0  0  0  0
   64.3707   45.6557   31.7428 C   0  0  0  0  0  0
   63.6087   46.8772   28.9474 C   0  0  0  0  0  0
   64.7892   45.5420   33.0729 C   0  0  0  0  0  0
   62.8032   47.2730   27.4708 S   0  0  0  0  0  0
   62.5762   47.1241   32.4583 C   0  0  0  0  0  0
   64.0764   46.1913   34.0840 C   0  0  0  0  0  0
   60.2982   46.0947   30.3135 C   0  0  0  0  0  0
   62.9744   46.9888   33.7872 C   0  0  0  0  0  0
   57.8004   45.6777   30.5204 C   0  0  0  0  0  0
   56.6151   45.4174   29.8894 C   0  0  0  0  0  0
   59.0236   46.0767   29.7209 C   0  0  0  0  0  0
   61.2833   46.8875   28.2448 C   0  0  0  0  0  0
   55.3141   45.1068   30.4433 C   0  0  0  0  0  0
   58.9376   46.4753   28.3758 C   0  0  0  0  0  0
   54.4558   44.4765   29.8355 O   0  0  0  0  0  0
   60.0467   46.8699   27.6300 C   0  0  0  0  0  0
   66.0056   44.7015   33.4316 C   0  0  0  0  0  0
   65.0621   44.9677   30.7664 O   0  0  0  0  0  0
   62.2105   47.6980   34.8971 C   0  0  0  0  0  0
   55.0680   45.6766   31.6482 O   0  0  0  0  0  0
   62.0921   43.0642   27.7451 F   0  0  0  0  0  0
   63.5700   43.8466   29.3168 C   0  0  0  0  0  0
   57.9966   45.6175   32.0511 C   0  0  0  0  0  0
   62.9727   42.6575   28.6502 C   0  0  0  0  0  0
   64.5670   43.6644   30.4531 C   0  0  0  0  0  0
   65.5596   43.3659   34.0346 C   0  0  0  0  0  0
   66.9904   45.4756   34.3165 C   0  0  0  0  0  0
   63.1310   48.4312   35.8888 C   0  0  0  0  0  0
   61.2629   46.7284   35.6181 C   0  0  0  0  0  0
   64.6909   46.8768   28.9598 H   0  0  0  0  0  0
   61.7326   47.7557   32.2205 H   0  0  0  0  0  0
   64.3751   46.0697   35.1140 H   0  0  0  0  0  0
   60.4381   45.7787   31.3319 H   0  0  0  0  0  0
   56.5564   45.4133   28.8135 H   0  0  0  0  0  0
   57.9961   46.4766   27.8552 H   0  0  0  0  0  0
   60.0079   47.1370   26.5871 H   0  0  0  0  0  0
   66.5690   44.4781   32.5267 H   0  0  0  0  0  0
   61.6078   48.4789   34.4346 H   0  0  0  0  0  0
   55.8280   46.1901   31.9324 H   0  0  0  0  0  0
   62.6961   44.3193   29.7357 H   0  0  0  0  0  0
   64.0076   44.4636   28.5372 H   0  0  0  0  0  0
   58.6768   46.3849   32.4250 H   0  0  0  0  0  0
   57.1154   45.7112   32.6702 H   0  0  0  0  0  0
   58.4072   44.6436   32.3081 H   0  0  0  0  0  0
   63.7331   42.0770   28.1397 H   0  0  0  0  0  0
   62.4362   42.0771   29.3935 H   0  0  0  0  0  0
   65.4029   43.0411   30.1390 H   0  0  0  0  0  0
   64.1000   43.1645   31.3030 H   0  0  0  0  0  0
   64.8333   42.8528   33.4052 H   0  0  0  0  0  0
   66.4080   42.6988   34.1383 H   0  0  0  0  0  0
   65.0954   43.5080   35.0098 H   0  0  0  0  0  0
   67.3300   46.3763   33.8017 H   0  0  0  0  0  0
   66.5418   45.7773   35.2611 H   0  0  0  0  0  0
   67.8648   44.8760   34.5472 H   0  0  0  0  0  0
   63.8507   49.0660   35.3742 H   0  0  0  0  0  0
   62.5370   49.0714   36.5389 H   0  0  0  0  0  0
   63.6842   47.7414   36.5261 H   0  0  0  0  0  0
   60.4659   46.3878   34.9555 H   0  0  0  0  0  0
   61.7863   45.8464   35.9877 H   0  0  0  0  0  0
   60.8080   47.2148   36.4784 H   0  0  0  0  0  0
  1  2  1  0  0  0
  1  3  1  0  0  0
  1  5  2  0  0  0
  2  4  1  0  0  0
  2  8  2  0  0  0
  3 10  1  0  0  0
  3 15  2  0  0  0
  4  6  2  0  0  0
  4 21  1  0  0  0
  5  7  1  0  0  0
  5 33  1  0  0  0
  6 20  1  0  0  0
  6  9  1  0  0  0
  7 15  1  0  0  0
  8 11  1  0  0  0
  8 34  1  0  0  0
  9 11  2  0  0  0
  9 35  1  0  0  0
 10 14  2  0  0  0
 10 36  1  0  0  0
 11 22  1  0  0  0
 12 14  1  0  0  0
 12 13  2  0  0  0
 12 26  1  0  0  0
 13 16  1  0  0  0
 13 37  1  0  0  0
 14 17  1  0  0  0
 15 19  1  0  0  0
 16 18  2  0  0  0
 16 23  1  0  0  0
 17 19  2  0  0  0
 17 38  1  0  0  0
 19 39  1  0  0  0
 20 29  1  0  0  0
 20 30  1  0  0  0
 20 40  1  0  0  0
 21 28  1  0  0  0
 22 31  1  0  0  0
 22 32  1  0  0  0
 22 41  1  0  0  0
 23 42  1  0  0  0
 24 27  1  0  0  0
 25 28  1  0  0  0
 25 27  1  0  0  0
 25 43  1  0  0  0
 25 44  1  0  0  0
 26 45  1  0  0  0
 26 46  1  0  0  0
 26 47  1  0  0  0
 27 48  1  0  0  0
 27 49  1  0  0  0
 28 50  1  0  0  0
 28 51  1  0  0  0
 29 52  1  0  0  0
 29 53  1  0  0  0
 29 54  1  0  0  0
 30 55  1  0  0  0
 30 56  1  0  0  0
 30 57  1  0  0  0
 31 58  1  0  0  0
 31 59  1  0  0  0
 31 60  1  0  0  0
 32 61  1  0  0  0
 32 62  1  0  0  0
 32 63  1  0  0  0
M  END
> <s_m_entry_id>
30902

> <s_m_entry_name>
dock_pv.115

> <s_m_Source_Path>
/home/csk/Desktop/cluster/DUD-E-result/rxra

> <s_m_Source_File>
dock_pv.maegz

> <i_m_Source_File_Index>
115

> <chembl_id>
CHEMBL264746

> <chembl_pref_name>
None

> <i_lp_mmshare_version>
53161

> <r_lp_tautomer_probability>
1

> <s_lp_Force_Field>
OPLS_2005

> <r_lp_Energy>
30.115664

> <b_lp_Chiralities_Consistent>
1

> <s_lp_Variant>
CHEMBL2061_lig340-1

> <s_i_glide_gridfile>
glide-grid_1mv9

> <i_i_glide_lignum>
400

> <i_i_glide_rotatable_bonds>
10

> <r_i_docking_score>
-10.9808541850259

> <r_i_glide_ligand_efficiency>
-0.34315169328206

> <r_i_glide_ligand_efficiency_sa>
-1.08943871654265

> <r_i_glide_ligand_efficiency_ln>
-2.45891257880736

> <r_i_glide_gscore>
-10.9808541850259

> <r_i_glide_lipo>
-7.24737425466167

> <r_i_glide_hbond>
0

> <r_i_glide_metal>
0

> <r_i_glide_rewards>
-1.46061886078545

> <r_i_glide_evdw>
-46.8896980285645

> <r_i_glide_ecoul>
-3.40956449508667

> <r_i_glide_erotb>
0.583058506112432

> <r_i_glide_esite>
0

> <r_i_glide_emodel>
-74.5613674429273

> <r_i_glide_energy>
-50.2992625236511

> <r_i_glide_einternal>
6.26854181289673

> <i_i_glide_confnum>
86

> <i_i_glide_posenum>
115

> <r_i_glide_eff_state_penalty>
0

> <s_user_duplicate_titles>
CHEMBL2061_lig340,151541

> <i_f3d_flags>
0

> <s_m_subgroup_title>
dock_pv

> <s_m_subgroupid>
dock_pv

> <b_m_subgroup_collapsed>
1

$$$$
CHEMBL2061_lig356
                    3D
 Schrodinger Suite 2021-1.
 58 60  0  0  1  0            999 V2000
   61.6876   46.7496   30.2859 C   0  0  0  0  0  0
   62.6478   46.5860   32.5665 C   0  0  0  0  0  0
   63.8733   46.1267   32.0208 C   0  0  0  0  0  0
   62.9424   46.4196   29.7468 C   0  0  0  0  0  0
   60.4663   46.9877   29.4179 C   0  0  0  0  0  0
   61.6078   46.9045   31.6756 C   0  0  0  0  0  0
   63.9848   46.0777   30.6205 C   0  0  0  0  0  0
   62.4358   46.7750   34.0934 C   0  0  0  0  0  0
   65.0361   45.6044   32.9127 C   0  0  0  0  0  0
   55.1500   44.9020   30.3038 C   0  0  0  0  0  0
   59.1897   46.2030   29.5981 C   0  0  0  0  0  0
   56.5801   45.2416   30.0119 C   0  0  0  0  0  0
   60.5271   47.7835   28.4785 O   0  0  0  0  0  0
   64.8850   46.0698   34.3849 C   0  0  0  0  0  0
   63.4571   45.9338   34.9032 C   0  0  0  0  0  0
   54.5930   45.2760   31.3371 O   0  0  0  0  0  0
   58.2713   46.1376   28.5399 C   0  0  0  0  0  0
   58.8079   45.6769   30.8353 C   0  0  0  0  0  0
   57.5181   45.2126   31.0426 C   0  0  0  0  0  0
   56.9721   45.6774   28.7453 C   0  0  0  0  0  0
   63.1732   46.3270   28.2304 C   0  0  0  0  0  0
   54.5347   44.1622   29.3391 O   0  0  0  0  0  0
   62.6595   48.2703   34.4246 C   0  0  0  0  0  0
   64.9915   44.0584   32.8672 C   0  0  0  0  0  0
   66.4047   46.1635   32.4599 C   0  0  0  0  0  0
   61.0304   46.2731   34.5287 C   0  0  0  0  0  0
   62.8073   44.9205   27.7387 C   0  0  0  0  0  0
   64.5324   46.8770   27.7629 C   0  0  0  0  0  0
   60.6956   47.2848   32.1003 H   0  0  0  0  0  0
   64.9080   45.7207   30.1953 H   0  0  0  0  0  0
   65.2041   47.1059   34.5028 H   0  0  0  0  0  0
   65.5592   45.5046   35.0308 H   0  0  0  0  0  0
   63.4246   46.2101   35.9586 H   0  0  0  0  0  0
   63.2040   44.8774   34.8802 H   0  0  0  0  0  0
   58.5344   46.5224   27.5654 H   0  0  0  0  0  0
   59.4535   45.6774   31.6938 H   0  0  0  0  0  0
   57.2514   44.8783   32.0320 H   0  0  0  0  0  0
   56.2726   45.7178   27.9220 H   0  0  0  0  0  0
   62.5125   46.9963   27.6965 H   0  0  0  0  0  0
   55.1438   43.8455   28.6635 H   0  0  0  0  0  0
   62.4749   48.4747   35.4801 H   0  0  0  0  0  0
   63.6693   48.6074   34.1970 H   0  0  0  0  0  0
   62.0035   48.9125   33.8425 H   0  0  0  0  0  0
   65.7532   43.6154   33.5107 H   0  0  0  0  0  0
   64.0259   43.6570   33.1760 H   0  0  0  0  0  0
   65.1679   43.6945   31.8554 H   0  0  0  0  0  0
   67.2048   45.7879   33.0985 H   0  0  0  0  0  0
   66.6558   45.8792   31.4397 H   0  0  0  0  0  0
   66.4268   47.2502   32.5379 H   0  0  0  0  0  0
   60.9401   46.2265   35.6148 H   0  0  0  0  0  0
   60.2287   46.9256   34.1903 H   0  0  0  0  0  0
   60.8126   45.2771   34.1396 H   0  0  0  0  0  0
   61.8043   44.6375   28.0594 H   0  0  0  0  0  0
   62.8074   44.8773   26.6511 H   0  0  0  0  0  0
   63.4934   44.1738   28.1397 H   0  0  0  0  0  0
   64.6846   47.9019   28.0907 H   0  0  0  0  0  0
   65.3538   46.2699   28.1388 H   0  0  0  0  0  0
   64.5912   46.8796   26.6747 H   0  0  0  0  0  0
  1  4  1  0  0  0
  1  5  1  0  0  0
  1  6  2  0  0  0
  2  6  1  0  0  0
  2  3  2  0  0  0
  2  8  1  0  0  0
  3  9  1  0  0  0
  3  7  1  0  0  0
  4  7  2  0  0  0
  4 21  1  0  0  0
  5 11  1  0  0  0
  5 13  2  0  0  0
  6 29  1  0  0  0
  7 30  1  0  0  0
  8 15  1  0  0  0
  8 23  1  0  0  0
  8 26  1  0  0  0
  9 24  1  0  0  0
  9 25  1  0  0  0
  9 14  1  0  0  0
 10 12  1  0  0  0
 10 16  2  0  0  0
 10 22  1  0  0  0
 11 17  2  0  0  0
 11 18  1  0  0  0
 12 19  1  0  0  0
 12 20  2  0  0  0
 14 15  1  0  0  0
 14 31  1  0  0  0
 14 32  1  0  0  0
 15 33  1  0  0  0
 15 34  1  0  0  0
 17 20  1  0  0  0
 17 35  1  0  0  0
 18 19  2  0  0  0
 18 36  1  0  0  0
 19 37  1  0  0  0
 20 38  1  0  0  0
 21 27  1  0  0  0
 21 28  1  0  0  0
 21 39  1  0  0  0
 22 40  1  0  0  0
 23 41  1  0  0  0
 23 42  1  0  0  0
 23 43  1  0  0  0
 24 44  1  0  0  0
 24 45  1  0  0  0
 24 46  1  0  0  0
 25 47  1  0  0  0
 25 48  1  0  0  0
 25 49  1  0  0  0
 26 50  1  0  0  0
 26 51  1  0  0  0
 26 52  1  0  0  0
 27 53  1  0  0  0
 27 54  1  0  0  0
 27 55  1  0  0  0
 28 56  1  0  0  0
 28 57  1  0  0  0
 28 58  1  0  0  0
M  END
> <s_m_entry_id>
30903

> <s_m_entry_name>
dock_pv.116

> <s_m_Source_Path>
/home/csk/Desktop/cluster/DUD-E-result/rxra

> <s_m_Source_File>
dock_pv.maegz

> <i_m_Source_File_Index>
116

> <chembl_id>
CHEMBL101666

> <chembl_pref_name>
None

> <i_lp_mmshare_version>
53161

> <r_lp_tautomer_probability>
1

> <s_lp_Force_Field>
OPLS_2005

> <r_lp_Energy>
33.597492

> <b_lp_Chiralities_Consistent>
1

> <s_lp_Variant>
CHEMBL2061_lig356-1

> <s_i_glide_gridfile>
glide-grid_1mv9

> <i_i_glide_lignum>
416

> <i_i_glide_rotatable_bonds>
5

> <r_i_docking_score>
-10.977111923828

> <r_i_glide_ligand_efficiency>
-0.392039711565285

> <r_i_glide_ligand_efficiency_sa>
-1.19046346335417

> <r_i_glide_ligand_efficiency_ln>
-2.53383973403048

> <r_i_glide_gscore>
-10.977111923828

> <r_i_glide_lipo>
-6.16445276994087

> <r_i_glide_hbond>
-0.0908176541703192

> <r_i_glide_metal>
0

> <r_i_glide_rewards>
-2.36734101874339

> <r_i_glide_evdw>
-41.241325378418

> <r_i_glide_ecoul>
-4.65501594543457

> <r_i_glide_erotb>
0.40581817976269

> <r_i_glide_esite>
0

> <r_i_glide_emodel>
-57.9901484194518

> <r_i_glide_energy>
-45.8963413238525

> <r_i_glide_einternal>
6.75100040435791

> <i_i_glide_confnum>
19

> <i_i_glide_posenum>
23

> <r_i_glide_eff_state_penalty>
0

> <s_user_duplicate_titles>
CHEMBL2061_lig356,163572

> <i_f3d_flags>
0

> <s_m_subgroup_title>
dock_pv

> <s_m_subgroupid>
dock_pv

> <b_m_subgroup_collapsed>
1

$$$$
CHEMBL2061_lig450
                    3D
 Schrodinger Suite 2021-1.
 58 60  0  0  1  0            999 V2000
   64.1879   46.8252   35.3919 C   0  0  0  0  0  0
   65.2935   45.8049   35.1034 C   0  0  0  0  0  0
   65.7808   45.7326   33.6353 C   0  0  0  0  0  0
   63.4573   47.1777   34.2955 N   0  0  0  0  0  0
   64.0080   47.2443   36.5383 O   0  0  0  0  0  0
   66.6303   44.4743   33.5260 C   0  0  0  0  0  0
   66.6384   46.9397   33.2488 C   0  0  0  0  0  0
   63.4824   46.5329   33.0247 C   0  0  0  0  0  0
   64.5826   45.7275   32.6874 C   0  0  0  0  0  0
   64.5776   45.0344   31.4717 C   0  0  0  0  0  0
   63.5423   45.1769   30.5562 C   0  0  0  0  0  0
   62.5023   46.0777   30.8286 C   0  0  0  0  0  0
   62.4785   46.7268   32.0641 C   0  0  0  0  0  0
   61.3958   46.3287   29.8723 C   0  0  0  0  0  0
   60.0979   46.0207   30.2841 C   0  0  0  0  0  0
   59.0120   46.0999   29.4213 C   0  0  0  0  0  0
   59.2369   46.5934   28.1362 C   0  0  0  0  0  0
   60.5169   46.9844   27.7257 C   0  0  0  0  0  0
   61.6212   46.8405   28.5811 C   0  0  0  0  0  0
   57.6535   45.6129   29.9380 C   0  0  0  0  0  0
   56.4078   45.8578   29.0439 C   0  0  0  0  0  0
   55.0605   45.6082   29.7400 C   0  0  0  0  0  0
   55.0616   44.4775   30.4992 O   0  0  0  0  0  0
   54.0861   46.3461   29.6027 O   0  0  0  0  0  0
   62.9409   47.0754   28.2176 O   0  0  0  0  0  0
   63.3602   48.0504   27.2576 C   0  0  0  0  0  0
   62.6711   48.0767   26.1393 F   0  0  0  0  0  0
   63.3617   49.2770   27.7389 F   0  0  0  0  0  0
   64.6161   47.7501   26.9326 F   0  0  0  0  0  0
   62.3831   48.1409   34.5928 C   0  0  0  0  0  0
   63.5591   44.3011   29.3108 C   0  0  0  0  0  0
   61.1162   47.5021   35.1871 C   0  0  0  0  0  0
   61.3165   46.5995   36.1383 F   0  0  0  0  0  0
   60.4082   48.4769   35.7392 F   0  0  0  0  0  0
   60.4051   46.8769   34.2548 F   0  0  0  0  0  0
   66.1281   46.0768   35.7391 H   0  0  0  0  0  0
   64.9124   44.8435   35.4474 H   0  0  0  0  0  0
   67.4071   44.4777   34.2910 H   0  0  0  0  0  0
   66.0436   43.5595   33.6300 H   0  0  0  0  0  0
   67.1404   44.4735   32.5670 H   0  0  0  0  0  0
   67.6086   46.8874   33.7391 H   0  0  0  0  0  0
   66.8080   46.8773   32.1742 H   0  0  0  0  0  0
   66.1700   47.8986   33.4702 H   0  0  0  0  0  0
   65.4008   44.3881   31.2100 H   0  0  0  0  0  0
   61.6479   47.3869   32.2506 H   0  0  0  0  0  0
   59.9372   45.6770   31.2946 H   0  0  0  0  0  0
   58.4293   46.6575   27.4282 H   0  0  0  0  0  0
   60.6275   47.3392   26.7156 H   0  0  0  0  0  0
   57.4965   46.0737   30.9159 H   0  0  0  0  0  0
   57.7668   44.5415   30.1138 H   0  0  0  0  0  0
   56.4487   45.2546   28.1392 H   0  0  0  0  0  0
   56.3991   46.8882   28.7036 H   0  0  0  0  0  0
   55.9059   44.0255   30.4446 H   0  0  0  0  0  0
   62.7548   48.8763   35.3086 H   0  0  0  0  0  0
   62.1416   48.7419   33.7178 H   0  0  0  0  0  0
   64.0978   43.3699   29.4895 H   0  0  0  0  0  0
   62.5506   44.0146   29.0106 H   0  0  0  0  0  0
   64.0366   44.8273   28.4880 H   0  0  0  0  0  0
  1  5  2  0  0  0
  1  2  1  0  0  0
  1  4  1  0  0  0
  2  3  1  0  0  0
  2 36  1  0  0  0
  2 37  1  0  0  0
  3  9  1  0  0  0
  3  6  1  0  0  0
  3  7  1  0  0  0
  4  8  1  0  0  0
  4 30  1  0  0  0
  6 38  1  0  0  0
  6 39  1  0  0  0
  6 40  1  0  0  0
  7 41  1  0  0  0
  7 42  1  0  0  0
  7 43  1  0  0  0
  8  9  2  0  0  0
  8 13  1  0  0  0
  9 10  1  0  0  0
 10 11  2  0  0  0
 10 44  1  0  0  0
 11 12  1  0  0  0
 11 31  1  0  0  0
 12 14  1  0  0  0
 12 13  2  0  0  0
 13 45  1  0  0  0
 14 19  1  0  0  0
 14 15  2  0  0  0
 15 16  1  0  0  0
 15 46  1  0  0  0
 16 20  1  0  0  0
 16 17  2  0  0  0
 17 18  1  0  0  0
 17 47  1  0  0  0
 18 19  2  0  0  0
 18 48  1  0  0  0
 19 25  1  0  0  0
 20 21  1  0  0  0
 20 49  1  0  0  0
 20 50  1  0  0  0
 21 22  1  0  0  0
 21 51  1  0  0  0
 21 52  1  0  0  0
 22 23  1  0  0  0
 22 24  2  0  0  0
 23 53  1  0  0  0
 25 26  1  0  0  0
 26 27  1  0  0  0
 26 28  1  0  0  0
 26 29  1  0  0  0
 30 32  1  0  0  0
 30 54  1  0  0  0
 30 55  1  0  0  0
 31 56  1  0  0  0
 31 57  1  0  0  0
 31 58  1  0  0  0
 32 33  1  0  0  0
 32 34  1  0  0  0
 32 35  1  0  0  0
M  END
> <s_m_entry_id>
30904

> <s_m_entry_name>
dock_pv.117

> <s_m_Source_Path>
/home/csk/Desktop/cluster/DUD-E-result/rxra

> <s_m_Source_File>
dock_pv.maegz

> <i_m_Source_File_Index>
117

> <chembl_id>
CHEMBL247220

> <chembl_pref_name>
None

> <i_lp_mmshare_version>
53161

> <r_lp_tautomer_probability>
1

> <s_lp_Force_Field>
OPLS_2005

> <r_lp_Energy>
35.444325

> <b_lp_Chiralities_Consistent>
1

> <s_lp_Variant>
CHEMBL2061_lig450-1

> <s_i_glide_gridfile>
glide-grid_1mv9

> <i_i_glide_lignum>
526

> <i_i_glide_rotatable_bonds>
9

> <r_i_docking_score>
-10.9732907347597

> <r_i_glide_ligand_efficiency>
-0.313522592421706

> <r_i_glide_ligand_efficiency_sa>
-1.02555318833823

> <r_i_glide_ligand_efficiency_ln>
-2.40888085534607

> <r_i_glide_gscore>
-10.9732907347597

> <r_i_glide_lipo>
-5.8915428902013

> <r_i_glide_hbond>
-0.0993210502257039

> <r_i_glide_metal>
0

> <r_i_glide_rewards>
-2.7

> <r_i_glide_evdw>
-43.8988075256348

> <r_i_glide_ecoul>
-3.80916237831116

> <r_i_glide_erotb>
0.483887938695714

> <r_i_glide_esite>
0

> <r_i_glide_emodel>
-64.5031407179707

> <r_i_glide_energy>
-47.7079699039459

> <r_i_glide_einternal>
10.131067276001

> <i_i_glide_confnum>
119

> <i_i_glide_posenum>
396

> <r_i_glide_eff_state_penalty>
0

> <s_user_duplicate_titles>
CHEMBL2061_lig450,414661

> <i_f3d_flags>
0

> <s_m_subgroup_title>
dock_pv

> <s_m_subgroupid>
dock_pv

> <b_m_subgroup_collapsed>
1

$$$$
CHEMBL2061_lig4
                    3D
 Schrodinger Suite 2021-1.
 54 56  0  0  1  0            999 V2000
   54.6821   45.2770   31.3390 O   0  0  0  0  0  0
   55.2656   44.9354   30.3176 C   0  0  0  0  0  0
   54.6615   44.2160   29.3390 O   0  0  0  0  0  0
   56.7063   45.2744   30.0696 C   0  0  0  0  0  0
   57.1480   45.6770   28.8082 C   0  0  0  0  0  0
   57.6080   45.2770   31.1329 C   0  0  0  0  0  0
   58.9224   45.6770   30.9390 C   0  0  0  0  0  0
   59.3779   46.1266   29.6954 C   0  0  0  0  0  0
   58.4673   46.0932   28.6268 C   0  0  0  0  0  0
   60.7521   46.7182   29.5365 C   0  0  0  0  0  0
   61.0593   47.5652   28.5303 C   0  0  0  0  0  0
   61.8408   46.3542   30.4909 C   0  0  0  0  0  0
   62.9131   45.5449   30.0959 C   0  0  0  0  0  0
   62.9924   44.9413   28.6979 C   0  0  0  0  0  0
   63.9168   45.2419   31.0122 C   0  0  0  0  0  0
   61.8240   46.8281   31.8084 C   0  0  0  0  0  0
   62.7911   46.4770   32.7709 C   0  0  0  0  0  0
   62.6174   46.9485   34.2443 C   0  0  0  0  0  0
   62.9630   48.4519   34.3579 C   0  0  0  0  0  0
   61.1754   46.6518   34.7336 C   0  0  0  0  0  0
   63.5615   46.1628   35.1947 C   0  0  0  0  0  0
   64.9767   46.0086   34.6361 C   0  0  0  0  0  0
   65.0148   45.2110   33.3070 C   0  0  0  0  0  0
   63.8923   45.6815   32.3461 C   0  0  0  0  0  0
   64.7944   43.7069   33.6123 C   0  0  0  0  0  0
   66.4080   45.4874   32.6867 C   0  0  0  0  0  0
   55.2695   43.9021   28.6629 H   0  0  0  0  0  0
   56.4740   45.7074   27.9632 H   0  0  0  0  0  0
   57.3006   45.0077   32.1311 H   0  0  0  0  0  0
   59.5614   45.6799   31.8060 H   0  0  0  0  0  0
   58.7663   46.4133   27.6407 H   0  0  0  0  0  0
   62.0580   47.9662   28.4310 H   0  0  0  0  0  0
   60.3387   47.8851   27.7939 H   0  0  0  0  0  0
   63.6908   44.1053   28.6524 H   0  0  0  0  0  0
   62.0214   44.5469   28.3957 H   0  0  0  0  0  0
   63.2914   45.6953   27.9701 H   0  0  0  0  0  0
   64.7231   44.6032   30.6848 H   0  0  0  0  0  0
   61.0080   47.4692   32.1035 H   0  0  0  0  0  0
   62.7889   48.8165   35.3710 H   0  0  0  0  0  0
   64.0080   48.6595   34.1390 H   0  0  0  0  0  0
   62.3581   49.0588   33.6836 H   0  0  0  0  0  0
   61.0723   46.8273   35.8053 H   0  0  0  0  0  0
   60.4315   47.2770   34.2472 H   0  0  0  0  0  0
   60.8830   45.6219   34.5394 H   0  0  0  0  0  0
   63.1672   45.1693   35.4023 H   0  0  0  0  0  0
   63.6081   46.6508   36.1697 H   0  0  0  0  0  0
   65.6081   45.5253   35.3827 H   0  0  0  0  0  0
   65.4124   46.9990   34.5004 H   0  0  0  0  0  0
   65.5521   43.3247   34.2969 H   0  0  0  0  0  0
   63.8193   43.5079   34.0565 H   0  0  0  0  0  0
   64.8505   43.1018   32.7070 H   0  0  0  0  0  0
   67.2079   45.2670   33.3954 H   0  0  0  0  0  0
   66.5999   44.8770   31.8050 H   0  0  0  0  0  0
   66.5127   46.5319   32.3899 H   0  0  0  0  0  0
  1  2  2  0  0  0
  2  4  1  0  0  0
  2  3  1  0  0  0
  3 27  1  0  0  0
  4  6  2  0  0  0
  4  5  1  0  0  0
  5  9  2  0  0  0
  5 28  1  0  0  0
  6  7  1  0  0  0
  6 29  1  0  0  0
  7  8  2  0  0  0
  7 30  1  0  0  0
  8 10  1  0  0  0
  8  9  1  0  0  0
  9 31  1  0  0  0
 10 11  2  0  0  0
 10 12  1  0  0  0
 11 32  1  0  0  0
 11 33  1  0  0  0
 12 16  2  0  0  0
 12 13  1  0  0  0
 13 15  2  0  0  0
 13 14  1  0  0  0
 14 34  1  0  0  0
 14 35  1  0  0  0
 14 36  1  0  0  0
 15 24  1  0  0  0
 15 37  1  0  0  0
 16 17  1  0  0  0
 16 38  1  0  0  0
 17 18  1  0  0  0
 17 24  2  0  0  0
 18 20  1  0  0  0
 18 21  1  0  0  0
 18 19  1  0  0  0
 19 39  1  0  0  0
 19 40  1  0  0  0
 19 41  1  0  0  0
 20 42  1  0  0  0
 20 43  1  0  0  0
 20 44  1  0  0  0
 21 22  1  0  0  0
 21 45  1  0  0  0
 21 46  1  0  0  0
 22 23  1  0  0  0
 22 47  1  0  0  0
 22 48  1  0  0  0
 23 25  1  0  0  0
 23 24  1  0  0  0
 23 26  1  0  0  0
 25 49  1  0  0  0
 25 50  1  0  0  0
 25 51  1  0  0  0
 26 52  1  0  0  0
 26 53  1  0  0  0
 26 54  1  0  0  0
M  END
> <s_m_entry_id>
30905

> <s_m_entry_name>
dock_pv.118

> <s_m_Source_Path>
/home/csk/Desktop/cluster/DUD-E-result/rxra

> <s_m_Source_File>
dock_pv.maegz

> <i_m_Source_File_Index>
118

> <chembl_id>
CHEMBL1023

> <chembl_pref_name>
BEXAROTENE

> <i_lp_mmshare_version>
53161

> <r_lp_tautomer_probability>
1

> <s_lp_Force_Field>
OPLS_2005

> <r_lp_Energy>
29.893619

> <b_lp_Chiralities_Consistent>
1

> <s_lp_Variant>
CHEMBL2061_lig4-1

> <s_i_glide_gridfile>
glide-grid_1mv9

> <i_i_glide_lignum>
7

> <i_i_glide_rotatable_bonds>
4

> <r_i_docking_score>
-10.9718279253199

> <r_i_glide_ligand_efficiency>
-0.421993381743072

> <r_i_glide_ligand_efficiency_sa>
-1.25015373295007

> <r_i_glide_ligand_efficiency_ln>
-2.57669778675753

> <r_i_glide_gscore>
-10.9718279253199

> <r_i_glide_lipo>
-6.44800816658047

> <r_i_glide_hbond>
-0.0660077892680827

> <r_i_glide_metal>
0

> <r_i_glide_rewards>
-2.1815139308853

> <r_i_glide_evdw>
-42.568489074707

> <r_i_glide_ecoul>
-4.12112855911255

> <r_i_glide_erotb>
0.470295699016224

> <r_i_glide_esite>
0

> <r_i_glide_emodel>
-73.0166732014921

> <r_i_glide_energy>
-46.6896176338196

> <r_i_glide_einternal>
6.09390497207642

> <i_i_glide_confnum>
19

> <i_i_glide_posenum>
267

> <r_i_glide_eff_state_penalty>
0

> <s_user_duplicate_titles>
CHEMBL2061_lig4,119498

> <i_f3d_flags>
0

> <s_m_subgroup_title>
dock_pv

> <s_m_subgroupid>
dock_pv

> <b_m_subgroup_collapsed>
1

$$$$
CHEMBL2061_lig144
                    3D
 Schrodinger Suite 2021-1.
 68 71  0  0  1  0            999 V2000
   61.9980   46.7381   30.9224 C   0  0  0  0  0  0
   60.9374   46.8497   29.8343 C   0  0  0  0  0  0
   61.2545   47.5345   28.7028 C   0  0  0  0  0  0
   62.8349   46.7503   33.2769 C   0  0  0  0  0  0
   64.1115   46.3615   32.8133 C   0  0  0  0  0  0
   61.8047   46.9340   32.3105 C   0  0  0  0  0  0
   63.3137   46.4739   30.5339 C   0  0  0  0  0  0
   64.3417   46.3910   31.4532 C   0  0  0  0  0  0
   60.8630   48.0726   27.3546 C   0  0  0  0  0  0
   62.2722   48.2758   27.8728 C   0  0  0  0  0  0
   62.6257   47.0409   34.7896 C   0  0  0  0  0  0
   65.2723   45.8933   33.7092 C   0  0  0  0  0  0
   55.4177   45.0142   30.3088 C   0  0  0  0  0  0
   59.5761   46.1811   29.9201 C   0  0  0  0  0  0
   56.8845   45.2886   30.1357 C   0  0  0  0  0  0
   63.9690   47.0229   35.5738 C   0  0  0  0  0  0
   64.8503   45.8485   35.1906 C   0  0  0  0  0  0
   54.8088   45.2770   31.3398 O   0  0  0  0  0  0
   58.7205   46.1218   28.8036 C   0  0  0  0  0  0
   59.0595   45.6769   31.1152 C   0  0  0  0  0  0
   57.4006   45.6880   28.9040 C   0  0  0  0  0  0
   57.7364   45.2719   31.2372 C   0  0  0  0  0  0
   54.8092   44.4773   29.2260 O   0  0  0  0  0  0
   63.5989   46.1493   29.2428 O   0  0  0  0  0  0
   66.4623   46.8495   33.5232 C   0  0  0  0  0  0
   65.6750   44.4561   33.3123 C   0  0  0  0  0  0
   61.6067   46.0800   35.4350 C   0  0  0  0  0  0
   62.1940   48.4794   34.9274 C   0  0  0  0  0  0
   64.4074   45.0052   29.0292 C   0  0  0  0  0  0
   64.1902   43.7797   29.9555 C   0  0  0  0  0  0
   63.2064   42.7897   29.3607 C   0  0  0  0  0  0
   61.8579   43.3475   28.9380 C   0  0  0  0  0  0
   60.8352   47.2511   32.6597 H   0  0  0  0  0  0
   65.3315   46.1736   31.0853 H   0  0  0  0  0  0
   60.7023   47.3774   26.5322 H   0  0  0  0  0  0
   60.2205   48.9481   27.3358 H   0  0  0  0  0  0
   62.5737   49.2772   28.1392 H   0  0  0  0  0  0
   63.0724   47.7083   27.3939 H   0  0  0  0  0  0
   64.5453   47.9309   35.3746 H   0  0  0  0  0  0
   63.7965   47.0232   36.6504 H   0  0  0  0  0  0
   65.7453   45.8796   35.8000 H   0  0  0  0  0  0
   64.3382   44.9150   35.4346 H   0  0  0  0  0  0
   59.0385   46.4467   27.8297 H   0  0  0  0  0  0
   59.6390   45.6775   32.0201 H   0  0  0  0  0  0
   56.7773   45.7348   28.0215 H   0  0  0  0  0  0
   57.3807   44.9984   32.2129 H   0  0  0  0  0  0
   55.4378   44.1787   28.5637 H   0  0  0  0  0  0
   67.2970   46.4781   34.1240 H   0  0  0  0  0  0
   66.8108   46.8735   32.4949 H   0  0  0  0  0  0
   66.2127   47.8792   33.7739 H   0  0  0  0  0  0
   66.4015   44.0338   34.0083 H   0  0  0  0  0  0
   64.8194   43.7810   33.2747 H   0  0  0  0  0  0
   66.1420   44.4758   32.3267 H   0  0  0  0  0  0
   61.0058   46.5859   36.1936 H   0  0  0  0  0  0
   62.1079   45.2769   35.9645 H   0  0  0  0  0  0
   60.8995   45.6767   34.7094 H   0  0  0  0  0  0
   62.1807   48.8128   35.9685 H   0  0  0  0  0  0
   62.8745   49.1225   34.3685 H   0  0  0  0  0  0
   61.2083   48.6420   34.5390 H   0  0  0  0  0  0
   64.0081   44.7287   28.0770 H   0  0  0  0  0  0
   65.4569   45.2769   28.9350 H   0  0  0  0  0  0
   65.1397   43.2776   30.1495 H   0  0  0  0  0  0
   63.8204   44.0236   30.9466 H   0  0  0  0  0  0
   63.6629   42.3263   28.4854 H   0  0  0  0  0  0
   63.0307   42.0359   30.1223 H   0  0  0  0  0  0
   61.2081   42.4872   28.8029 H   0  0  0  0  0  0
   61.4165   44.0173   29.6767 H   0  0  0  0  0  0
   61.9206   43.8888   27.9931 H   0  0  0  0  0  0
  1  2  1  0  0  0
  1  6  2  0  0  0
  1  7  1  0  0  0
  2  3  2  0  0  0
  2 14  1  0  0  0
  3  9  1  0  0  0
  3 10  1  0  0  0
  4  6  1  0  0  0
  4 11  1  0  0  0
  4  5  2  0  0  0
  5  8  1  0  0  0
  5 12  1  0  0  0
  6 33  1  0  0  0
  7  8  2  0  0  0
  7 24  1  0  0  0
  8 34  1  0  0  0
  9 10  1  0  0  0
  9 35  1  0  0  0
  9 36  1  0  0  0
 10 37  1  0  0  0
 10 38  1  0  0  0
 11 16  1  0  0  0
 11 27  1  0  0  0
 11 28  1  0  0  0
 12 17  1  0  0  0
 12 25  1  0  0  0
 12 26  1  0  0  0
 13 15  1  0  0  0
 13 18  2  0  0  0
 13 23  1  0  0  0
 14 19  1  0  0  0
 14 20  2  0  0  0
 15 22  2  0  0  0
 15 21  1  0  0  0
 16 17  1  0  0  0
 16 39  1  0  0  0
 16 40  1  0  0  0
 17 41  1  0  0  0
 17 42  1  0  0  0
 19 21  2  0  0  0
 19 43  1  0  0  0
 20 22  1  0  0  0
 20 44  1  0  0  0
 21 45  1  0  0  0
 22 46  1  0  0  0
 23 47  1  0  0  0
 24 29  1  0  0  0
 25 48  1  0  0  0
 25 49  1  0  0  0
 25 50  1  0  0  0
 26 51  1  0  0  0
 26 52  1  0  0  0
 26 53  1  0  0  0
 27 54  1  0  0  0
 27 55  1  0  0  0
 27 56  1  0  0  0
 28 57  1  0  0  0
 28 58  1  0  0  0
 28 59  1  0  0  0
 29 30  1  0  0  0
 29 60  1  0  0  0
 29 61  1  0  0  0
 30 31  1  0  0  0
 30 62  1  0  0  0
 30 63  1  0  0  0
 31 32  1  0  0  0
 31 64  1  0  0  0
 31 65  1  0  0  0
 32 66  1  0  0  0
 32 67  1  0  0  0
 32 68  1  0  0  0
M  END
> <s_m_entry_id>
30906

> <s_m_entry_name>
dock_pv.119

> <s_m_Source_Path>
/home/csk/Desktop/cluster/DUD-E-result/rxra

> <s_m_Source_File>
dock_pv.maegz

> <i_m_Source_File_Index>
119

> <chembl_id>
CHEMBL188581

> <chembl_pref_name>
None

> <i_lp_mmshare_version>
53161

> <r_lp_tautomer_probability>
1

> <s_lp_Force_Field>
OPLS_2005

> <r_lp_Energy>
55.021306

> <b_lp_Chiralities_Consistent>
1

> <s_lp_Variant>
CHEMBL2061_lig144-1

> <s_i_glide_gridfile>
glide-grid_1mv9

> <i_i_glide_lignum>
183

> <i_i_glide_rotatable_bonds>
8

> <r_i_docking_score>
-10.9605461631036

> <r_i_glide_ligand_efficiency>
-0.342517067596986

> <r_i_glide_ligand_efficiency_sa>
-1.0874239055848

> <r_i_glide_ligand_efficiency_ln>
-2.45436505912318

> <r_i_glide_gscore>
-10.9605461631036

> <r_i_glide_lipo>
-7.49028652755583

> <r_i_glide_hbond>
-0.0283054674165678

> <r_i_glide_metal>
0

> <r_i_glide_rewards>
-1.6995970162761

> <r_i_glide_evdw>
-37.9699630737305

> <r_i_glide_ecoul>
-3.21258211135864

> <r_i_glide_erotb>
0.638028318535252

> <r_i_glide_esite>
0

> <r_i_glide_emodel>
-34.9653213673142

> <r_i_glide_energy>
-41.1825451850891

> <r_i_glide_einternal>
13.9583253860474

> <i_i_glide_confnum>
165

> <i_i_glide_posenum>
135

> <r_i_glide_eff_state_penalty>
0

> <s_user_duplicate_titles>
CHEMBL2061_lig144,312320

> <i_f3d_flags>
0

> <s_m_subgroup_title>
dock_pv

> <s_m_subgroupid>
dock_pv

> <b_m_subgroup_collapsed>
1

$$$$
CHEMBL2061_lig143
                    3D
 Schrodinger Suite 2021-1.
 67 70  0  0  1  0            999 V2000
   62.2075   46.6848   30.5165 C   0  0  0  0  0  0
   61.1575   46.9446   29.4741 C   0  0  0  0  0  0
   61.4893   47.6911   28.3990 C   0  0  0  0  0  0
   62.8807   46.7533   32.8941 C   0  0  0  0  0  0
   64.1352   46.1769   32.5636 C   0  0  0  0  0  0
   61.9900   47.0595   31.8463 C   0  0  0  0  0  0
   64.3940   45.9135   31.2151 C   0  0  0  0  0  0
   63.4355   46.0748   30.2182 C   0  0  0  0  0  0
   61.0629   48.4061   27.1579 C   0  0  0  0  0  0
   62.5213   48.4470   27.6167 C   0  0  0  0  0  0
   62.4961   47.0959   34.3522 C   0  0  0  0  0  0
   65.1752   45.7459   33.6324 C   0  0  0  0  0  0
   55.6273   45.2081   30.0876 C   0  0  0  0  0  0
   59.7661   46.3735   29.6022 C   0  0  0  0  0  0
   57.0876   45.5026   29.8967 C   0  0  0  0  0  0
   63.4087   46.3561   35.3659 C   0  0  0  0  0  0
   64.8856   46.4306   34.9835 C   0  0  0  0  0  0
   54.8079   45.3533   29.1921 O   0  0  0  0  0  0
   59.3198   45.7374   30.7676 C   0  0  0  0  0  0
   58.8434   46.4754   28.5492 C   0  0  0  0  0  0
   58.0105   45.2913   30.9204 C   0  0  0  0  0  0
   57.5273   46.0528   28.6934 C   0  0  0  0  0  0
   55.2565   44.8396   31.3389 O   0  0  0  0  0  0
   63.6947   45.4115   28.8729 C   0  0  0  0  0  0
   66.5934   46.1947   33.2246 C   0  0  0  0  0  0
   65.0875   44.2105   33.8191 C   0  0  0  0  0  0
   61.0426   46.6541   34.6639 C   0  0  0  0  0  0
   62.6998   48.6056   34.5385 C   0  0  0  0  0  0
   62.7801   44.1852   28.6980 C   0  0  0  0  0  0
   63.3588   42.8727   29.2232 C   0  0  0  0  0  0
   64.1300   42.8718   30.5535 C   0  0  0  0  0  0
   61.0714   47.5725   32.0823 H   0  0  0  0  0  0
   65.3271   45.4470   30.9429 H   0  0  0  0  0  0
   60.8085   47.8103   26.2802 H   0  0  0  0  0  0
   60.4183   49.2768   27.2937 H   0  0  0  0  0  0
   62.9785   49.2770   28.1322 H   0  0  0  0  0  0
   63.2345   47.9206   26.9827 H   0  0  0  0  0  0
   63.2838   46.7782   36.3625 H   0  0  0  0  0  0
   63.1158   45.3101   35.4587 H   0  0  0  0  0  0
   65.1976   47.4740   34.9392 H   0  0  0  0  0  0
   65.4930   45.9850   35.7720 H   0  0  0  0  0  0
   59.9606   45.6770   31.6272 H   0  0  0  0  0  0
   59.1144   46.8991   27.5985 H   0  0  0  0  0  0
   57.7136   44.8748   31.8713 H   0  0  0  0  0  0
   56.8446   46.1741   27.8647 H   0  0  0  0  0  0
   54.3224   44.6596   31.3346 H   0  0  0  0  0  0
   63.5280   46.1045   28.0626 H   0  0  0  0  0  0
   64.7445   45.1366   28.7686 H   0  0  0  0  0  0
   67.3192   45.9916   34.0125 H   0  0  0  0  0  0
   66.9225   45.6487   32.3468 H   0  0  0  0  0  0
   66.6394   47.2614   32.9965 H   0  0  0  0  0  0
   65.7018   43.8730   34.6552 H   0  0  0  0  0  0
   64.0679   43.8680   33.9970 H   0  0  0  0  0  0
   65.4501   43.6825   32.9389 H   0  0  0  0  0  0
   60.8127   46.7278   35.7274 H   0  0  0  0  0  0
   60.8553   45.6252   34.3590 H   0  0  0  0  0  0
   60.3122   47.2761   34.1546 H   0  0  0  0  0  0
   62.5331   48.8769   35.5798 H   0  0  0  0  0  0
   63.7003   48.9346   34.2667 H   0  0  0  0  0  0
   62.0079   49.1767   33.9187 H   0  0  0  0  0  0
   61.8055   44.3446   29.1604 H   0  0  0  0  0  0
   62.5510   44.0565   27.6399 H   0  0  0  0  0  0
   62.5369   42.1682   29.3390 H   0  0  0  0  0  0
   64.0080   42.4770   28.4450 H   0  0  0  0  0  0
   64.2778   41.8616   30.9387 H   0  0  0  0  0  0
   65.1210   43.3058   30.4267 H   0  0  0  0  0  0
   63.6100   43.4179   31.3346 H   0  0  0  0  0  0
  1  2  1  0  0  0
  1  6  2  0  0  0
  1  8  1  0  0  0
  2  3  2  0  0  0
  2 14  1  0  0  0
  3  9  1  0  0  0
  3 10  1  0  0  0
  4  6  1  0  0  0
  4 11  1  0  0  0
  4  5  2  0  0  0
  5  7  1  0  0  0
  5 12  1  0  0  0
  6 32  1  0  0  0
  7  8  2  0  0  0
  7 33  1  0  0  0
  8 24  1  0  0  0
  9 10  1  0  0  0
  9 34  1  0  0  0
  9 35  1  0  0  0
 10 36  1  0  0  0
 10 37  1  0  0  0
 11 16  1  0  0  0
 11 27  1  0  0  0
 11 28  1  0  0  0
 12 17  1  0  0  0
 12 25  1  0  0  0
 12 26  1  0  0  0
 13 15  1  0  0  0
 13 18  2  0  0  0
 13 23  1  0  0  0
 14 19  1  0  0  0
 14 20  2  0  0  0
 15 22  2  0  0  0
 15 21  1  0  0  0
 16 17  1  0  0  0
 16 38  1  0  0  0
 16 39  1  0  0  0
 17 40  1  0  0  0
 17 41  1  0  0  0
 19 21  2  0  0  0
 19 42  1  0  0  0
 20 22  1  0  0  0
 20 43  1  0  0  0
 21 44  1  0  0  0
 22 45  1  0  0  0
 23 46  1  0  0  0
 24 29  1  0  0  0
 24 47  1  0  0  0
 24 48  1  0  0  0
 25 49  1  0  0  0
 25 50  1  0  0  0
 25 51  1  0  0  0
 26 52  1  0  0  0
 26 53  1  0  0  0
 26 54  1  0  0  0
 27 55  1  0  0  0
 27 56  1  0  0  0
 27 57  1  0  0  0
 28 58  1  0  0  0
 28 59  1  0  0  0
 28 60  1  0  0  0
 29 30  1  0  0  0
 29 61  1  0  0  0
 29 62  1  0  0  0
 30 31  1  0  0  0
 30 63  1  0  0  0
 30 64  1  0  0  0
 31 65  1  0  0  0
 31 66  1  0  0  0
 31 67  1  0  0  0
M  END
> <s_m_entry_id>
30907

> <s_m_entry_name>
dock_pv.120

> <s_m_Source_Path>
/home/csk/Desktop/cluster/DUD-E-result/rxra

> <s_m_Source_File>
dock_pv.maegz

> <i_m_Source_File_Index>
120

> <chembl_id>
CHEMBL188638

> <chembl_pref_name>
None

> <i_lp_mmshare_version>
53161

> <r_lp_tautomer_probability>
1

> <s_lp_Force_Field>
OPLS_2005

> <r_lp_Energy>
54.448411

> <b_lp_Chiralities_Consistent>
1

> <s_lp_Variant>
CHEMBL2061_lig143-1

> <s_i_glide_gridfile>
glide-grid_1mv9

> <i_i_glide_lignum>
182

> <i_i_glide_rotatable_bonds>
7

> <r_i_docking_score>
-10.9601383340631

> <r_i_glide_ligand_efficiency>
-0.353552849485906

> <r_i_glide_ligand_efficiency_sa>
-1.11064407970156

> <r_i_glide_ligand_efficiency_ln>
-2.47184708223255

> <r_i_glide_gscore>
-10.9601383340631

> <r_i_glide_lipo>
-7.78917237135128

> <r_i_glide_hbond>
0

> <r_i_glide_metal>
0

> <r_i_glide_rewards>
-1.86574784780735

> <r_i_glide_evdw>
-48.1662483215332

> <r_i_glide_ecoul>
3.55923366546631

> <r_i_glide_erotb>
0.569209251352259

> <r_i_glide_esite>
0

> <r_i_glide_emodel>
-66.6640902055328

> <r_i_glide_energy>
-44.6070146560669

> <r_i_glide_einternal>
7.00289821624756

> <i_i_glide_confnum>
146

> <i_i_glide_posenum>
192

> <r_i_glide_eff_state_penalty>
0

> <s_user_duplicate_titles>
CHEMBL2061_lig143,312182

> <i_f3d_flags>
0

> <s_m_subgroup_title>
dock_pv

> <s_m_subgroupid>
dock_pv

> <b_m_subgroup_collapsed>
1

$$$$
CHEMBL2061_lig410
                    3D
 Schrodinger Suite 2021-1.
 61 63  0  0  1  0            999 V2000
   63.7982   45.7555   32.8634 C   0  0  0  0  0  0
   63.0801   46.6703   33.6792 C   0  0  0  0  0  0
   63.6183   45.8285   31.4770 C   0  0  0  0  0  0
   62.7086   46.6985   30.8779 C   0  0  0  0  0  0
   64.7868   44.7190   33.4409 C   0  0  0  0  0  0
   63.1576   46.6608   35.2216 C   0  0  0  0  0  0
   59.9298   46.3479   29.5432 C   0  0  0  0  0  0
   62.1947   47.5651   33.0585 C   0  0  0  0  0  0
   56.2909   46.0225   29.2294 C   0  0  0  0  0  0
   54.9895   45.6759   29.7390 C   0  0  0  0  0  0
   58.6497   46.3899   29.1245 C   0  0  0  0  0  0
   62.5049   46.6830   29.3622 C   0  0  2  0  0  0
   57.4926   45.8671   29.8423 C   0  0  0  0  0  0
   62.0082   47.5878   31.6843 C   0  0  0  0  0  0
   61.0947   46.9972   28.7979 C   0  0  1  0  0  0
   64.4993   44.4859   34.9370 C   0  0  0  0  0  0
   64.3323   45.7774   35.7261 C   0  0  0  0  0  0
   54.0023   46.3843   29.5725 O   0  0  0  0  0  0
   54.9523   44.4771   30.3786 O   0  0  0  0  0  0
   62.9223   45.3861   28.6472 C   0  0  0  0  0  0
   64.6077   43.3220   32.7909 C   0  0  0  0  0  0
   66.2185   45.2791   33.2586 C   0  0  0  0  0  0
   63.4884   48.0801   35.7389 C   0  0  0  0  0  0
   61.7961   46.1145   35.7390 C   0  0  0  0  0  0
   62.1478   45.3328   27.3391 C   0  0  0  0  0  0
   61.1962   46.5321   27.3402 C   0  0  0  0  0  0
   57.6681   45.2735   31.2412 C   0  0  0  0  0  0
   64.2029   45.1753   30.8510 H   0  0  0  0  0  0
   60.1776   45.8528   30.4706 H   0  0  0  0  0  0
   61.6087   48.2407   33.6622 H   0  0  0  0  0  0
   56.2307   46.4766   28.2515 H   0  0  0  0  0  0
   58.4704   46.8772   28.1775 H   0  0  0  0  0  0
   63.1613   47.4766   28.9991 H   0  0  0  0  0  0
   61.3111   48.2910   31.2556 H   0  0  0  0  0  0
   60.9379   48.0768   28.8164 H   0  0  0  0  0  0
   65.3245   43.9058   35.3390 H   0  0  0  0  0  0
   63.6081   43.8759   35.0806 H   0  0  0  0  0  0
   65.2749   46.3199   35.6650 H   0  0  0  0  0  0
   64.2156   45.5525   36.7876 H   0  0  0  0  0  0
   55.8185   44.0652   30.3490 H   0  0  0  0  0  0
   64.0038   45.2929   28.5392 H   0  0  0  0  0  0
   62.6133   44.5269   29.2470 H   0  0  0  0  0  0
   65.2858   42.5946   33.2392 H   0  0  0  0  0  0
   63.6079   42.9224   32.9276 H   0  0  0  0  0  0
   64.8076   43.3167   31.7209 H   0  0  0  0  0  0
   66.9624   44.6482   33.7449 H   0  0  0  0  0  0
   66.4849   45.3303   32.2023 H   0  0  0  0  0  0
   66.3284   46.2865   33.6613 H   0  0  0  0  0  0
   63.6906   48.0739   36.8092 H   0  0  0  0  0  0
   64.3780   48.4778   35.2486 H   0  0  0  0  0  0
   62.6781   48.7884   35.5743 H   0  0  0  0  0  0
   61.8951   45.3575   36.5258 H   0  0  0  0  0  0
   61.1903   46.9216   36.1504 H   0  0  0  0  0  0
   61.1843   45.6770   34.9505 H   0  0  0  0  0  0
   62.8117   45.3642   26.4807 H   0  0  0  0  0  0
   61.6082   44.3917   27.2810 H   0  0  0  0  0  0
   60.2345   46.3029   26.8819 H   0  0  0  0  0  0
   61.5962   47.3496   26.7372 H   0  0  0  0  0  0
   58.3678   45.8850   31.8110 H   0  0  0  0  0  0
   56.7637   45.2827   31.8462 H   0  0  0  0  0  0
   58.0946   44.2718   31.1905 H   0  0  0  0  0  0
  1  2  2  0  0  0
  1  3  1  0  0  0
  1  5  1  0  0  0
  2  6  1  0  0  0
  2  8  1  0  0  0
  3  4  2  0  0  0
  3 28  1  0  0  0
  4 12  1  0  0  0
  4 14  1  0  0  0
  5 16  1  0  0  0
  5 21  1  0  0  0
  5 22  1  0  0  0
  6 23  1  0  0  0
  6 24  1  0  0  0
  6 17  1  0  0  0
  7 15  1  0  0  0
  7 11  2  0  0  0
  7 29  1  0  0  0
  8 14  2  0  0  0
  8 30  1  0  0  0
  9 13  2  0  0  0
  9 10  1  0  0  0
  9 31  1  0  0  0
 10 18  2  0  0  0
 10 19  1  0  0  0
 11 13  1  0  0  0
 11 32  1  0  0  0
 12 15  1  0  0  0
 12 20  1  0  0  0
 12 33  1  0  0  0
 13 27  1  0  0  0
 14 34  1  0  0  0
 15 26  1  0  0  0
 15 35  1  0  0  0
 16 17  1  0  0  0
 16 36  1  0  0  0
 16 37  1  0  0  0
 17 38  1  0  0  0
 17 39  1  0  0  0
 19 40  1  0  0  0
 20 25  1  0  0  0
 20 41  1  0  0  0
 20 42  1  0  0  0
 21 43  1  0  0  0
 21 44  1  0  0  0
 21 45  1  0  0  0
 22 46  1  0  0  0
 22 47  1  0  0  0
 22 48  1  0  0  0
 23 49  1  0  0  0
 23 50  1  0  0  0
 23 51  1  0  0  0
 24 52  1  0  0  0
 24 53  1  0  0  0
 24 54  1  0  0  0
 25 26  1  0  0  0
 25 55  1  0  0  0
 25 56  1  0  0  0
 26 57  1  0  0  0
 26 58  1  0  0  0
 27 59  1  0  0  0
 27 60  1  0  0  0
 27 61  1  0  0  0
M  END
> <s_m_entry_id>
30908

> <s_m_entry_name>
dock_pv.121

> <s_m_Source_Path>
/home/csk/Desktop/cluster/DUD-E-result/rxra

> <s_m_Source_File>
dock_pv.maegz

> <i_m_Source_File_Index>
121

> <chembl_id>
CHEMBL311113

> <chembl_pref_name>
None

> <i_lp_mmshare_version>
53161

> <r_lp_tautomer_probability>
1

> <s_lp_Force_Field>
OPLS_2005

> <r_lp_Energy>
39.945215

> <b_lp_Chiralities_Consistent>
1

> <s_lp_Variant>
CHEMBL2061_lig410-1

> <s_i_glide_gridfile>
glide-grid_1mv9

> <i_i_glide_lignum>
481

> <i_i_glide_rotatable_bonds>
5

> <r_i_docking_score>
-10.9596551513023

> <r_i_glide_ligand_efficiency>
-0.405913153751938

> <r_i_glide_ligand_efficiency_sa>
-1.21773945991799

> <r_i_glide_ligand_efficiency_ln>
-2.55122703518679

> <r_i_glide_gscore>
-10.9596551513023

> <r_i_glide_lipo>
-6.49305806142133

> <r_i_glide_hbond>
-0.13534242293845

> <r_i_glide_metal>
0

> <r_i_glide_rewards>
-2.03039374877468

> <r_i_glide_evdw>
-48.4577789306641

> <r_i_glide_ecoul>
-3.00708770751953

> <r_i_glide_erotb>
0.573091184493258

> <r_i_glide_esite>
0

> <r_i_glide_emodel>
-70.3510913713379

> <r_i_glide_energy>
-51.4648666381836

> <r_i_glide_einternal>
4.15708637237549

> <i_i_glide_confnum>
168

> <i_i_glide_posenum>
207

> <r_i_glide_eff_state_penalty>
0

> <s_user_duplicate_titles>
CHEMBL2061_lig410,125652

> <i_f3d_flags>
0

> <s_m_subgroup_title>
dock_pv

> <s_m_subgroupid>
dock_pv

> <b_m_subgroup_collapsed>
1

$$$$
CHEMBL2061_lig357
                    3D
 Schrodinger Suite 2021-1.
 49 51  0  0  1  0            999 V2000
   61.8894   46.3341   30.5032 C   0  0  0  0  0  0
   62.7848   46.4770   32.8012 C   0  0  0  0  0  0
   63.9038   45.6916   32.4029 C   0  0  0  0  0  0
   60.8083   46.6182   29.4995 C   0  0  0  0  0  0
   61.8329   46.8187   31.8174 C   0  0  0  0  0  0
   62.9780   45.5429   30.1387 C   0  0  0  0  0  0
   63.9646   45.2505   31.0704 C   0  0  0  0  0  0
   62.5782   46.9459   34.2718 C   0  0  0  0  0  0
   65.0117   45.2448   33.3908 C   0  0  0  0  0  0
   55.2877   44.9363   30.3150 C   0  0  0  0  0  0
   59.4058   46.0870   29.6873 C   0  0  0  0  0  0
   56.7287   45.2747   30.0647 C   0  0  0  0  0  0
   61.1058   47.2220   28.4662 O   0  0  0  0  0  0
   64.9463   46.0648   34.7017 C   0  0  0  0  0  0
   63.5244   46.1903   35.2432 C   0  0  0  0  0  0
   54.7063   45.2770   31.3390 O   0  0  0  0  0  0
   58.9427   45.6770   30.9392 C   0  0  0  0  0  0
   58.4980   46.0770   28.6169 C   0  0  0  0  0  0
   57.1727   45.6770   28.8024 C   0  0  0  0  0  0
   57.6278   45.2770   31.1301 C   0  0  0  0  0  0
   63.0920   45.0353   28.8875 F   0  0  0  0  0  0
   54.6833   44.2132   29.3390 O   0  0  0  0  0  0
   62.8811   48.4543   34.3897 C   0  0  0  0  0  0
   64.8080   43.7439   33.7177 C   0  0  0  0  0  0
   66.4080   45.5334   32.7961 C   0  0  0  0  0  0
   61.1394   46.6232   34.7365 C   0  0  0  0  0  0
   61.0030   47.4481   32.1015 H   0  0  0  0  0  0
   64.7811   44.6242   30.7456 H   0  0  0  0  0  0
   65.5905   45.6186   35.4613 H   0  0  0  0  0  0
   65.3513   47.0650   34.5420 H   0  0  0  0  0  0
   63.1463   45.1922   35.4590 H   0  0  0  0  0  0
   63.5535   46.6908   36.2122 H   0  0  0  0  0  0
   59.5763   45.6771   31.8108 H   0  0  0  0  0  0
   58.8079   46.4033   27.6336 H   0  0  0  0  0  0
   56.4972   45.7161   27.9588 H   0  0  0  0  0  0
   57.3159   45.0137   32.1288 H   0  0  0  0  0  0
   55.2887   43.8995   28.6603 H   0  0  0  0  0  0
   62.7224   48.8076   35.4094 H   0  0  0  0  0  0
   63.9123   48.6946   34.1390 H   0  0  0  0  0  0
   62.2415   49.0472   33.7354 H   0  0  0  0  0  0
   65.5368   43.3946   34.4497 H   0  0  0  0  0  0
   63.8151   43.5318   34.1144 H   0  0  0  0  0  0
   64.9281   43.1220   32.8305 H   0  0  0  0  0  0
   67.1991   45.3246   33.5184 H   0  0  0  0  0  0
   66.6226   44.9207   31.9213 H   0  0  0  0  0  0
   66.5098   46.5773   32.4952 H   0  0  0  0  0  0
   61.0242   46.7595   35.8127 H   0  0  0  0  0  0
   60.4078   47.2769   34.2681 H   0  0  0  0  0  0
   60.8475   45.6013   34.5009 H   0  0  0  0  0  0
  1  4  1  0  0  0
  1  5  2  0  0  0
  1  6  1  0  0  0
  2  5  1  0  0  0
  2  8  1  0  0  0
  2  3  2  0  0  0
  3  7  1  0  0  0
  3  9  1  0  0  0
  4 11  1  0  0  0
  4 13  2  0  0  0
  5 27  1  0  0  0
  6  7  2  0  0  0
  6 21  1  0  0  0
  7 28  1  0  0  0
  8 15  1  0  0  0
  8 23  1  0  0  0
  8 26  1  0  0  0
  9 14  1  0  0  0
  9 24  1  0  0  0
  9 25  1  0  0  0
 10 12  1  0  0  0
 10 16  2  0  0  0
 10 22  1  0  0  0
 11 17  2  0  0  0
 11 18  1  0  0  0
 12 19  1  0  0  0
 12 20  2  0  0  0
 14 15  1  0  0  0
 14 29  1  0  0  0
 14 30  1  0  0  0
 15 31  1  0  0  0
 15 32  1  0  0  0
 17 20  1  0  0  0
 17 33  1  0  0  0
 18 19  2  0  0  0
 18 34  1  0  0  0
 19 35  1  0  0  0
 20 36  1  0  0  0
 22 37  1  0  0  0
 23 38  1  0  0  0
 23 39  1  0  0  0
 23 40  1  0  0  0
 24 41  1  0  0  0
 24 42  1  0  0  0
 24 43  1  0  0  0
 25 44  1  0  0  0
 25 45  1  0  0  0
 25 46  1  0  0  0
 26 47  1  0  0  0
 26 48  1  0  0  0
 26 49  1  0  0  0
M  END
> <s_m_entry_id>
30909

> <s_m_entry_name>
dock_pv.122

> <s_m_Source_Path>
/home/csk/Desktop/cluster/DUD-E-result/rxra

> <s_m_Source_File>
dock_pv.maegz

> <i_m_Source_File_Index>
122

> <chembl_id>
CHEMBL419166

> <chembl_pref_name>
None

> <i_lp_mmshare_version>
53161

> <r_lp_tautomer_probability>
1

> <s_lp_Force_Field>
OPLS_2005

> <r_lp_Energy>
30.278363

> <b_lp_Chiralities_Consistent>
1

> <s_lp_Variant>
CHEMBL2061_lig357-1

> <s_i_glide_gridfile>
glide-grid_1mv9

> <i_i_glide_lignum>
417

> <i_i_glide_rotatable_bonds>
4

> <r_i_docking_score>
-10.95630457754

> <r_i_glide_ligand_efficiency>
-0.421396329905383

> <r_i_glide_ligand_efficiency_sa>
-1.24838496923021

> <r_i_glide_ligand_efficiency_ln>
-2.57305217946768

> <r_i_glide_gscore>
-10.95630457754

> <r_i_glide_lipo>
-5.56376567244137

> <r_i_glide_hbond>
-0.0589779508534345

> <r_i_glide_metal>
0

> <r_i_glide_rewards>
-2.85855374775452

> <r_i_glide_evdw>
-46.4123077392578

> <r_i_glide_ecoul>
-4.07178974151611

> <r_i_glide_erotb>
0.456376641699676

> <r_i_glide_esite>
0

> <r_i_glide_emodel>
-79.7969992272088

> <r_i_glide_energy>
-50.4840974807739

> <r_i_glide_einternal>
5.63196992874146

> <i_i_glide_confnum>
48

> <i_i_glide_posenum>
220

> <r_i_glide_eff_state_penalty>
0

> <s_user_duplicate_titles>
CHEMBL2061_lig357,163655

> <i_f3d_flags>
0

> <s_m_subgroup_title>
dock_pv

> <s_m_subgroupid>
dock_pv

> <b_m_subgroup_collapsed>
1

$$$$
CHEMBL2061_lig274
                    3D
 Schrodinger Suite 2021-1.
 59 62  0  0  1  0            999 V2000
   61.1108   46.4429   29.1661 C   0  0  0  0  0  0
   62.9097   46.5119   32.6281 C   0  0  0  0  0  0
   63.8897   45.4940   32.4812 C   0  0  0  0  0  0
   62.1622   46.1511   30.3090 C   0  0  0  0  0  0
   62.1143   46.8520   31.5143 C   0  0  0  0  0  0
   62.5820   47.1210   34.0086 C   0  0  0  0  0  0
   64.8175   45.0558   33.6427 C   0  0  0  0  0  0
   55.4983   45.0815   30.3320 C   0  0  0  0  0  0
   64.0000   44.8675   31.2319 C   0  0  0  0  0  0
   59.6357   46.0391   29.5065 C   0  0  0  0  0  0
   61.0241   47.8259   28.8870 O   0  0  0  0  0  0
   61.4676   45.7259   27.9980 O   0  0  0  0  0  0
   56.9426   45.3509   30.0222 C   0  0  0  0  0  0
   63.1190   45.1393   30.1970 C   0  0  0  0  0  0
   63.7289   46.9009   35.0312 C   0  0  0  0  0  0
   64.2469   45.4771   35.0226 C   0  0  0  0  0  0
   54.9806   45.3820   31.4011 O   0  0  0  0  0  0
   58.6747   46.0776   28.4914 C   0  0  0  0  0  0
   59.2092   45.6771   30.7887 C   0  0  0  0  0  0
   57.8907   45.3152   31.0453 C   0  0  0  0  0  0
   57.3441   45.7422   28.7417 C   0  0  0  0  0  0
   54.8084   44.4755   29.3367 O   0  0  0  0  0  0
   62.4881   47.6467   26.9547 C   0  0  0  0  0  0
   62.6528   46.1869   27.3388 C   0  0  0  0  0  0
   62.1376   48.4096   28.2143 C   0  0  0  0  0  0
   62.4082   48.6357   33.9502 C   0  0  0  0  0  0
   61.2765   46.4465   34.5022 C   0  0  0  0  0  0
   64.9107   43.5183   33.7383 C   0  0  0  0  0  0
   66.1967   45.7234   33.4221 C   0  0  0  0  0  0
   61.3401   47.5964   31.6128 H   0  0  0  0  0  0
   64.7397   44.1014   31.0625 H   0  0  0  0  0  0
   63.1815   44.5194   29.3160 H   0  0  0  0  0  0
   63.4014   47.1671   36.0377 H   0  0  0  0  0  0
   64.5729   47.5606   34.8247 H   0  0  0  0  0  0
   63.4228   44.8307   35.3242 H   0  0  0  0  0  0
   65.0021   45.3564   35.8016 H   0  0  0  0  0  0
   58.9676   46.3793   27.4964 H   0  0  0  0  0  0
   59.8900   45.6777   31.6215 H   0  0  0  0  0  0
   57.6103   45.0562   32.0567 H   0  0  0  0  0  0
   56.6336   45.8188   27.9307 H   0  0  0  0  0  0
   55.3881   44.1694   28.6342 H   0  0  0  0  0  0
   63.3910   48.0411   26.4874 H   0  0  0  0  0  0
   61.6742   47.7539   26.2395 H   0  0  0  0  0  0
   63.5718   46.0621   27.9060 H   0  0  0  0  0  0
   62.8059   45.5639   26.4620 H   0  0  0  0  0  0
   62.9823   48.4766   28.8983 H   0  0  0  0  0  0
   61.8742   49.4272   27.9329 H   0  0  0  0  0  0
   61.8011   48.8769   34.8194 H   0  0  0  0  0  0
   63.3465   49.1900   34.0277 H   0  0  0  0  0  0
   61.9001   49.0164   33.0682 H   0  0  0  0  0  0
   61.1096   46.6018   35.5688 H   0  0  0  0  0  0
   60.4048   46.8472   33.9838 H   0  0  0  0  0  0
   61.2715   45.3773   34.3107 H   0  0  0  0  0  0
   65.6560   43.2767   34.4939 H   0  0  0  0  0  0
   63.9665   43.0568   34.0320 H   0  0  0  0  0  0
   65.2081   43.0277   32.8182 H   0  0  0  0  0  0
   66.8810   45.5186   34.2467 H   0  0  0  0  0  0
   66.6728   45.3491   32.5150 H   0  0  0  0  0  0
   66.1211   46.8066   33.3195 H   0  0  0  0  0  0
  1  4  1  0  0  0
  1 10  1  0  0  0
  1 11  1  0  0  0
  1 12  1  0  0  0
  2  5  1  0  0  0
  2  6  1  0  0  0
  2  3  2  0  0  0
  3  9  1  0  0  0
  3  7  1  0  0  0
  4  5  2  0  0  0
  4 14  1  0  0  0
  5 30  1  0  0  0
  6 15  1  0  0  0
  6 26  1  0  0  0
  6 27  1  0  0  0
  7 16  1  0  0  0
  7 28  1  0  0  0
  7 29  1  0  0  0
  8 13  1  0  0  0
  8 17  2  0  0  0
  8 22  1  0  0  0
  9 14  2  0  0  0
  9 31  1  0  0  0
 10 18  2  0  0  0
 10 19  1  0  0  0
 11 25  1  0  0  0
 12 24  1  0  0  0
 13 20  1  0  0  0
 13 21  2  0  0  0
 14 32  1  0  0  0
 15 16  1  0  0  0
 15 33  1  0  0  0
 15 34  1  0  0  0
 16 35  1  0  0  0
 16 36  1  0  0  0
 18 21  1  0  0  0
 18 37  1  0  0  0
 19 20  2  0  0  0
 19 38  1  0  0  0
 20 39  1  0  0  0
 21 40  1  0  0  0
 22 41  1  0  0  0
 23 24  1  0  0  0
 23 25  1  0  0  0
 23 42  1  0  0  0
 23 43  1  0  0  0
 24 44  1  0  0  0
 24 45  1  0  0  0
 25 46  1  0  0  0
 25 47  1  0  0  0
 26 48  1  0  0  0
 26 49  1  0  0  0
 26 50  1  0  0  0
 27 51  1  0  0  0
 27 52  1  0  0  0
 27 53  1  0  0  0
 28 54  1  0  0  0
 28 55  1  0  0  0
 28 56  1  0  0  0
 29 57  1  0  0  0
 29 58  1  0  0  0
 29 59  1  0  0  0
M  END
> <s_m_entry_id>
30911

> <s_m_entry_name>
dock_pv.124

> <s_m_Source_Path>
/home/csk/Desktop/cluster/DUD-E-result/rxra

> <s_m_Source_File>
dock_pv.maegz

> <i_m_Source_File_Index>
124

> <chembl_id>
CHEMBL113865

> <chembl_pref_name>
None

> <i_lp_mmshare_version>
53161

> <r_lp_tautomer_probability>
1

> <s_lp_Force_Field>
OPLS_2005

> <r_lp_Energy>
30.312683

> <b_lp_Chiralities_Consistent>
1

> <s_lp_Variant>
CHEMBL2061_lig274-1

> <s_i_glide_gridfile>
glide-grid_1mv9

> <i_i_glide_lignum>
319

> <i_i_glide_rotatable_bonds>
4

> <r_i_docking_score>
-10.9392472096506

> <r_i_glide_ligand_efficiency>
-0.377215421022436

> <r_i_glide_ligand_efficiency_sa>
-1.15892528361459

> <r_i_glide_ligand_efficiency_ln>
-2.50481021563509

> <r_i_glide_gscore>
-10.9392472096506

> <r_i_glide_lipo>
-6.2119841071725

> <r_i_glide_hbond>
0

> <r_i_glide_metal>
0

> <r_i_glide_rewards>
-2.32034087145625

> <r_i_glide_evdw>
-47.0765838623047

> <r_i_glide_ecoul>
-2.86570262908936

> <r_i_glide_erotb>
0.37676235645675

> <r_i_glide_esite>
0

> <r_i_glide_emodel>
-60.2008572678072

> <r_i_glide_energy>
-49.942286491394

> <r_i_glide_einternal>
17.2809562683105

> <i_i_glide_confnum>
7

> <i_i_glide_posenum>
215

> <r_i_glide_eff_state_penalty>
0

> <s_user_duplicate_titles>
CHEMBL2061_lig274,187155

> <i_f3d_flags>
0

> <s_m_subgroup_title>
dock_pv

> <s_m_subgroupid>
dock_pv

> <b_m_subgroup_collapsed>
1

$$$$
CHEMBL2061_lig6
                    3D
 Schrodinger Suite 2021-1.
 52 54  0  0  1  0            999 V2000
   63.9935   45.3918   30.9581 C   0  0  0  0  0  0
   62.9875   45.6137   30.0195 C   0  0  0  0  0  0
   61.8170   46.2838   30.4116 C   0  0  0  0  0  0
   61.7374   46.7473   31.7320 C   0  0  0  0  0  0
   63.8951   45.7958   32.2993 C   0  0  0  0  0  0
   62.7152   46.4769   32.7084 C   0  0  0  0  0  0
   62.4645   46.9040   34.1830 C   0  0  0  0  0  0
   63.4594   46.1959   35.1431 C   0  0  0  0  0  0
   64.8948   46.2018   34.6151 C   0  0  0  0  0  0
   65.0373   45.4237   33.2819 C   0  0  0  0  0  0
   63.1880   45.0642   28.6082 C   0  0  0  0  0  0
   64.9640   43.9045   33.5774 C   0  0  0  0  0  0
   66.4079   45.8340   32.6943 C   0  0  0  0  0  0
   62.6627   48.4304   34.3288 C   0  0  0  0  0  0
   61.0431   46.4674   34.6285 C   0  0  0  0  0  0
   60.7028   46.5679   29.4349 C   0  0  0  0  0  0
   59.2908   46.0798   29.6769 C   0  0  0  0  0  0
   58.8309   45.6769   30.9372 C   0  0  0  0  0  0
   57.5138   45.2769   31.1356 C   0  0  0  0  0  0
   56.6031   45.2648   30.0769 C   0  0  0  0  0  0
   57.0344   45.6908   28.8184 C   0  0  0  0  0  0
   58.3629   46.0771   28.6217 C   0  0  0  0  0  0
   55.1681   44.9077   30.3265 C   0  0  0  0  0  0
   54.5739   45.2769   31.3369 O   0  0  0  0  0  0
   54.5855   44.1640   29.3431 O   0  0  0  0  0  0
   60.9863   47.0726   28.3448 O   0  0  0  0  0  0
   56.1641   45.7565   27.7820 F   0  0  0  0  0  0
   64.8713   44.8504   30.6389 H   0  0  0  0  0  0
   60.8711   47.3179   32.0304 H   0  0  0  0  0  0
   63.1652   45.1616   35.3153 H   0  0  0  0  0  0
   63.4329   46.6611   36.1302 H   0  0  0  0  0  0
   65.5641   45.7857   35.3703 H   0  0  0  0  0  0
   65.2243   47.2339   34.4919 H   0  0  0  0  0  0
   64.0062   44.3473   28.5524 H   0  0  0  0  0  0
   62.2955   44.5367   28.2692 H   0  0  0  0  0  0
   63.3833   45.8776   27.9087 H   0  0  0  0  0  0
   65.6826   43.6116   34.3438 H   0  0  0  0  0  0
   63.9763   43.5896   33.9140 H   0  0  0  0  0  0
   65.1979   43.3173   32.6899 H   0  0  0  0  0  0
   67.2071   45.7097   33.4267 H   0  0  0  0  0  0
   66.6883   45.2316   31.8304 H   0  0  0  0  0  0
   66.4115   46.8772   32.3811 H   0  0  0  0  0  0
   62.4373   48.7446   35.3484 H   0  0  0  0  0  0
   63.6829   48.7498   34.1286 H   0  0  0  0  0  0
   62.0097   48.9904   33.6596 H   0  0  0  0  0  0
   60.9176   46.5537   35.7087 H   0  0  0  0  0  0
   60.2674   47.0837   34.1809 H   0  0  0  0  0  0
   60.8187   45.4377   34.3509 H   0  0  0  0  0  0
   59.4678   45.6770   31.8055 H   0  0  0  0  0  0
   57.2088   45.0175   32.1368 H   0  0  0  0  0  0
   58.6595   46.4004   27.6342 H   0  0  0  0  0  0
   55.2020   43.9214   28.6437 H   0  0  0  0  0  0
  1  2  2  0  0  0
  1  5  1  0  0  0
  1 28  1  0  0  0
  2  3  1  0  0  0
  2 11  1  0  0  0
  3  4  2  0  0  0
  3 16  1  0  0  0
  4  6  1  0  0  0
  4 29  1  0  0  0
  5 10  1  0  0  0
  5  6  2  0  0  0
  6  7  1  0  0  0
  7 14  1  0  0  0
  7 15  1  0  0  0
  7  8  1  0  0  0
  8  9  1  0  0  0
  8 30  1  0  0  0
  8 31  1  0  0  0
  9 10  1  0  0  0
  9 32  1  0  0  0
  9 33  1  0  0  0
 10 13  1  0  0  0
 10 12  1  0  0  0
 11 34  1  0  0  0
 11 35  1  0  0  0
 11 36  1  0  0  0
 12 37  1  0  0  0
 12 38  1  0  0  0
 12 39  1  0  0  0
 13 40  1  0  0  0
 13 41  1  0  0  0
 13 42  1  0  0  0
 14 43  1  0  0  0
 14 44  1  0  0  0
 14 45  1  0  0  0
 15 46  1  0  0  0
 15 47  1  0  0  0
 15 48  1  0  0  0
 16 17  1  0  0  0
 16 26  2  0  0  0
 17 18  2  0  0  0
 17 22  1  0  0  0
 18 19  1  0  0  0
 18 49  1  0  0  0
 19 20  2  0  0  0
 19 50  1  0  0  0
 20 21  1  0  0  0
 20 23  1  0  0  0
 21 22  2  0  0  0
 21 27  1  0  0  0
 22 51  1  0  0  0
 23 24  2  0  0  0
 23 25  1  0  0  0
 25 52  1  0  0  0
M  END
> <s_m_entry_id>
30912

> <s_m_entry_name>
dock_pv.125

> <s_m_Source_Path>
/home/csk/Desktop/cluster/DUD-E-result/rxra

> <s_m_Source_File>
dock_pv.maegz

> <i_m_Source_File_Index>
125

> <chembl_id>
CHEMBL574462

> <chembl_pref_name>
None

> <i_lp_mmshare_version>
53161

> <r_lp_tautomer_probability>
1

> <s_lp_Force_Field>
OPLS_2005

> <r_lp_Energy>
34.407567

> <b_lp_Chiralities_Consistent>
1

> <s_lp_Variant>
CHEMBL2061_lig6-1

> <s_i_glide_gridfile>
glide-grid_1mv9

> <i_i_glide_lignum>
9

> <i_i_glide_rotatable_bonds>
4

> <r_i_docking_score>
-10.9318312133719

> <r_i_glide_ligand_efficiency>
-0.404882637532292

> <r_i_glide_ligand_efficiency_sa>
-1.21464791126245

> <r_i_glide_ligand_efficiency_ln>
-2.54475008115005

> <r_i_glide_gscore>
-10.9318312133719

> <r_i_glide_lipo>
-5.84322195630982

> <r_i_glide_hbond>
-0.0961911735029076

> <r_i_glide_metal>
0

> <r_i_glide_rewards>
-2.57195030794705

> <r_i_glide_evdw>
-43.077205657959

> <r_i_glide_ecoul>
-4.61643171310425

> <r_i_glide_erotb>
0.425857264251486

> <r_i_glide_esite>
0

> <r_i_glide_emodel>
-73.1826050860563

> <r_i_glide_energy>
-47.6936373710632

> <r_i_glide_einternal>
6.05247020721436

> <i_i_glide_confnum>
54

> <i_i_glide_posenum>
124

> <r_i_glide_eff_state_penalty>
0

> <s_user_duplicate_titles>
CHEMBL2061_lig6

> <i_f3d_flags>
0

> <s_m_subgroup_title>
dock_pv

> <s_m_subgroupid>
dock_pv

> <b_m_subgroup_collapsed>
1

$$$$
CHEMBL2061_lig399
                    3D
 Schrodinger Suite 2021-1.
 62 65  0  0  1  0            999 V2000
   60.6237   45.7897   29.1635 C   0  0  0  0  0  0
   60.0003   46.8606   28.5461 C   0  0  0  0  0  0
   62.8413   46.4594   32.8197 C   0  0  0  0  0  0
   64.0952   45.8253   33.0248 C   0  0  0  0  0  0
   62.8347   45.6959   30.4843 C   0  0  0  0  0  0
   62.1368   45.5807   29.1204 C   0  0  2  0  0  0
   58.6639   46.8439   28.7785 O   0  0  0  0  0  0
   62.2887   46.4489   31.5264 C   0  0  0  0  0  0
   59.5817   45.0633   29.7388 C   0  0  0  0  0  0
   58.3902   45.7213   29.4956 C   0  0  0  0  0  0
   64.6544   45.1164   31.9576 C   0  0  0  0  0  0
   64.0169   45.0004   30.7315 C   0  0  0  0  0  0
   62.0493   47.1243   33.9656 C   0  0  0  0  0  0
   64.8006   45.7836   34.3978 C   0  0  0  0  0  0
   57.0187   45.3921   29.8209 C   0  0  0  0  0  0
   54.5624   45.7818   29.7387 C   0  0  0  0  0  0
   55.9331   46.0781   29.4073 C   0  0  0  0  0  0
   64.2231   46.8918   35.3140 C   0  0  0  0  0  0
   62.6931   46.8459   35.3517 C   0  0  0  0  0  0
   53.6299   46.4772   29.3393 O   0  0  0  0  0  0
   64.5318   44.1341   29.8104 O   0  0  0  0  0  0
   60.6514   47.9095   27.6721 C   0  0  0  0  0  0
   54.3912   44.6897   30.5387 O   0  0  0  0  0  0
   62.7692   46.5061   28.0387 C   0  0  0  0  0  0
   64.5220   44.4008   35.0392 C   0  0  0  0  0  0
   66.3160   46.0687   34.2406 C   0  0  0  0  0  0
   62.0543   48.6444   33.7396 C   0  0  0  0  0  0
   60.6213   46.5219   34.0216 C   0  0  0  0  0  0
   62.1627   47.9286   28.0058 C   0  0  0  0  0  0
   64.3154   42.7639   30.1395 C   0  0  0  0  0  0
   62.3000   44.5495   28.8056 H   0  0  0  0  0  0
   61.3662   46.9815   31.3516 H   0  0  0  0  0  0
   59.6893   44.0770   30.1396 H   0  0  0  0  0  0
   65.5663   44.5585   32.0973 H   0  0  0  0  0  0
   56.9413   44.5149   30.4463 H   0  0  0  0  0  0
   56.0467   46.9443   28.7724 H   0  0  0  0  0  0
   64.6125   46.7933   36.3293 H   0  0  0  0  0  0
   64.5497   47.8758   34.9722 H   0  0  0  0  0  0
   62.3895   45.8671   35.7268 H   0  0  0  0  0  0
   62.3232   47.5521   36.0975 H   0  0  0  0  0  0
   60.4945   47.6718   26.6194 H   0  0  0  0  0  0
   60.2070   48.8804   27.8440 H   0  0  0  0  0  0
   55.2263   44.2584   30.7201 H   0  0  0  0  0  0
   62.6266   46.0537   27.0561 H   0  0  0  0  0  0
   63.8509   46.5581   28.1744 H   0  0  0  0  0  0
   64.4077   44.4771   36.1202 H   0  0  0  0  0  0
   63.6085   43.9420   34.6645 H   0  0  0  0  0  0
   65.3259   43.6921   34.8337 H   0  0  0  0  0  0
   66.8072   46.0769   35.2118 H   0  0  0  0  0  0
   66.8317   45.2971   33.6707 H   0  0  0  0  0  0
   66.5017   47.0213   33.7394 H   0  0  0  0  0  0
   61.4738   49.1076   34.5378 H   0  0  0  0  0  0
   63.0576   49.0668   33.7546 H   0  0  0  0  0  0
   61.6183   48.9225   32.7777 H   0  0  0  0  0  0
   60.0579   46.9334   34.8586 H   0  0  0  0  0  0
   60.0440   46.7320   33.1218 H   0  0  0  0  0  0
   60.6394   45.4386   34.1389 H   0  0  0  0  0  0
   62.6922   48.5437   27.2765 H   0  0  0  0  0  0
   62.3197   48.4085   28.9740 H   0  0  0  0  0  0
   65.0613   42.1034   29.6836 H   0  0  0  0  0  0
   64.3431   42.5533   31.2126 H   0  0  0  0  0  0
   63.3309   42.4745   29.7704 H   0  0  0  0  0  0
  1  2  2  0  0  0
  1  6  1  0  0  0
  1  9  1  0  0  0
  2  7  1  0  0  0
  2 22  1  0  0  0
  3  8  2  0  0  0
  3 13  1  0  0  0
  3  4  1  0  0  0
  4 11  2  0  0  0
  4 14  1  0  0  0
  5  6  1  0  0  0
  5  8  1  0  0  0
  5 12  2  0  0  0
  6 24  1  0  0  0
  6 31  1  0  0  0
  7 10  1  0  0  0
  8 32  1  0  0  0
  9 10  2  0  0  0
  9 33  1  0  0  0
 10 15  1  0  0  0
 11 12  1  0  0  0
 11 34  1  0  0  0
 12 21  1  0  0  0
 13 19  1  0  0  0
 13 27  1  0  0  0
 13 28  1  0  0  0
 14 18  1  0  0  0
 14 25  1  0  0  0
 14 26  1  0  0  0
 15 17  2  0  0  0
 15 35  1  0  0  0
 16 17  1  0  0  0
 16 20  2  0  0  0
 16 23  1  0  0  0
 17 36  1  0  0  0
 18 19  1  0  0  0
 18 37  1  0  0  0
 18 38  1  0  0  0
 19 39  1  0  0  0
 19 40  1  0  0  0
 21 30  1  0  0  0
 22 29  1  0  0  0
 22 41  1  0  0  0
 22 42  1  0  0  0
 23 43  1  0  0  0
 24 29  1  0  0  0
 24 44  1  0  0  0
 24 45  1  0  0  0
 25 46  1  0  0  0
 25 47  1  0  0  0
 25 48  1  0  0  0
 26 49  1  0  0  0
 26 50  1  0  0  0
 26 51  1  0  0  0
 27 52  1  0  0  0
 27 53  1  0  0  0
 27 54  1  0  0  0
 28 55  1  0  0  0
 28 56  1  0  0  0
 28 57  1  0  0  0
 29 58  1  0  0  0
 29 59  1  0  0  0
 30 60  1  0  0  0
 30 61  1  0  0  0
 30 62  1  0  0  0
M  END
> <s_m_entry_id>
30913

> <s_m_entry_name>
dock_pv.126

> <s_m_Source_Path>
/home/csk/Desktop/cluster/DUD-E-result/rxra

> <s_m_Source_File>
dock_pv.maegz

> <i_m_Source_File_Index>
126

> <chembl_id>
CHEMBL294346

> <chembl_pref_name>
None

> <i_lp_mmshare_version>
53161

> <r_lp_tautomer_probability>
1

> <s_lp_Force_Field>
OPLS_2005

> <r_lp_Energy>
26.230655

> <b_lp_Chiralities_Consistent>
1

> <s_lp_Variant>
CHEMBL2061_lig399-2

> <s_i_glide_gridfile>
glide-grid_1mv9

> <i_i_glide_lignum>
468

> <i_i_glide_rotatable_bonds>
5

> <r_i_docking_score>
-10.9207588184242

> <r_i_glide_ligand_efficiency>
-0.364025293947474

> <r_i_glide_ligand_efficiency_sa>
-1.13111122506062

> <r_i_glide_ligand_efficiency_ln>
-2.48131539474376

> <r_i_glide_gscore>
-10.9207588184242

> <r_i_glide_lipo>
-6.64745624250431

> <r_i_glide_hbond>
-0.241728535959536

> <r_i_glide_metal>
0

> <r_i_glide_rewards>
-1.52365990909091

> <r_i_glide_evdw>
-42.694580078125

> <r_i_glide_ecoul>
-4.80955934524536

> <r_i_glide_erotb>
0.353791208304234

> <r_i_glide_esite>
-0.00554243348064419

> <r_i_glide_emodel>
-61.5879765711971

> <r_i_glide_energy>
-47.5041394233704

> <r_i_glide_einternal>
7.55953168869019

> <i_i_glide_confnum>
45

> <i_i_glide_posenum>
15

> <r_i_glide_eff_state_penalty>
0

> <s_user_duplicate_titles>
CHEMBL2061_lig399,96733

> <i_f3d_flags>
0

> <s_m_subgroup_title>
dock_pv

> <s_m_subgroupid>
dock_pv

> <b_m_subgroup_collapsed>
1

$$$$
CHEMBL2061_lig339
                    3D
 Schrodinger Suite 2021-1.
 67 67  0  0  1  0            999 V2000
   62.0922   46.9059   32.8080 C   0  0  0  0  0  0
   64.1632   45.9276   32.0218 C   0  0  0  0  0  0
   63.3241   46.3050   33.0928 C   0  0  0  0  0  0
   62.5357   46.8356   30.4012 C   0  0  0  0  0  0
   61.7649   47.2498   31.4899 C   0  0  0  0  0  0
   63.7374   46.1920   30.7010 C   0  0  0  0  0  0
   61.0478   46.9838   33.8473 C   0  0  0  0  0  0
   55.8620   45.2882   31.2128 C   0  0  0  0  0  0
   65.4793   45.1532   32.2942 C   0  0  0  0  0  0
   54.9333   44.9484   30.1619 C   0  0  0  0  0  0
   62.0271   46.9384   28.9257 C   0  0  0  0  0  0
   59.2135   45.8881   32.5001 C   0  0  0  0  0  0
   57.2124   45.1508   31.2238 C   0  0  0  0  0  0
   59.8143   46.4776   33.6780 C   0  0  0  0  0  0
   57.8934   45.6635   32.4067 C   0  0  0  0  0  0
   53.7266   44.8729   30.3469 O   0  0  0  0  0  0
   63.5978   45.9113   34.3932 O   0  0  0  0  0  0
   55.4919   44.7831   28.9391 O   0  0  0  0  0  0
   61.3248   47.7500   35.1327 C   0  0  0  0  0  0
   66.4490   46.0466   33.1535 C   0  0  0  0  0  0
   62.8172   48.0004   28.0882 C   0  0  0  0  0  0
   65.1264   43.7806   32.9649 C   0  0  0  0  0  0
   66.2162   44.8268   30.9732 C   0  0  0  0  0  0
   62.0871   45.5374   28.2504 C   0  0  0  0  0  0
   60.5270   47.3499   28.8543 C   0  0  0  0  0  0
   58.0102   44.4746   30.1065 C   0  0  0  0  0  0
   64.2193   46.8469   35.2790 C   0  0  0  0  0  0
   64.1636   47.5882   27.4677 C   0  0  0  0  0  0
   67.1997   45.3566   34.3093 C   0  0  0  0  0  0
   60.8094   47.7178   31.3230 H   0  0  0  0  0  0
   64.3101   45.8489   29.8600 H   0  0  0  0  0  0
   55.3641   45.7137   32.0719 H   0  0  0  0  0  0
   59.8414   45.6770   31.6533 H   0  0  0  0  0  0
   59.2080   46.5876   34.5312 H   0  0  0  0  0  0
   57.2921   45.9165   33.2694 H   0  0  0  0  0  0
   54.8566   44.4509   28.3014 H   0  0  0  0  0  0
   62.1285   48.4748   35.0072 H   0  0  0  0  0  0
   60.4466   48.3120   35.4512 H   0  0  0  0  0  0
   61.5591   47.0552   35.9362 H   0  0  0  0  0  0
   67.2070   46.5177   32.5398 H   0  0  0  0  0  0
   65.9527   46.9378   33.5184 H   0  0  0  0  0  0
   62.1978   48.3707   27.2691 H   0  0  0  0  0  0
   62.9975   48.8750   28.7047 H   0  0  0  0  0  0
   65.9985   43.2417   33.3366 H   0  0  0  0  0  0
   64.4794   43.8614   33.8329 H   0  0  0  0  0  0
   64.6050   43.1196   32.2718 H   0  0  0  0  0  0
   67.2080   44.4769   31.1710 H   0  0  0  0  0  0
   65.7013   44.0695   30.3812 H   0  0  0  0  0  0
   66.3670   45.6765   30.3315 H   0  0  0  0  0  0
   61.6734   45.5564   27.2410 H   0  0  0  0  0  0
   63.1016   45.1490   28.1583 H   0  0  0  0  0  0
   61.5193   44.8005   28.8192 H   0  0  0  0  0  0
   60.1478   47.3279   27.8316 H   0  0  0  0  0  0
   59.8954   46.6816   29.4377 H   0  0  0  0  0  0
   60.3635   48.3616   29.2205 H   0  0  0  0  0  0
   58.9604   44.0778   30.4486 H   0  0  0  0  0  0
   57.4849   43.5941   29.7411 H   0  0  0  0  0  0
   58.1593   45.1481   29.2627 H   0  0  0  0  0  0
   63.6675   46.9357   36.2113 H   0  0  0  0  0  0
   65.1910   46.4766   35.5873 H   0  0  0  0  0  0
   64.3447   47.8463   34.8568 H   0  0  0  0  0  0
   64.6710   48.4539   27.0392 H   0  0  0  0  0  0
   64.8412   47.1438   28.1911 H   0  0  0  0  0  0
   64.0124   46.8758   26.6580 H   0  0  0  0  0  0
   67.7129   46.0770   34.9361 H   0  0  0  0  0  0
   66.5118   44.8041   34.9401 H   0  0  0  0  0  0
   67.9530   44.6553   33.9782 H   0  0  0  0  0  0
  1  3  1  0  0  0
  1  5  2  0  0  0
  1  7  1  0  0  0
  2  3  2  0  0  0
  2  9  1  0  0  0
  2  6  1  0  0  0
  3 17  1  0  0  0
  4  5  1  0  0  0
  4  6  2  0  0  0
  4 11  1  0  0  0
  5 30  1  0  0  0
  6 31  1  0  0  0
  7 14  2  0  0  0
  7 19  1  0  0  0
  8 13  2  0  0  0
  8 10  1  0  0  0
  8 32  1  0  0  0
  9 20  1  0  0  0
  9 22  1  0  0  0
  9 23  1  0  0  0
 10 16  2  0  0  0
 10 18  1  0  0  0
 11 21  1  0  0  0
 11 24  1  0  0  0
 11 25  1  0  0  0
 12 14  1  0  0  0
 12 15  2  0  0  0
 12 33  1  0  0  0
 13 15  1  0  0  0
 13 26  1  0  0  0
 14 34  1  0  0  0
 15 35  1  0  0  0
 17 27  1  0  0  0
 18 36  1  0  0  0
 19 37  1  0  0  0
 19 38  1  0  0  0
 19 39  1  0  0  0
 20 29  1  0  0  0
 20 40  1  0  0  0
 20 41  1  0  0  0
 21 28  1  0  0  0
 21 42  1  0  0  0
 21 43  1  0  0  0
 22 44  1  0  0  0
 22 45  1  0  0  0
 22 46  1  0  0  0
 23 47  1  0  0  0
 23 48  1  0  0  0
 23 49  1  0  0  0
 24 50  1  0  0  0
 24 51  1  0  0  0
 24 52  1  0  0  0
 25 53  1  0  0  0
 25 54  1  0  0  0
 25 55  1  0  0  0
 26 56  1  0  0  0
 26 57  1  0  0  0
 26 58  1  0  0  0
 27 59  1  0  0  0
 27 60  1  0  0  0
 27 61  1  0  0  0
 28 62  1  0  0  0
 28 63  1  0  0  0
 28 64  1  0  0  0
 29 65  1  0  0  0
 29 66  1  0  0  0
 29 67  1  0  0  0
M  END
> <s_m_entry_id>
30914

> <s_m_entry_name>
dock_pv.127

> <s_m_Source_Path>
/home/csk/Desktop/cluster/DUD-E-result/rxra

> <s_m_Source_File>
dock_pv.maegz

> <i_m_Source_File_Index>
127

> <chembl_id>
CHEMBL91185

> <chembl_pref_name>
None

> <i_lp_mmshare_version>
53161

> <r_lp_tautomer_probability>
1

> <s_lp_Force_Field>
OPLS_2005

> <r_lp_Energy>
41.116036

> <b_lp_Chiralities_Consistent>
1

> <s_lp_Variant>
CHEMBL2061_lig339-1

> <s_i_glide_gridfile>
glide-grid_1mv9

> <i_i_glide_lignum>
399

> <i_i_glide_rotatable_bonds>
10

> <r_i_docking_score>
-10.9201788726723

> <r_i_glide_ligand_efficiency>
-0.376557892161115

> <r_i_glide_ligand_efficiency_sa>
-1.15690514663284

> <r_i_glide_ligand_efficiency_ln>
-2.50044404999836

> <r_i_glide_gscore>
-10.9201788726723

> <r_i_glide_lipo>
-6.55575995318312

> <r_i_glide_hbond>
-0.388408086803605

> <r_i_glide_metal>
0

> <r_i_glide_rewards>
-2.16423087036225

> <r_i_glide_evdw>
-38.3380661010742

> <r_i_glide_ecoul>
-4.23068189620972

> <r_i_glide_erotb>
0.739725627161808

> <r_i_glide_esite>
0

> <r_i_glide_emodel>
-42.4072232452578

> <r_i_glide_energy>
-42.5687479972839

> <r_i_glide_einternal>
21.2190990447998

> <i_i_glide_confnum>
83

> <i_i_glide_posenum>
128

> <r_i_glide_eff_state_penalty>
0

> <s_user_duplicate_titles>
CHEMBL2061_lig339,147257

> <i_f3d_flags>
0

> <s_m_subgroup_title>
dock_pv

> <s_m_subgroupid>
dock_pv

> <b_m_subgroup_collapsed>
1

$$$$
CHEMBL2061_lig581
                    3D
 Schrodinger Suite 2021-1.
 56 58  0  0  1  0            999 V2000
   64.0706   45.5756   31.0656 C   0  0  0  0  0  0
   63.0947   45.9174   30.1391 C   0  0  0  0  0  0
   61.9314   46.5554   30.5799 C   0  0  0  0  0  0
   61.8264   46.8878   31.9357 C   0  0  0  0  0  0
   60.8468   46.9276   29.6203 C   0  0  0  0  0  0
   59.4872   46.2852   29.7390 C   0  0  0  0  0  0
   61.1199   47.6280   28.6416 O   0  0  0  0  0  0
   58.5778   46.3702   28.6784 C   0  0  0  0  0  0
   57.2664   45.9293   28.8356 C   0  0  0  0  0  0
   56.8436   45.3839   30.0526 C   0  0  0  0  0  0
   57.7562   45.2511   31.0947 C   0  0  0  0  0  0
   59.0633   45.6771   30.9294 C   0  0  0  0  0  0
   63.3649   45.6695   28.8128 O   0  0  0  0  0  0
   62.5768   44.6730   28.1657 C   0  0  0  0  0  0
   62.9459   43.2768   28.6758 C   0  0  0  0  0  0
   55.4026   45.0514   30.2841 C   0  0  0  0  0  0
   54.8154   45.2771   31.3390 O   0  0  0  0  0  0
   54.8080   44.4770   29.2172 O   0  0  0  0  0  0
   63.9332   45.8138   32.4439 C   0  0  0  0  0  0
   62.7832   46.5151   32.8951 C   0  0  0  0  0  0
   62.5863   46.9307   34.3793 C   0  0  0  0  0  0
   63.5350   46.1439   35.3227 C   0  0  0  0  0  0
   64.9500   46.0198   34.7692 C   0  0  0  0  0  0
   64.9959   45.2629   33.4215 C   0  0  0  0  0  0
   62.9151   48.4344   34.5067 C   0  0  0  0  0  0
   61.1494   46.6098   34.8510 C   0  0  0  0  0  0
   64.7135   43.7579   33.6554 C   0  0  0  0  0  0
   66.4081   45.5050   32.8655 C   0  0  0  0  0  0
   64.9393   45.0627   30.6851 H   0  0  0  0  0  0
   60.9656   47.4520   32.2609 H   0  0  0  0  0  0
   58.8617   46.8303   27.7416 H   0  0  0  0  0  0
   56.5762   46.0716   28.0149 H   0  0  0  0  0  0
   57.4597   44.8773   32.0629 H   0  0  0  0  0  0
   59.6851   45.6770   31.8072 H   0  0  0  0  0  0
   61.5069   44.8265   28.2679 H   0  0  0  0  0  0
   62.7729   44.7553   27.0984 H   0  0  0  0  0  0
   62.4078   42.5051   28.1300 H   0  0  0  0  0  0
   64.0079   43.0833   28.5392 H   0  0  0  0  0  0
   62.7425   43.1566   29.7380 H   0  0  0  0  0  0
   55.4447   44.2168   28.5454 H   0  0  0  0  0  0
   63.1518   45.1437   35.5182 H   0  0  0  0  0  0
   63.5784   46.6197   36.3033 H   0  0  0  0  0  0
   65.5853   45.5242   35.5050 H   0  0  0  0  0  0
   65.3708   47.0190   34.6570 H   0  0  0  0  0  0
   62.8528   48.7749   35.5408 H   0  0  0  0  0  0
   63.9149   48.6655   34.1410 H   0  0  0  0  0  0
   62.2208   49.0361   33.9197 H   0  0  0  0  0  0
   61.0498   46.7166   35.9318 H   0  0  0  0  0  0
   60.4090   47.2751   34.4106 H   0  0  0  0  0  0
   60.8489   45.5966   34.5913 H   0  0  0  0  0  0
   65.4172   43.3275   34.3681 H   0  0  0  0  0  0
   63.7081   43.5726   34.0321 H   0  0  0  0  0  0
   64.8079   43.1880   32.7303 H   0  0  0  0  0  0
   67.1751   45.2713   33.6071 H   0  0  0  0  0  0
   66.6292   44.8779   32.0031 H   0  0  0  0  0  0
   66.5543   46.5435   32.5652 H   0  0  0  0  0  0
  1 19  1  0  0  0
  1  2  2  0  0  0
  1 29  1  0  0  0
  2  3  1  0  0  0
  2 13  1  0  0  0
  3  4  2  0  0  0
  3  5  1  0  0  0
  4 20  1  0  0  0
  4 30  1  0  0  0
  5  6  1  0  0  0
  5  7  2  0  0  0
  6  8  2  0  0  0
  6 12  1  0  0  0
  8  9  1  0  0  0
  8 31  1  0  0  0
  9 10  2  0  0  0
  9 32  1  0  0  0
 10 11  1  0  0  0
 10 16  1  0  0  0
 11 12  2  0  0  0
 11 33  1  0  0  0
 12 34  1  0  0  0
 13 14  1  0  0  0
 14 15  1  0  0  0
 14 35  1  0  0  0
 14 36  1  0  0  0
 15 37  1  0  0  0
 15 38  1  0  0  0
 15 39  1  0  0  0
 16 17  2  0  0  0
 16 18  1  0  0  0
 18 40  1  0  0  0
 19 20  2  0  0  0
 19 24  1  0  0  0
 20 21  1  0  0  0
 21 22  1  0  0  0
 21 25  1  0  0  0
 21 26  1  0  0  0
 22 23  1  0  0  0
 22 41  1  0  0  0
 22 42  1  0  0  0
 23 24  1  0  0  0
 23 43  1  0  0  0
 23 44  1  0  0  0
 24 27  1  0  0  0
 24 28  1  0  0  0
 25 45  1  0  0  0
 25 46  1  0  0  0
 25 47  1  0  0  0
 26 48  1  0  0  0
 26 49  1  0  0  0
 26 50  1  0  0  0
 27 51  1  0  0  0
 27 52  1  0  0  0
 27 53  1  0  0  0
 28 54  1  0  0  0
 28 55  1  0  0  0
 28 56  1  0  0  0
M  END
> <s_m_entry_id>
30915

> <s_m_entry_name>
dock_pv.128

> <s_m_Source_Path>
/home/csk/Desktop/cluster/DUD-E-result/rxra

> <s_m_Source_File>
dock_pv.maegz

> <i_m_Source_File_Index>
128

> <chembl_id>
CHEMBL3714906

> <chembl_pref_name>
None

> <i_lp_mmshare_version>
53161

> <r_lp_tautomer_probability>
1

> <s_lp_Force_Field>
OPLS_2005

> <r_lp_Energy>
35.368554

> <b_lp_Chiralities_Consistent>
1

> <s_lp_Variant>
CHEMBL2061_lig581-1

> <s_i_glide_gridfile>
glide-grid_1mv9

> <i_i_glide_lignum>
712

> <i_i_glide_rotatable_bonds>
6

> <r_i_docking_score>
-10.9002242459408

> <r_i_glide_ligand_efficiency>
-0.389293723069314

> <r_i_glide_ligand_efficiency_sa>
-1.18212502497967

> <r_i_glide_ligand_efficiency_ln>
-2.5160918004538

> <r_i_glide_gscore>
-10.9002242459408

> <r_i_glide_lipo>
-6.20137521764855

> <r_i_glide_hbond>
-0.0263084675261567

> <r_i_glide_metal>
0

> <r_i_glide_rewards>
-2.31857986618633

> <r_i_glide_evdw>
-49.6693840026855

> <r_i_glide_ecoul>
-2.71044397354126

> <r_i_glide_erotb>
0.536075101585715

> <r_i_glide_esite>
0

> <r_i_glide_emodel>
-76.2788673113625

> <r_i_glide_energy>
-52.3798279762268

> <r_i_glide_einternal>
16.5438480377197

> <i_i_glide_confnum>
133

> <i_i_glide_posenum>
70

> <r_i_glide_eff_state_penalty>
0

> <s_user_duplicate_titles>
CHEMBL2061_lig581

> <i_f3d_flags>
0

> <s_m_subgroup_title>
dock_pv

> <s_m_subgroupid>
dock_pv

> <b_m_subgroup_collapsed>
1

$$$$
CHEMBL2061_lig392
                    3D
 Schrodinger Suite 2021-1.
 61 64  0  0  1  0            999 V2000
   60.9132   46.2707   28.9779 C   0  0  0  0  0  0
   60.1747   47.1174   28.1724 C   0  0  0  0  0  0
   62.9396   46.4770   32.8243 C   0  0  0  0  0  0
   64.2245   45.8966   32.9621 C   0  0  0  0  0  0
   63.0485   46.1030   30.4049 C   0  0  0  0  0  0
   62.4369   46.3177   29.0207 C   0  0  2  0  0  0
   58.8450   46.8983   28.3479 O   0  0  0  0  0  0
   62.4005   46.5881   31.5363 C   0  0  0  0  0  0
   59.9692   45.4106   29.5450 C   0  0  0  0  0  0
   58.7039   45.8738   29.2287 C   0  0  0  0  0  0
   64.8696   45.4205   31.8193 C   0  0  0  0  0  0
   64.2978   45.5088   30.5616 C   0  0  0  0  0  0
   62.1429   47.0397   34.0157 C   0  0  0  0  0  0
   64.8770   45.6549   34.3292 C   0  0  0  0  0  0
   57.3760   45.4660   29.6437 C   0  0  0  0  0  0
   54.9306   45.6615   29.7483 C   0  0  0  0  0  0
   56.2273   46.0547   29.2594 C   0  0  0  0  0  0
   64.2813   46.6282   35.3792 C   0  0  0  0  0  0
   62.7532   46.6206   35.3758 C   0  0  0  0  0  0
   54.6896   44.6953   30.4682 O   0  0  0  0  0  0
   60.7129   48.2115   27.2623 C   0  0  0  0  0  0
   53.9818   46.5460   29.3387 O   0  0  0  0  0  0
   62.9244   47.6765   28.4551 C   0  0  0  0  0  0
   65.0454   44.9217   29.4002 C   0  0  0  0  0  0
   64.5434   44.1885   34.6907 C   0  0  0  0  0  0
   66.3971   45.9600   34.2794 C   0  0  0  0  0  0
   62.2055   48.5763   33.9107 C   0  0  0  0  0  0
   60.6931   46.4817   34.0117 C   0  0  0  0  0  0
   62.2451   48.0275   27.1317 C   0  0  0  0  0  0
   62.7742   45.5189   28.3623 H   0  0  0  0  0  0
   61.4511   47.0865   31.4119 H   0  0  0  0  0  0
   60.1980   44.5453   30.1391 H   0  0  0  0  0  0
   65.8281   44.9335   31.9141 H   0  0  0  0  0  0
   57.3653   44.6299   30.3312 H   0  0  0  0  0  0
   56.2537   46.8764   28.5616 H   0  0  0  0  0  0
   64.6343   47.6433   35.1975 H   0  0  0  0  0  0
   64.6418   46.3744   36.3784 H   0  0  0  0  0  0
   62.3800   47.2801   36.1577 H   0  0  0  0  0  0
   62.4166   45.6260   35.6654 H   0  0  0  0  0  0
   60.2881   48.1540   26.2634 H   0  0  0  0  0  0
   60.4951   49.1942   27.6778 H   0  0  0  0  0  0
   54.3780   47.2249   28.7885 H   0  0  0  0  0  0
   64.0019   47.6440   28.2936 H   0  0  0  0  0  0
   62.7392   48.4769   29.1724 H   0  0  0  0  0  0
   65.9847   44.4769   29.7391 H   0  0  0  0  0  0
   64.4078   44.1539   28.9539 H   0  0  0  0  0  0
   65.2616   45.6760   28.6442 H   0  0  0  0  0  0
   64.4082   44.0717   35.7475 H   0  0  0  0  0  0
   63.6084   43.8452   34.2443 H   0  0  0  0  0  0
   65.3219   43.4974   34.3648 H   0  0  0  0  0  0
   66.8090   46.0768   35.2794 H   0  0  0  0  0  0
   66.9712   45.1682   33.7982 H   0  0  0  0  0  0
   66.5981   46.8875   33.7388 H   0  0  0  0  0  0
   61.4488   48.9949   34.5615 H   0  0  0  0  0  0
   63.1721   48.9883   34.2016 H   0  0  0  0  0  0
   62.0077   48.9423   32.9027 H   0  0  0  0  0  0
   60.1463   46.8284   34.8904 H   0  0  0  0  0  0
   60.1237   46.8042   33.1428 H   0  0  0  0  0  0
   60.6711   45.3921   34.0234 H   0  0  0  0  0  0
   62.4669   47.2234   26.4409 H   0  0  0  0  0  0
   62.7233   48.9074   26.7101 H   0  0  0  0  0  0
  1  2  2  0  0  0
  1  6  1  0  0  0
  1  9  1  0  0  0
  2  7  1  0  0  0
  2 21  1  0  0  0
  3  8  2  0  0  0
  3 13  1  0  0  0
  3  4  1  0  0  0
  4 11  2  0  0  0
  4 14  1  0  0  0
  5  6  1  0  0  0
  5  8  1  0  0  0
  5 12  2  0  0  0
  6 23  1  0  0  0
  6 30  1  0  0  0
  7 10  1  0  0  0
  8 31  1  0  0  0
  9 10  2  0  0  0
  9 32  1  0  0  0
 10 15  1  0  0  0
 11 12  1  0  0  0
 11 33  1  0  0  0
 12 24  1  0  0  0
 13 19  1  0  0  0
 13 27  1  0  0  0
 13 28  1  0  0  0
 14 18  1  0  0  0
 14 25  1  0  0  0
 14 26  1  0  0  0
 15 17  2  0  0  0
 15 34  1  0  0  0
 16 17  1  0  0  0
 16 20  2  0  0  0
 16 22  1  0  0  0
 17 35  1  0  0  0
 18 19  1  0  0  0
 18 36  1  0  0  0
 18 37  1  0  0  0
 19 38  1  0  0  0
 19 39  1  0  0  0
 21 29  1  0  0  0
 21 40  1  0  0  0
 21 41  1  0  0  0
 22 42  1  0  0  0
 23 29  1  0  0  0
 23 43  1  0  0  0
 23 44  1  0  0  0
 24 45  1  0  0  0
 24 46  1  0  0  0
 24 47  1  0  0  0
 25 48  1  0  0  0
 25 49  1  0  0  0
 25 50  1  0  0  0
 26 51  1  0  0  0
 26 52  1  0  0  0
 26 53  1  0  0  0
 27 54  1  0  0  0
 27 55  1  0  0  0
 27 56  1  0  0  0
 28 57  1  0  0  0
 28 58  1  0  0  0
 28 59  1  0  0  0
 29 60  1  0  0  0
 29 61  1  0  0  0
M  END
> <s_m_entry_id>
30916

> <s_m_entry_name>
dock_pv.129

> <s_m_Source_Path>
/home/csk/Desktop/cluster/DUD-E-result/rxra

> <s_m_Source_File>
dock_pv.maegz

> <i_m_Source_File_Index>
129

> <chembl_id>
CHEMBL432140

> <chembl_pref_name>
None

> <i_lp_mmshare_version>
53161

> <r_lp_tautomer_probability>
1

> <s_lp_Force_Field>
OPLS_2005

> <r_lp_Energy>
23.978509

> <b_lp_Chiralities_Consistent>
1

> <s_lp_Variant>
CHEMBL2061_lig392-2

> <s_i_glide_gridfile>
glide-grid_1mv9

> <i_i_glide_lignum>
455

> <i_i_glide_rotatable_bonds>
4

> <r_i_docking_score>
-10.8934743954248

> <r_i_glide_ligand_efficiency>
-0.375637048118097

> <r_i_glide_ligand_efficiency_sa>
-1.15407602198882

> <r_i_glide_ligand_efficiency_ln>
-2.49432940187579

> <r_i_glide_gscore>
-10.8934743954248

> <r_i_glide_lipo>
-6.7164141881569

> <r_i_glide_hbond>
-0.00439326136505017

> <r_i_glide_metal>
0

> <r_i_glide_rewards>
-1.85005912189973

> <r_i_glide_evdw>
-43.8784561157227

> <r_i_glide_ecoul>
-3.39238429069519

> <r_i_glide_erotb>
0.380172625387294

> <r_i_glide_esite>
0

> <r_i_glide_emodel>
-70.415279768674

> <r_i_glide_energy>
-47.2708404064178

> <r_i_glide_einternal>
0.851828873157501

> <i_i_glide_confnum>
11

> <i_i_glide_posenum>
14

> <r_i_glide_eff_state_penalty>
0

> <s_user_duplicate_titles>
CHEMBL2061_lig392,96826

> <i_f3d_flags>
0

> <s_m_subgroup_title>
dock_pv

> <s_m_subgroupid>
dock_pv

> <b_m_subgroup_collapsed>
1

$$$$
CHEMBL2061_lig373
                    3D
 Schrodinger Suite 2021-1.
 61 63  0  0  1  0            999 V2000
   62.7668   46.3925   32.6778 C   0  0  0  0  0  0
   64.0076   45.7217   32.5041 C   0  0  0  0  0  0
   61.9593   46.6019   31.5441 C   0  0  0  0  0  0
   62.2696   46.8927   34.0565 C   0  0  0  0  0  0
   62.2921   46.1353   30.2710 C   0  0  0  0  0  0
   61.3150   46.3687   29.0907 C   0  0  0  0  0  0
   59.9852   45.6645   29.4247 C   0  0  0  0  0  0
   64.9623   45.4182   33.6845 C   0  0  0  0  0  0
   64.3402   45.2707   31.2183 C   0  0  0  0  0  0
   56.3271   46.1060   29.3992 C   0  0  0  0  0  0
   54.9437   45.7255   29.5985 C   0  0  0  0  0  0
   58.7277   46.1615   29.3560 C   0  0  0  0  0  0
   57.4875   45.4581   29.7037 C   0  0  0  0  0  0
   63.5064   45.4624   30.1260 C   0  0  0  0  0  0
   63.1132   46.2978   35.2181 C   0  0  0  0  0  0
   64.6096   46.2830   34.9192 C   0  0  0  0  0  0
   54.0089   46.4794   29.3405 O   0  0  0  0  0  0
   54.7470   44.4770   30.0889 O   0  0  0  0  0  0
   62.4081   48.4316   34.0971 C   0  0  0  0  0  0
   60.8121   46.4117   34.2935 C   0  0  0  0  0  0
   64.8221   43.9208   34.0506 C   0  0  0  0  0  0
   66.4090   45.7992   33.3096 C   0  0  0  0  0  0
   61.8384   45.9123   27.7058 C   0  0  0  0  0  0
   61.1703   47.8762   28.7802 C   0  0  0  0  0  0
   57.5475   44.1089   30.4219 C   0  0  0  0  0  0
   62.8266   47.0008   27.2283 C   0  0  0  0  0  0
   62.4179   48.2610   27.9880 C   0  0  0  0  0  0
   61.0256   47.1305   31.6574 H   0  0  0  0  0  0
   60.1279   44.6403   29.7391 H   0  0  0  0  0  0
   65.2606   44.7322   31.0517 H   0  0  0  0  0  0
   56.3862   47.0798   28.9389 H   0  0  0  0  0  0
   58.6175   47.1776   29.0163 H   0  0  0  0  0  0
   63.8325   45.0716   29.1763 H   0  0  0  0  0  0
   62.8071   45.2782   35.4446 H   0  0  0  0  0  0
   62.9302   46.8543   36.1374 H   0  0  0  0  0  0
   65.1553   45.9318   35.7965 H   0  0  0  0  0  0
   64.9482   47.3090   34.7717 H   0  0  0  0  0  0
   55.5885   44.0239   30.1480 H   0  0  0  0  0  0
   61.8801   48.8436   34.9560 H   0  0  0  0  0  0
   63.4427   48.7638   34.1615 H   0  0  0  0  0  0
   62.0076   48.9057   33.2019 H   0  0  0  0  0  0
   60.4806   46.6351   35.3077 H   0  0  0  0  0  0
   60.0963   46.8770   33.6189 H   0  0  0  0  0  0
   60.7159   45.3346   34.1445 H   0  0  0  0  0  0
   65.4041   43.6772   34.9388 H   0  0  0  0  0  0
   63.7879   43.6309   34.2402 H   0  0  0  0  0  0
   65.1897   43.2805   33.2486 H   0  0  0  0  0  0
   67.0843   45.6875   34.1593 H   0  0  0  0  0  0
   66.8079   45.1619   32.5222 H   0  0  0  0  0  0
   66.4824   46.8324   32.9618 H   0  0  0  0  0  0
   62.2646   44.9091   27.7008 H   0  0  0  0  0  0
   61.0049   45.8763   27.0018 H   0  0  0  0  0  0
   60.3098   48.0825   28.1421 H   0  0  0  0  0  0
   61.0551   48.4767   29.6802 H   0  0  0  0  0  0
   58.4843   43.9534   30.9395 H   0  0  0  0  0  0
   56.8234   44.0650   31.2328 H   0  0  0  0  0  0
   57.3667   43.2780   29.7404 H   0  0  0  0  0  0
   63.8544   46.7321   27.4823 H   0  0  0  0  0  0
   62.8086   47.1636   26.1414 H   0  0  0  0  0  0
   63.2078   48.5431   28.6780 H   0  0  0  0  0  0
   62.2378   49.1177   27.3391 H   0  0  0  0  0  0
  1  2  2  0  0  0
  1  3  1  0  0  0
  1  4  1  0  0  0
  2  8  1  0  0  0
  2  9  1  0  0  0
  3  5  2  0  0  0
  3 28  1  0  0  0
  4 15  1  0  0  0
  4 19  1  0  0  0
  4 20  1  0  0  0
  5  6  1  0  0  0
  5 14  1  0  0  0
  6  7  1  0  0  0
  6 23  1  0  0  0
  6 24  1  0  0  0
  7 12  2  0  0  0
  7 29  1  0  0  0
  8 21  1  0  0  0
  8 22  1  0  0  0
  8 16  1  0  0  0
  9 14  2  0  0  0
  9 30  1  0  0  0
 10 13  2  0  0  0
 10 11  1  0  0  0
 10 31  1  0  0  0
 11 17  2  0  0  0
 11 18  1  0  0  0
 12 13  1  0  0  0
 12 32  1  0  0  0
 13 25  1  0  0  0
 14 33  1  0  0  0
 15 16  1  0  0  0
 15 34  1  0  0  0
 15 35  1  0  0  0
 16 36  1  0  0  0
 16 37  1  0  0  0
 18 38  1  0  0  0
 19 39  1  0  0  0
 19 40  1  0  0  0
 19 41  1  0  0  0
 20 42  1  0  0  0
 20 43  1  0  0  0
 20 44  1  0  0  0
 21 45  1  0  0  0
 21 46  1  0  0  0
 21 47  1  0  0  0
 22 48  1  0  0  0
 22 49  1  0  0  0
 22 50  1  0  0  0
 23 26  1  0  0  0
 23 51  1  0  0  0
 23 52  1  0  0  0
 24 27  1  0  0  0
 24 53  1  0  0  0
 24 54  1  0  0  0
 25 55  1  0  0  0
 25 56  1  0  0  0
 25 57  1  0  0  0
 26 27  1  0  0  0
 26 58  1  0  0  0
 26 59  1  0  0  0
 27 60  1  0  0  0
 27 61  1  0  0  0
M  END
> <s_m_entry_id>
30917

> <s_m_entry_name>
dock_pv.130

> <s_m_Source_Path>
/home/csk/Desktop/cluster/DUD-E-result/rxra

> <s_m_Source_File>
dock_pv.maegz

> <i_m_Source_File_Index>
130

> <chembl_id>
CHEMBL93848

> <chembl_pref_name>
None

> <i_lp_mmshare_version>
53161

> <r_lp_tautomer_probability>
1

> <s_lp_Force_Field>
OPLS_2005

> <r_lp_Energy>
51.010351

> <b_lp_Chiralities_Consistent>
1

> <s_lp_Variant>
CHEMBL2061_lig373-1

> <s_i_glide_gridfile>
glide-grid_1mv9

> <i_i_glide_lignum>
433

> <i_i_glide_rotatable_bonds>
5

> <r_i_docking_score>
-10.891536435263

> <r_i_glide_ligand_efficiency>
-0.403390238343072

> <r_i_glide_ligand_efficiency_sa>
-1.21017071369971

> <r_i_glide_ligand_efficiency_ln>
-2.53537012111762

> <r_i_glide_gscore>
-10.891536435263

> <r_i_glide_lipo>
-6.44561666956292

> <r_i_glide_hbond>
-0.0737292898203408

> <r_i_glide_metal>
0

> <r_i_glide_rewards>
-1.97868027668688

> <r_i_glide_evdw>
-50.9518775939941

> <r_i_glide_ecoul>
-2.79338335990906

> <r_i_glide_erotb>
0.573091184493258

> <r_i_glide_esite>
0

> <r_i_glide_emodel>
-86.4348458486076

> <r_i_glide_energy>
-53.7452609539032

> <r_i_glide_einternal>
4.27743244171143

> <i_i_glide_confnum>
240

> <i_i_glide_posenum>
120

> <r_i_glide_eff_state_penalty>
0

> <s_user_duplicate_titles>
CHEMBL2061_lig373,151000

> <i_f3d_flags>
0

> <s_m_subgroup_title>
dock_pv

> <s_m_subgroupid>
dock_pv

> <b_m_subgroup_collapsed>
1

$$$$
CHEMBL2061_lig116
                    3D
 Schrodinger Suite 2021-1.
 63 65  0  0  1  0            999 V2000
   62.7672   46.8500   31.4411 C   0  0  0  0  0  0
   59.9469   46.0802   30.5314 O   0  0  0  0  0  0
   58.7855   45.9777   29.8075 C   0  0  0  0  0  0
   60.8965   46.6162   29.7039 C   0  0  0  0  0  0
   63.8726   46.0457   31.7879 C   0  0  0  0  0  0
   62.2342   46.9159   30.0356 C   0  0  0  0  0  0
   64.3109   45.9123   33.1100 C   0  0  0  0  0  0
   58.9950   46.4332   28.5143 C   0  0  0  0  0  0
   62.1515   47.5758   32.4643 C   0  0  0  0  0  0
   57.5684   45.4939   30.4595 C   0  0  0  0  0  0
   60.3634   46.7912   28.4051 C   0  0  0  0  0  0
   63.6748   46.6487   34.0948 C   0  0  0  0  0  0
   62.6266   47.5095   33.7828 C   0  0  0  0  0  0
   56.4382   45.2573   29.7433 C   0  0  0  0  0  0
   55.1523   44.8775   30.2723 C   0  0  0  0  0  0
   54.6791   45.2773   31.3312 O   0  0  0  0  0  0
   65.4522   44.9596   33.4863 C   0  0  0  0  0  0
   64.4338   45.2339   30.8556 O   0  0  0  0  0  0
   62.0650   48.4121   34.8677 C   0  0  0  0  0  0
   54.4624   44.0770   29.4137 O   0  0  0  0  0  0
   63.0505   47.2029   28.9332 C   0  0  0  0  0  0
   62.0082   43.6308   28.1975 F   0  0  0  0  0  0
   61.1941   47.2442   27.3743 C   0  0  0  0  0  0
   64.0210   43.4567   29.3936 C   0  0  0  0  0  0
   57.7205   45.3313   31.9726 C   0  0  0  0  0  0
   62.5507   47.3965   27.6472 C   0  0  0  0  0  0
   62.8979   42.7639   28.6664 C   0  0  0  0  0  0
   63.5835   44.1306   30.6492 C   0  0  0  0  0  0
   65.2050   44.1864   34.7941 C   0  0  0  0  0  0
   66.7817   45.7134   33.5283 C   0  0  0  0  0  0
   63.1547   48.8763   35.8717 C   0  0  0  0  0  0
   60.8940   47.7690   35.6141 C   0  0  0  0  0  0
   58.2496   46.4666   27.7395 H   0  0  0  0  0  0
   61.3279   48.2238   32.2066 H   0  0  0  0  0  0
   64.0262   46.5684   35.1095 H   0  0  0  0  0  0
   56.4500   45.3705   28.6697 H   0  0  0  0  0  0
   65.5347   44.1920   32.7183 H   0  0  0  0  0  0
   61.6953   49.2757   34.3121 H   0  0  0  0  0  0
   54.9721   43.7820   28.6512 H   0  0  0  0  0  0
   64.1148   47.2769   29.0595 H   0  0  0  0  0  0
   60.8070   47.4076   26.3805 H   0  0  0  0  0  0
   64.4078   44.2308   28.7334 H   0  0  0  0  0  0
   64.8078   42.7620   29.7043 H   0  0  0  0  0  0
   58.1445   44.3515   32.1841 H   0  0  0  0  0  0
   58.3794   46.0775   32.4129 H   0  0  0  0  0  0
   56.7825   45.4220   32.5087 H   0  0  0  0  0  0
   63.2292   47.6593   26.8481 H   0  0  0  0  0  0
   63.2828   42.2061   27.8183 H   0  0  0  0  0  0
   62.4044   42.0780   29.3495 H   0  0  0  0  0  0
   63.6184   43.4399   31.4948 H   0  0  0  0  0  0
   62.5553   44.4773   30.5214 H   0  0  0  0  0  0
   64.2448   43.6683   34.7763 H   0  0  0  0  0  0
   65.9781   43.4328   34.9379 H   0  0  0  0  0  0
   65.2218   44.8399   35.6674 H   0  0  0  0  0  0
   66.9679   46.2148   32.5802 H   0  0  0  0  0  0
   66.7719   46.4766   34.3022 H   0  0  0  0  0  0
   67.6072   45.0367   33.7393 H   0  0  0  0  0  0
   64.0079   49.2789   35.3364 H   0  0  0  0  0  0
   62.8080   49.6603   36.5390 H   0  0  0  0  0  0
   63.5025   48.0769   36.5269 H   0  0  0  0  0  0
   60.0840   47.4958   34.9388 H   0  0  0  0  0  0
   61.2066   46.8653   36.1387 H   0  0  0  0  0  0
   60.4985   48.4634   36.3560 H   0  0  0  0  0  0
  1  5  1  0  0  0
  1  6  1  0  0  0
  1  9  2  0  0  0
  2  4  1  0  0  0
  2  3  1  0  0  0
  3 10  1  0  0  0
  3  8  2  0  0  0
  4  6  1  0  0  0
  4 11  2  0  0  0
  5  7  2  0  0  0
  5 18  1  0  0  0
  6 21  2  0  0  0
  7 17  1  0  0  0
  7 12  1  0  0  0
  8 11  1  0  0  0
  8 33  1  0  0  0
  9 13  1  0  0  0
  9 34  1  0  0  0
 10 14  2  0  0  0
 10 25  1  0  0  0
 11 23  1  0  0  0
 12 13  2  0  0  0
 12 35  1  0  0  0
 13 19  1  0  0  0
 14 15  1  0  0  0
 14 36  1  0  0  0
 15 16  2  0  0  0
 15 20  1  0  0  0
 17 29  1  0  0  0
 17 30  1  0  0  0
 17 37  1  0  0  0
 18 28  1  0  0  0
 19 31  1  0  0  0
 19 32  1  0  0  0
 19 38  1  0  0  0
 20 39  1  0  0  0
 21 26  1  0  0  0
 21 40  1  0  0  0
 22 27  1  0  0  0
 23 26  2  0  0  0
 23 41  1  0  0  0
 24 28  1  0  0  0
 24 27  1  0  0  0
 24 42  1  0  0  0
 24 43  1  0  0  0
 25 44  1  0  0  0
 25 45  1  0  0  0
 25 46  1  0  0  0
 26 47  1  0  0  0
 27 48  1  0  0  0
 27 49  1  0  0  0
 28 50  1  0  0  0
 28 51  1  0  0  0
 29 52  1  0  0  0
 29 53  1  0  0  0
 29 54  1  0  0  0
 30 55  1  0  0  0
 30 56  1  0  0  0
 30 57  1  0  0  0
 31 58  1  0  0  0
 31 59  1  0  0  0
 31 60  1  0  0  0
 32 61  1  0  0  0
 32 62  1  0  0  0
 32 63  1  0  0  0
M  END
> <s_m_entry_id>
30918

> <s_m_entry_name>
dock_pv.131

> <s_m_Source_Path>
/home/csk/Desktop/cluster/DUD-E-result/rxra

> <s_m_Source_File>
dock_pv.maegz

> <i_m_Source_File_Index>
131

> <chembl_id>
CHEMBL290399

> <chembl_pref_name>
None

> <i_lp_mmshare_version>
53161

> <r_lp_tautomer_probability>
1

> <s_lp_Force_Field>
OPLS_2005

> <r_lp_Energy>
27.528812

> <b_lp_Chiralities_Consistent>
1

> <s_lp_Variant>
CHEMBL2061_lig116-1

> <s_i_glide_gridfile>
glide-grid_1mv9

> <i_i_glide_lignum>
155

> <i_i_glide_rotatable_bonds>
10

> <r_i_docking_score>
-10.8788691282814

> <r_i_glide_ligand_efficiency>
-0.339964660258792

> <r_i_glide_ligand_efficiency_sa>
-1.07932051740676

> <r_i_glide_ligand_efficiency_ln>
-2.43607534459461

> <r_i_glide_gscore>
-10.8788691282814

> <r_i_glide_lipo>
-6.96127907393331

> <r_i_glide_hbond>
-0.0670836498869124

> <r_i_glide_metal>
0

> <r_i_glide_rewards>
-1.82483599958521

> <r_i_glide_evdw>
-37.8679237365723

> <r_i_glide_ecoul>
-5.03151178359985

> <r_i_glide_erotb>
0.622452549492675

> <r_i_glide_esite>
0

> <r_i_glide_emodel>
-53.9167818631524

> <r_i_glide_energy>
-42.8994355201721

> <r_i_glide_einternal>
5.28110837936401

> <i_i_glide_confnum>
35

> <i_i_glide_posenum>
72

> <r_i_glide_eff_state_penalty>
0

> <s_user_duplicate_titles>
CHEMBL2061_lig116,61446

> <i_f3d_flags>
0

> <s_m_subgroup_title>
dock_pv

> <s_m_subgroupid>
dock_pv

> <b_m_subgroup_collapsed>
1

$$$$
CHEMBL2061_lig305
                    3D
 Schrodinger Suite 2021-1.
 62 63  0  0  1  0            999 V2000
   63.2329   46.4163   32.9567 C   0  0  0  0  0  0
   64.2407   45.4220   32.8584 C   0  0  0  0  0  0
   62.9046   46.2969   30.5164 C   0  0  0  0  0  0
   62.6372   46.8744   31.7606 C   0  0  0  0  0  0
   64.5024   44.8623   31.6097 C   0  0  0  0  0  0
   63.8240   45.2491   30.4711 C   0  0  0  0  0  0
   64.9738   44.8390   34.0764 C   0  0  0  0  0  0
   62.7901   46.9922   34.3285 C   0  0  0  0  0  0
   62.2580   46.7810   29.2688 C   0  0  0  0  0  0
   56.3147   45.4557   29.6869 C   0  0  0  0  0  0
   55.0633   45.1128   30.3142 C   0  0  0  0  0  0
   59.9123   46.1489   29.8786 C   0  0  0  0  0  0
   57.5070   45.6137   30.3175 C   0  0  0  0  0  0
   60.9347   46.6992   29.0080 C   0  0  0  0  0  0
   58.6230   46.0665   29.4926 C   0  0  0  0  0  0
   64.8098   45.7694   35.3001 C   0  0  0  0  0  0
   63.3621   46.1827   35.5207 C   0  0  0  0  0  0
   54.5999   45.6634   31.3091 O   0  0  0  0  0  0
   64.0908   44.5733   29.3184 O   0  0  0  0  0  0
   54.4092   44.1303   29.6375 O   0  0  0  0  0  0
   63.3115   48.4429   34.4407 C   0  0  0  0  0  0
   64.3250   43.4546   34.3431 C   0  0  0  0  0  0
   66.5005   44.7892   33.8116 C   0  0  0  0  0  0
   61.2593   46.8767   34.4542 C   0  0  0  0  0  0
   63.1805   47.4226   28.2438 C   0  0  0  0  0  0
   57.7060   45.4097   31.8212 C   0  0  0  0  0  0
   63.4744   43.2921   29.1919 C   0  0  0  0  0  0
   62.2326   43.4285   28.3250 C   0  0  0  0  0  0
   61.9315   47.6893   31.7950 H   0  0  0  0  0  0
   65.2116   44.0597   31.5095 H   0  0  0  0  0  0
   56.2377   45.5956   28.6179 H   0  0  0  0  0  0
   60.2021   45.8118   30.8613 H   0  0  0  0  0  0
   60.5996   47.0889   28.0561 H   0  0  0  0  0  0
   58.3975   46.3804   28.4828 H   0  0  0  0  0  0
   65.2036   45.2972   36.1988 H   0  0  0  0  0  0
   65.4064   46.6692   35.1607 H   0  0  0  0  0  0
   62.7865   45.2770   35.7046 H   0  0  0  0  0  0
   63.2791   46.7629   36.4401 H   0  0  0  0  0  0
   54.9005   43.8039   28.8764 H   0  0  0  0  0  0
   63.1626   48.8590   35.4391 H   0  0  0  0  0  0
   64.3790   48.4857   34.2204 H   0  0  0  0  0  0
   62.8042   49.1120   33.7426 H   0  0  0  0  0  0
   64.4187   43.1371   35.3719 H   0  0  0  0  0  0
   63.2548   43.4477   34.1297 H   0  0  0  0  0  0
   64.7664   42.6806   33.7130 H   0  0  0  0  0  0
   67.0483   44.4828   34.6973 H   0  0  0  0  0  0
   66.7592   44.0816   33.0289 H   0  0  0  0  0  0
   66.8919   45.7615   33.5098 H   0  0  0  0  0  0
   60.8796   47.3996   35.3305 H   0  0  0  0  0  0
   60.8020   47.3063   33.5761 H   0  0  0  0  0  0
   60.9173   45.8424   34.5021 H   0  0  0  0  0  0
   64.1659   46.9577   28.2252 H   0  0  0  0  0  0
   62.7654   47.3743   27.2376 H   0  0  0  0  0  0
   63.2905   48.4754   28.4867 H   0  0  0  0  0  0
   58.4669   46.0783   32.2163 H   0  0  0  0  0  0
   56.8231   45.6722   32.4051 H   0  0  0  0  0  0
   58.0155   44.3885   32.0328 H   0  0  0  0  0  0
   64.1624   42.6042   28.7040 H   0  0  0  0  0  0
   63.2321   42.8204   30.1428 H   0  0  0  0  0  0
   62.0058   42.4808   27.8431 H   0  0  0  0  0  0
   61.3870   43.7442   28.9389 H   0  0  0  0  0  0
   62.3822   44.1621   27.5315 H   0  0  0  0  0  0
  1  2  2  0  0  0
  1  4  1  0  0  0
  1  8  1  0  0  0
  2  5  1  0  0  0
  2  7  1  0  0  0
  3  4  2  0  0  0
  3  6  1  0  0  0
  3  9  1  0  0  0
  4 29  1  0  0  0
  5  6  2  0  0  0
  5 30  1  0  0  0
  6 19  1  0  0  0
  7 22  1  0  0  0
  7 23  1  0  0  0
  7 16  1  0  0  0
  8 17  1  0  0  0
  8 21  1  0  0  0
  8 24  1  0  0  0
  9 14  2  0  0  0
  9 25  1  0  0  0
 10 13  2  0  0  0
 10 11  1  0  0  0
 10 31  1  0  0  0
 11 18  2  0  0  0
 11 20  1  0  0  0
 12 14  1  0  0  0
 12 15  2  0  0  0
 12 32  1  0  0  0
 13 15  1  0  0  0
 13 26  1  0  0  0
 14 33  1  0  0  0
 15 34  1  0  0  0
 16 17  1  0  0  0
 16 35  1  0  0  0
 16 36  1  0  0  0
 17 37  1  0  0  0
 17 38  1  0  0  0
 19 27  1  0  0  0
 20 39  1  0  0  0
 21 40  1  0  0  0
 21 41  1  0  0  0
 21 42  1  0  0  0
 22 43  1  0  0  0
 22 44  1  0  0  0
 22 45  1  0  0  0
 23 46  1  0  0  0
 23 47  1  0  0  0
 23 48  1  0  0  0
 24 49  1  0  0  0
 24 50  1  0  0  0
 24 51  1  0  0  0
 25 52  1  0  0  0
 25 53  1  0  0  0
 25 54  1  0  0  0
 26 55  1  0  0  0
 26 56  1  0  0  0
 26 57  1  0  0  0
 27 28  1  0  0  0
 27 58  1  0  0  0
 27 59  1  0  0  0
 28 60  1  0  0  0
 28 61  1  0  0  0
 28 62  1  0  0  0
M  END
> <s_m_entry_id>
30919

> <s_m_entry_name>
dock_pv.132

> <s_m_Source_Path>
/home/csk/Desktop/cluster/DUD-E-result/rxra

> <s_m_Source_File>
dock_pv.maegz

> <i_m_Source_File_Index>
132

> <chembl_id>
CHEMBL109847

> <chembl_pref_name>
None

> <i_lp_mmshare_version>
53161

> <r_lp_tautomer_probability>
1

> <s_lp_Force_Field>
OPLS_2005

> <r_lp_Energy>
33.542295

> <b_lp_Chiralities_Consistent>
1

> <s_lp_Variant>
CHEMBL2061_lig305-1

> <s_i_glide_gridfile>
glide-grid_1mv9

> <i_i_glide_lignum>
353

> <i_i_glide_rotatable_bonds>
7

> <r_i_docking_score>
-10.8782179849104

> <r_i_glide_ligand_efficiency>
-0.388507785175372

> <r_i_glide_ligand_efficiency_sa>
-1.179738454641

> <r_i_glide_ligand_efficiency_ln>
-2.51101210927609

> <r_i_glide_gscore>
-10.8782179849104

> <r_i_glide_lipo>
-6.58402459318747

> <r_i_glide_hbond>
-0.159470812353161

> <r_i_glide_metal>
0

> <r_i_glide_rewards>
-1.88984866657582

> <r_i_glide_evdw>
-41.782886505127

> <r_i_glide_ecoul>
-5.46248626708984

> <r_i_glide_erotb>
0.663643352525854

> <r_i_glide_esite>
0

> <r_i_glide_emodel>
-62.0203693033493

> <r_i_glide_energy>
-47.2453727722168

> <r_i_glide_einternal>
8.40287303924561

> <i_i_glide_confnum>
327

> <i_i_glide_posenum>
123

> <r_i_glide_eff_state_penalty>
0

> <s_user_duplicate_titles>
CHEMBL2061_lig305,180972

> <i_f3d_flags>
0

> <s_m_subgroup_title>
dock_pv

> <s_m_subgroupid>
dock_pv

> <b_m_subgroup_collapsed>
1

$$$$
CHEMBL2061_lig291
                    3D
 Schrodinger Suite 2021-1.
 54 56  0  0  1  0            999 V2000
   62.9036   46.7458   32.5938 C   0  0  0  0  0  0
   64.0666   46.1000   32.1781 C   0  0  0  0  0  0
   62.8858   46.9788   34.0978 C   0  0  0  0  0  0
   65.0718   45.9597   33.3095 C   0  0  0  0  0  0
   62.0014   46.6044   30.3308 C   0  0  0  0  0  0
   64.2260   46.3131   34.5800 C   0  0  2  0  0  0
   60.9000   46.9044   29.3723 C   0  0  0  0  0  0
   61.9098   47.0448   31.6580 C   0  0  0  0  0  0
   64.1917   45.6897   30.8484 C   0  0  0  0  0  0
   63.1564   45.9031   29.9350 C   0  0  0  0  0  0
   55.4686   45.0329   30.2672 C   0  0  0  0  0  0
   59.5495   46.2649   29.5539 C   0  0  0  0  0  0
   56.9069   45.3505   29.9855 C   0  0  0  0  0  0
   61.1791   47.7469   28.3525 C   0  0  0  0  0  0
   54.9267   45.2770   31.3390 O   0  0  0  0  0  0
   59.1649   45.6787   30.7674 C   0  0  0  0  0  0
   58.5885   46.3083   28.5368 C   0  0  0  0  0  0
   57.2864   45.8640   28.7447 C   0  0  0  0  0  0
   57.8635   45.2462   30.9945 C   0  0  0  0  0  0
   54.8081   44.4771   29.2261 O   0  0  0  0  0  0
   62.8793   48.4776   34.4587 C   0  0  0  0  0  0
   61.5819   46.3657   34.6780 C   0  0  0  0  0  0
   65.7057   44.5495   33.3082 C   0  0  0  0  0  0
   66.2435   46.9496   33.1049 C   0  0  0  0  0  0
   64.0833   45.1738   35.6185 C   0  0  0  0  0  0
   63.2956   45.3162   28.5393 C   0  0  0  0  0  0
   64.7891   47.0586   35.1457 H   0  0  0  0  0  0
   61.0307   47.5827   31.9764 H   0  0  0  0  0  0
   65.0860   45.1767   30.5248 H   0  0  0  0  0  0
   62.1635   48.1817   28.2493 H   0  0  0  0  0  0
   60.4554   48.0350   27.6067 H   0  0  0  0  0  0
   59.8368   45.6771   31.6064 H   0  0  0  0  0  0
   58.8206   46.7194   27.5677 H   0  0  0  0  0  0
   56.5720   45.9756   27.9407 H   0  0  0  0  0  0
   57.6071   44.8780   31.9773 H   0  0  0  0  0  0
   55.4041   44.1982   28.5259 H   0  0  0  0  0  0
   62.8085   48.6199   35.5382 H   0  0  0  0  0  0
   63.7902   48.9802   34.1389 H   0  0  0  0  0  0
   62.0356   48.9925   33.9969 H   0  0  0  0  0  0
   61.5822   46.3107   35.7658 H   0  0  0  0  0  0
   60.7076   46.9584   34.4032 H   0  0  0  0  0  0
   61.3956   45.3732   34.2723 H   0  0  0  0  0  0
   66.3348   44.3723   34.1809 H   0  0  0  0  0  0
   64.9631   43.7521   33.2514 H   0  0  0  0  0  0
   66.3582   44.4755   32.4390 H   0  0  0  0  0  0
   67.0957   46.7190   33.7390 H   0  0  0  0  0  0
   66.6165   46.8757   32.0852 H   0  0  0  0  0  0
   65.9656   47.9851   33.3011 H   0  0  0  0  0  0
   63.6081   44.2906   35.1951 H   0  0  0  0  0  0
   65.0612   44.8769   35.9904 H   0  0  0  0  0  0
   63.5188   45.4844   36.4957 H   0  0  0  0  0  0
   64.0076   44.4916   28.5390 H   0  0  0  0  0  0
   62.3484   44.8981   28.1962 H   0  0  0  0  0  0
   63.6089   46.0777   27.8263 H   0  0  0  0  0  0
  1  2  2  0  0  0
  1  3  1  0  0  0
  1  8  1  0  0  0
  2  4  1  0  0  0
  2  9  1  0  0  0
  3  6  1  0  0  0
  3 21  1  0  0  0
  3 22  1  0  0  0
  4 23  1  0  0  0
  4 24  1  0  0  0
  4  6  1  0  0  0
  5  8  2  0  0  0
  5  7  1  0  0  0
  5 10  1  0  0  0
  6 25  1  0  0  0
  6 27  1  0  0  0
  7 12  1  0  0  0
  7 14  2  0  0  0
  8 28  1  0  0  0
  9 10  2  0  0  0
  9 29  1  0  0  0
 10 26  1  0  0  0
 11 13  1  0  0  0
 11 15  2  0  0  0
 11 20  1  0  0  0
 12 16  2  0  0  0
 12 17  1  0  0  0
 13 18  1  0  0  0
 13 19  2  0  0  0
 14 30  1  0  0  0
 14 31  1  0  0  0
 16 19  1  0  0  0
 16 32  1  0  0  0
 17 18  2  0  0  0
 17 33  1  0  0  0
 18 34  1  0  0  0
 19 35  1  0  0  0
 20 36  1  0  0  0
 21 37  1  0  0  0
 21 38  1  0  0  0
 21 39  1  0  0  0
 22 40  1  0  0  0
 22 41  1  0  0  0
 22 42  1  0  0  0
 23 43  1  0  0  0
 23 44  1  0  0  0
 23 45  1  0  0  0
 24 46  1  0  0  0
 24 47  1  0  0  0
 24 48  1  0  0  0
 25 49  1  0  0  0
 25 50  1  0  0  0
 25 51  1  0  0  0
 26 52  1  0  0  0
 26 53  1  0  0  0
 26 54  1  0  0  0
M  END
> <s_m_entry_id>
30920

> <s_m_entry_name>
dock_pv.133

> <s_m_Source_Path>
/home/csk/Desktop/cluster/DUD-E-result/rxra

> <s_m_Source_File>
dock_pv.maegz

> <i_m_Source_File_Index>
133

> <chembl_id>
CHEMBL106837

> <chembl_pref_name>
None

> <i_lp_mmshare_version>
53161

> <r_lp_tautomer_probability>
1

> <s_lp_Force_Field>
OPLS_2005

> <r_lp_Energy>
36.423397

> <b_lp_Chiralities_Consistent>
1

> <s_lp_Variant>
CHEMBL2061_lig291-2

> <s_i_glide_gridfile>
glide-grid_1mv9

> <i_i_glide_lignum>
337

> <i_i_glide_rotatable_bonds>
4

> <r_i_docking_score>
-10.8780798136891

> <r_i_glide_ligand_efficiency>
-0.418387685141888

> <r_i_glide_ligand_efficiency_sa>
-1.2394718709568

> <r_i_glide_ligand_efficiency_ln>
-2.55468135035369

> <r_i_glide_gscore>
-10.8780798136891

> <r_i_glide_lipo>
-6.51328497524343

> <r_i_glide_hbond>
0

> <r_i_glide_metal>
0

> <r_i_glide_rewards>
-2.27755978861774

> <r_i_glide_evdw>
-42.0935554504395

> <r_i_glide_ecoul>
-3.01901984214783

> <r_i_glide_erotb>
0.470295699016224

> <r_i_glide_esite>
0

> <r_i_glide_emodel>
-63.6749872728597

> <r_i_glide_energy>
-45.1125752925873

> <r_i_glide_einternal>
6.45720291137695

> <i_i_glide_confnum>
7

> <i_i_glide_posenum>
51

> <r_i_glide_eff_state_penalty>
0

> <s_user_duplicate_titles>
CHEMBL2061_lig291,176132

> <i_f3d_flags>
0

> <s_m_subgroup_title>
dock_pv

> <s_m_subgroupid>
dock_pv

> <b_m_subgroup_collapsed>
1

$$$$
CHEMBL2061_lig318
                    3D
 Schrodinger Suite 2021-1.
 54 56  0  0  1  0            999 V2000
   55.9747   45.6495   29.6413 C   0  0  0  0  0  0
   62.7486   46.4768   33.0694 C   0  0  0  0  0  0
   63.9223   45.8164   32.6099 C   0  0  0  0  0  0
   56.9813   45.3541   30.4530 N   0  0  0  0  0  0
   58.0796   45.7159   29.8278 C   0  0  0  0  0  0
   57.8148   46.0770   28.5390 N   0  0  0  0  0  0
   61.7647   46.2565   30.8201 C   0  0  0  0  0  0
   60.5513   46.3863   29.9777 C   0  0  0  0  0  0
   56.4582   46.0459   28.4000 C   0  0  0  0  0  0
   61.7124   46.6916   32.1459 C   0  0  0  0  0  0
   59.4079   45.7930   30.3957 C   0  0  0  0  0  0
   63.9886   45.4438   31.2577 C   0  0  0  0  0  0
   54.5999   45.5613   30.0092 C   0  0  0  0  0  0
   62.9395   45.6462   30.3645 C   0  0  0  0  0  0
   62.5959   46.9782   34.5289 C   0  0  0  0  0  0
   65.0811   45.4133   33.5560 C   0  0  0  0  0  0
   54.1626   44.7834   30.8506 O   0  0  0  0  0  0
   63.5655   46.2183   35.4674 C   0  0  0  0  0  0
   64.9853   46.1543   34.9131 C   0  0  0  0  0  0
   53.8429   46.4768   29.3390 O   0  0  0  0  0  0
   60.6725   47.2380   28.7198 C   0  0  0  0  0  0
   63.0795   45.1064   28.9466 C   0  0  0  0  0  0
   62.9411   48.4794   34.5492 C   0  0  0  0  0  0
   61.1714   46.7161   35.0828 C   0  0  0  0  0  0
   64.9821   43.8903   33.8182 C   0  0  0  0  0  0
   66.4402   45.8208   32.9438 C   0  0  0  0  0  0
   58.4936   46.3692   27.8500 H   0  0  0  0  0  0
   55.9884   46.3230   27.4663 H   0  0  0  0  0  0
   60.8101   47.1860   32.4724 H   0  0  0  0  0  0
   59.4308   45.2796   31.3390 H   0  0  0  0  0  0
   64.8646   44.9246   30.8973 H   0  0  0  0  0  0
   63.2084   45.2033   35.6487 H   0  0  0  0  0  0
   63.6014   46.6955   36.4477 H   0  0  0  0  0  0
   65.6262   45.6778   35.6544 H   0  0  0  0  0  0
   65.3667   47.1695   34.8175 H   0  0  0  0  0  0
   54.4093   47.0061   28.7718 H   0  0  0  0  0  0
   60.8767   46.6121   27.8505 H   0  0  0  0  0  0
   59.7666   47.8157   28.5310 H   0  0  0  0  0  0
   61.4929   47.9526   28.8133 H   0  0  0  0  0  0
   63.8824   44.3710   28.8700 H   0  0  0  0  0  0
   62.1677   44.5995   28.6336 H   0  0  0  0  0  0
   63.2811   45.9160   28.2475 H   0  0  0  0  0  0
   62.9131   48.8772   35.5642 H   0  0  0  0  0  0
   63.9294   48.6886   34.1433 H   0  0  0  0  0  0
   62.2304   49.0493   33.9509 H   0  0  0  0  0  0
   61.1110   46.9602   36.1444 H   0  0  0  0  0  0
   60.4089   47.3162   34.5919 H   0  0  0  0  0  0
   60.8718   45.6770   34.9701 H   0  0  0  0  0  0
   65.7400   43.5587   34.5287 H   0  0  0  0  0  0
   64.0099   43.5998   34.2190 H   0  0  0  0  0  0
   65.1335   43.3159   32.9049 H   0  0  0  0  0  0
   67.2517   45.6620   33.6540 H   0  0  0  0  0  0
   66.6923   45.2369   32.0585 H   0  0  0  0  0  0
   66.4590   46.8736   32.6588 H   0  0  0  0  0  0
  1  4  1  0  0  0
  1  9  2  0  0  0
  1 13  1  0  0  0
  2 10  2  0  0  0
  2 15  1  0  0  0
  2  3  1  0  0  0
  3 12  2  0  0  0
  3 16  1  0  0  0
  4  5  2  0  0  0
  5 11  1  0  0  0
  5  6  1  0  0  0
  6  9  1  0  0  0
  6 27  1  0  0  0
  7  8  1  0  0  0
  7 10  1  0  0  0
  7 14  2  0  0  0
  8 11  2  0  0  0
  8 21  1  0  0  0
  9 28  1  0  0  0
 10 29  1  0  0  0
 11 30  1  0  0  0
 12 14  1  0  0  0
 12 31  1  0  0  0
 13 17  2  0  0  0
 13 20  1  0  0  0
 14 22  1  0  0  0
 15 18  1  0  0  0
 15 23  1  0  0  0
 15 24  1  0  0  0
 16 19  1  0  0  0
 16 25  1  0  0  0
 16 26  1  0  0  0
 18 19  1  0  0  0
 18 32  1  0  0  0
 18 33  1  0  0  0
 19 34  1  0  0  0
 19 35  1  0  0  0
 20 36  1  0  0  0
 21 37  1  0  0  0
 21 38  1  0  0  0
 21 39  1  0  0  0
 22 40  1  0  0  0
 22 41  1  0  0  0
 22 42  1  0  0  0
 23 43  1  0  0  0
 23 44  1  0  0  0
 23 45  1  0  0  0
 24 46  1  0  0  0
 24 47  1  0  0  0
 24 48  1  0  0  0
 25 49  1  0  0  0
 25 50  1  0  0  0
 25 51  1  0  0  0
 26 52  1  0  0  0
 26 53  1  0  0  0
 26 54  1  0  0  0
M  END
> <s_m_entry_id>
30921

> <s_m_entry_name>
dock_pv.134

> <s_m_Source_Path>
/home/csk/Desktop/cluster/DUD-E-result/rxra

> <s_m_Source_File>
dock_pv.maegz

> <i_m_Source_File_Index>
134

> <chembl_id>
CHEMBL329802

> <chembl_pref_name>
None

> <i_lp_mmshare_version>
53161

> <r_lp_tautomer_probability>
1

> <s_lp_Force_Field>
OPLS_2005

> <r_lp_Energy>
30.170292

> <b_lp_Chiralities_Consistent>
1

> <s_lp_Variant>
CHEMBL2061_lig318-1

> <s_i_glide_gridfile>
glide-grid_1mv9

> <i_i_glide_lignum>
366

> <i_i_glide_rotatable_bonds>
4

> <r_i_docking_score>
-10.8682527511445

> <r_i_glide_ligand_efficiency>
-0.418009721197866

> <r_i_glide_ligand_efficiency_sa>
-1.23835215425985

> <r_i_glide_ligand_efficiency_ln>
-2.55237349696032

> <r_i_glide_gscore>
-10.8682527511445

> <r_i_glide_lipo>
-5.48103418941716

> <r_i_glide_hbond>
-0.37358145887542

> <r_i_glide_metal>
0

> <r_i_glide_rewards>
-2.5817823234368

> <r_i_glide_evdw>
-43.7864837646484

> <r_i_glide_ecoul>
-4.63985300064087

> <r_i_glide_erotb>
0.460866951606708

> <r_i_glide_esite>
-0.00741959269328911

> <r_i_glide_emodel>
-74.3407079712358

> <r_i_glide_energy>
-48.4263367652893

> <r_i_glide_einternal>
5.81932687759399

> <i_i_glide_confnum>
18

> <i_i_glide_posenum>
216

> <r_i_glide_eff_state_penalty>
0

> <s_user_duplicate_titles>
CHEMBL2061_lig318,149482

> <i_f3d_flags>
0

> <s_m_subgroup_title>
dock_pv

> <s_m_subgroupid>
dock_pv

> <b_m_subgroup_collapsed>
1

$$$$
CHEMBL2061_lig359
                    3D
 Schrodinger Suite 2021-1.
 58 60  0  0  1  0            999 V2000
   62.8334   46.5971   32.8920 C   0  0  0  0  0  0
   64.0261   45.9444   32.4804 C   0  0  0  0  0  0
   62.0150   46.5629   30.5623 C   0  0  0  0  0  0
   60.9050   46.8771   29.5920 C   0  0  0  0  0  0
   61.8813   46.9190   31.9088 C   0  0  0  0  0  0
   64.1841   45.6591   31.1165 C   0  0  0  0  0  0
   63.2135   45.9519   30.1608 C   0  0  0  0  0  0
   62.5751   47.0114   34.3649 C   0  0  0  0  0  0
   65.1139   45.4782   33.4822 C   0  0  0  0  0  0
   55.4315   45.0386   30.2838 C   0  0  0  0  0  0
   59.5394   46.2443   29.7365 C   0  0  0  0  0  0
   56.8816   45.3558   30.0535 C   0  0  0  0  0  0
   61.1548   47.5619   28.5973 O   0  0  0  0  0  0
   64.9698   46.2246   34.8298 C   0  0  0  0  0  0
   63.5282   46.2645   35.3338 C   0  0  0  0  0  0
   54.8539   45.2771   31.3391 O   0  0  0  0  0  0
   59.1029   45.6770   30.9388 C   0  0  0  0  0  0
   58.6310   46.3055   28.6710 C   0  0  0  0  0  0
   57.3160   45.8704   28.8283 C   0  0  0  0  0  0
   57.7930   45.2492   31.1034 C   0  0  0  0  0  0
   54.8083   44.4769   29.2232 O   0  0  0  0  0  0
   63.4665   45.4967   28.7243 C   0  0  0  0  0  0
   61.1353   46.6395   34.8020 C   0  0  0  0  0  0
   66.5302   45.8228   32.9621 C   0  0  0  0  0  0
   64.9395   43.9573   33.7215 C   0  0  0  0  0  0
   62.8456   48.5255   34.4816 C   0  0  0  0  0  0
   62.7258   44.1878   28.4138 C   0  0  0  0  0  0
   63.3323   42.9718   29.1262 C   0  0  0  0  0  0
   60.9968   47.4577   32.2111 H   0  0  0  0  0  0
   65.0719   45.1419   30.7852 H   0  0  0  0  0  0
   65.3303   47.2485   34.7299 H   0  0  0  0  0  0
   65.6080   45.7700   35.5888 H   0  0  0  0  0  0
   63.5100   46.7320   36.3190 H   0  0  0  0  0  0
   63.1873   45.2431   35.5008 H   0  0  0  0  0  0
   59.7289   45.6772   31.8146 H   0  0  0  0  0  0
   58.9200   46.7367   27.7221 H   0  0  0  0  0  0
   56.6333   45.9917   27.9982 H   0  0  0  0  0  0
   57.4925   44.8828   32.0738 H   0  0  0  0  0  0
   55.4277   44.2018   28.5420 H   0  0  0  0  0  0
   63.1704   46.2730   28.0212 H   0  0  0  0  0  0
   64.5355   45.3735   28.5418 H   0  0  0  0  0  0
   61.0035   46.7445   35.8805 H   0  0  0  0  0  0
   60.8808   45.6145   34.5383 H   0  0  0  0  0  0
   60.3852   47.2767   34.3402 H   0  0  0  0  0  0
   67.2861   45.6183   33.7217 H   0  0  0  0  0  0
   66.8015   45.2299   32.0901 H   0  0  0  0  0  0
   66.6183   46.8763   32.6888 H   0  0  0  0  0  0
   65.6346   43.5923   34.4783 H   0  0  0  0  0  0
   63.9326   43.6965   34.0470 H   0  0  0  0  0  0
   65.1328   43.3908   32.8114 H   0  0  0  0  0  0
   62.7526   48.8761   35.5106 H   0  0  0  0  0  0
   63.8433   48.7959   34.1394 H   0  0  0  0  0  0
   62.1414   49.0943   33.8730 H   0  0  0  0  0  0
   61.6751   44.2708   28.6928 H   0  0  0  0  0  0
   62.7028   44.0290   27.3395 H   0  0  0  0  0  0
   62.8093   42.0772   28.8108 H   0  0  0  0  0  0
   64.4018   42.8358   28.9390 H   0  0  0  0  0  0
   63.2118   43.0480   30.2020 H   0  0  0  0  0  0
  1  2  2  0  0  0
  1  5  1  0  0  0
  1  8  1  0  0  0
  2  6  1  0  0  0
  2  9  1  0  0  0
  3  5  2  0  0  0
  3  4  1  0  0  0
  3  7  1  0  0  0
  4 11  1  0  0  0
  4 13  2  0  0  0
  5 29  1  0  0  0
  6  7  2  0  0  0
  6 30  1  0  0  0
  7 22  1  0  0  0
  8 15  1  0  0  0
  8 23  1  0  0  0
  8 26  1  0  0  0
  9 24  1  0  0  0
  9 25  1  0  0  0
  9 14  1  0  0  0
 10 12  1  0  0  0
 10 16  2  0  0  0
 10 21  1  0  0  0
 11 17  2  0  0  0
 11 18  1  0  0  0
 12 19  1  0  0  0
 12 20  2  0  0  0
 14 15  1  0  0  0
 14 31  1  0  0  0
 14 32  1  0  0  0
 15 33  1  0  0  0
 15 34  1  0  0  0
 17 20  1  0  0  0
 17 35  1  0  0  0
 18 19  2  0  0  0
 18 36  1  0  0  0
 19 37  1  0  0  0
 20 38  1  0  0  0
 21 39  1  0  0  0
 22 27  1  0  0  0
 22 40  1  0  0  0
 22 41  1  0  0  0
 23 42  1  0  0  0
 23 43  1  0  0  0
 23 44  1  0  0  0
 24 45  1  0  0  0
 24 46  1  0  0  0
 24 47  1  0  0  0
 25 48  1  0  0  0
 25 49  1  0  0  0
 25 50  1  0  0  0
 26 51  1  0  0  0
 26 52  1  0  0  0
 26 53  1  0  0  0
 27 28  1  0  0  0
 27 54  1  0  0  0
 27 55  1  0  0  0
 28 56  1  0  0  0
 28 57  1  0  0  0
 28 58  1  0  0  0
M  END
> <s_m_entry_id>
30922

> <s_m_entry_name>
dock_pv.135

> <s_m_Source_Path>
/home/csk/Desktop/cluster/DUD-E-result/rxra

> <s_m_Source_File>
dock_pv.maegz

> <i_m_Source_File_Index>
135

> <chembl_id>
CHEMBL98142

> <chembl_pref_name>
None

> <i_lp_mmshare_version>
53161

> <r_lp_tautomer_probability>
1

> <s_lp_Force_Field>
OPLS_2005

> <r_lp_Energy>
33.822535

> <b_lp_Chiralities_Consistent>
1

> <s_lp_Variant>
CHEMBL2061_lig359-1

> <s_i_glide_gridfile>
glide-grid_1mv9

> <i_i_glide_lignum>
419

> <i_i_glide_rotatable_bonds>
6

> <r_i_docking_score>
-10.860356990761

> <r_i_glide_ligand_efficiency>
-0.38786989252718

> <r_i_glide_ligand_efficiency_sa>
-1.17780143686241

> <r_i_glide_ligand_efficiency_ln>
-2.50688926740484

> <r_i_glide_gscore>
-10.860356990761

> <r_i_glide_lipo>
-6.3944402776682

> <r_i_glide_hbond>
-0.0143428405613499

> <r_i_glide_metal>
0

> <r_i_glide_rewards>
-2.36480417316505

> <r_i_glide_evdw>
-43.9770050048828

> <r_i_glide_ecoul>
-2.86006903648376

> <r_i_glide_erotb>
0.541090906350253

> <r_i_glide_esite>
0

> <r_i_glide_emodel>
-69.773981953933

> <r_i_glide_energy>
-46.8370740413666

> <r_i_glide_einternal>
5.75339078903198

> <i_i_glide_confnum>
90

> <i_i_glide_posenum>
255

> <r_i_glide_eff_state_penalty>
0

> <s_user_duplicate_titles>
CHEMBL2061_lig359,163620

> <i_f3d_flags>
0

> <s_m_subgroup_title>
dock_pv

> <s_m_subgroupid>
dock_pv

> <b_m_subgroup_collapsed>
1

$$$$
CHEMBL2061_lig447
                    3D
 Schrodinger Suite 2021-1.
 61 63  0  0  1  0            999 V2000
   64.0102   46.8767   35.3393 C   0  0  0  0  0  0
   65.0634   45.8010   35.0242 C   0  0  0  0  0  0
   65.5598   45.7670   33.5513 C   0  0  0  0  0  0
   63.2205   47.2189   34.2741 N   0  0  0  0  0  0
   63.9410   47.3405   36.4782 O   0  0  0  0  0  0
   66.3682   44.4756   33.3997 C   0  0  0  0  0  0
   66.4685   46.9512   33.2029 C   0  0  0  0  0  0
   63.2081   46.5279   33.0199 C   0  0  0  0  0  0
   64.3530   45.8142   32.6105 C   0  0  0  0  0  0
   64.3763   45.2298   31.3383 C   0  0  0  0  0  0
   63.3124   45.3556   30.4526 C   0  0  0  0  0  0
   62.1738   46.0769   30.8453 C   0  0  0  0  0  0
   62.1210   46.6066   32.1341 C   0  0  0  0  0  0
   61.0316   46.2977   29.9257 C   0  0  0  0  0  0
   59.7776   45.7584   30.2354 C   0  0  0  0  0  0
   58.7091   45.8339   29.3533 C   0  0  0  0  0  0
   58.9173   46.4769   28.1390 C   0  0  0  0  0  0
   60.1238   47.1044   27.8433 C   0  0  0  0  0  0
   61.1921   47.0417   28.7453 C   0  0  0  0  0  0
   57.3703   45.1924   29.7244 C   0  0  0  0  0  0
   56.1464   45.8273   29.0206 C   0  0  0  0  0  0
   54.8081   45.6454   29.7390 C   0  0  0  0  0  0
   53.9296   46.6048   29.3389 O   0  0  0  0  0  0
   54.5545   44.7599   30.5521 O   0  0  0  0  0  0
   62.4079   47.6745   28.5398 O   0  0  0  0  0  0
   62.5997   48.4732   27.3800 C   0  0  0  0  0  0
   62.1764   48.2474   34.5698 C   0  0  0  0  0  0
   63.4258   44.6811   29.0886 C   0  0  0  0  0  0
   60.8642   47.6566   35.1240 C   0  0  0  0  0  0
   62.0343   49.3931   33.5305 C   0  0  0  0  0  0
   65.9003   45.9671   35.7013 H   0  0  0  0  0  0
   64.6111   44.8502   35.3087 H   0  0  0  0  0  0
   67.1675   44.4524   34.1407 H   0  0  0  0  0  0
   65.7630   43.5740   33.5049 H   0  0  0  0  0  0
   66.8509   44.4770   32.4261 H   0  0  0  0  0  0
   67.4117   46.8800   33.7390 H   0  0  0  0  0  0
   66.7280   46.8770   32.1465 H   0  0  0  0  0  0
   66.0108   47.9231   33.3948 H   0  0  0  0  0  0
   65.2491   44.6899   31.0068 H   0  0  0  0  0  0
   61.2165   47.1201   32.4128 H   0  0  0  0  0  0
   59.6090   45.2770   31.1782 H   0  0  0  0  0  0
   58.1394   46.4770   27.4033 H   0  0  0  0  0  0
   60.2154   47.6260   26.9036 H   0  0  0  0  0  0
   57.2523   45.2591   30.8085 H   0  0  0  0  0  0
   57.4276   44.1283   29.4874 H   0  0  0  0  0  0
   56.0503   45.4393   28.0060 H   0  0  0  0  0  0
   56.3237   46.8981   28.9385 H   0  0  0  0  0  0
   54.3452   47.1844   28.6962 H   0  0  0  0  0  0
   63.5939   48.9177   27.4098 H   0  0  0  0  0  0
   62.5297   47.8779   26.4703 H   0  0  0  0  0  0
   61.8738   49.2861   27.3393 H   0  0  0  0  0  0
   62.5177   48.8110   35.4408 H   0  0  0  0  0  0
   64.4018   44.2197   28.9427 H   0  0  0  0  0  0
   62.6541   43.9196   28.9743 H   0  0  0  0  0  0
   63.3053   45.3943   28.2762 H   0  0  0  0  0  0
   60.1459   48.4454   35.3394 H   0  0  0  0  0  0
   60.3888   46.9491   34.4464 H   0  0  0  0  0  0
   61.0425   47.1533   36.0751 H   0  0  0  0  0  0
   61.2084   50.0771   33.7388 H   0  0  0  0  0  0
   62.8999   50.0393   33.6520 H   0  0  0  0  0  0
   61.9927   49.1101   32.4822 H   0  0  0  0  0  0
  1  5  2  0  0  0
  1  2  1  0  0  0
  1  4  1  0  0  0
  2  3  1  0  0  0
  2 31  1  0  0  0
  2 32  1  0  0  0
  3  7  1  0  0  0
  3  9  1  0  0  0
  3  6  1  0  0  0
  4  8  1  0  0  0
  4 27  1  0  0  0
  6 33  1  0  0  0
  6 34  1  0  0  0
  6 35  1  0  0  0
  7 36  1  0  0  0
  7 37  1  0  0  0
  7 38  1  0  0  0
  8  9  2  0  0  0
  8 13  1  0  0  0
  9 10  1  0  0  0
 10 11  2  0  0  0
 10 39  1  0  0  0
 11 12  1  0  0  0
 11 28  1  0  0  0
 12 14  1  0  0  0
 12 13  2  0  0  0
 13 40  1  0  0  0
 14 15  2  0  0  0
 14 19  1  0  0  0
 15 16  1  0  0  0
 15 41  1  0  0  0
 16 17  2  0  0  0
 16 20  1  0  0  0
 17 18  1  0  0  0
 17 42  1  0  0  0
 18 19  2  0  0  0
 18 43  1  0  0  0
 19 25  1  0  0  0
 20 21  1  0  0  0
 20 44  1  0  0  0
 20 45  1  0  0  0
 21 22  1  0  0  0
 21 46  1  0  0  0
 21 47  1  0  0  0
 22 23  1  0  0  0
 22 24  2  0  0  0
 23 48  1  0  0  0
 25 26  1  0  0  0
 26 49  1  0  0  0
 26 50  1  0  0  0
 26 51  1  0  0  0
 27 29  1  0  0  0
 27 30  1  0  0  0
 27 52  1  0  0  0
 28 53  1  0  0  0
 28 54  1  0  0  0
 28 55  1  0  0  0
 29 56  1  0  0  0
 29 57  1  0  0  0
 29 58  1  0  0  0
 30 59  1  0  0  0
 30 60  1  0  0  0
 30 61  1  0  0  0
M  END
> <s_m_entry_id>
30923

> <s_m_entry_name>
dock_pv.136

> <s_m_Source_Path>
/home/csk/Desktop/cluster/DUD-E-result/rxra

> <s_m_Source_File>
dock_pv.maegz

> <i_m_Source_File_Index>
136

> <chembl_id>
CHEMBL428406

> <chembl_pref_name>
None

> <i_lp_mmshare_version>
53161

> <r_lp_tautomer_probability>
1

> <s_lp_Force_Field>
OPLS_2005

> <r_lp_Energy>
42.249058

> <b_lp_Chiralities_Consistent>
1

> <s_lp_Variant>
CHEMBL2061_lig447-1

> <s_i_glide_gridfile>
glide-grid_1mv9

> <i_i_glide_lignum>
523

> <i_i_glide_rotatable_bonds>
7

> <r_i_docking_score>
-10.8587078614198

> <r_i_glide_ligand_efficiency>
-0.361956928713994

> <r_i_glide_ligand_efficiency_sa>
-1.12468433338026

> <r_i_glide_ligand_efficiency_ln>
-2.46721674121303

> <r_i_glide_gscore>
-10.8587078614198

> <r_i_glide_lipo>
-5.87998877337786

> <r_i_glide_hbond>
-0.0911053301014143

> <r_i_glide_metal>
0

> <r_i_glide_rewards>
-2.53419779999799

> <r_i_glide_evdw>
-45.4614524841309

> <r_i_glide_ecoul>
-3.66676163673401

> <r_i_glide_erotb>
0.469670911774074

> <r_i_glide_esite>
0

> <r_i_glide_emodel>
-70.6726900735876

> <r_i_glide_energy>
-49.1282141208649

> <r_i_glide_einternal>
5.23252010345459

> <i_i_glide_confnum>
15

> <i_i_glide_posenum>
122

> <r_i_glide_eff_state_penalty>
0

> <s_user_duplicate_titles>
CHEMBL2061_lig447,414665

> <i_f3d_flags>
0

> <s_m_subgroup_title>
dock_pv

> <s_m_subgroupid>
dock_pv

> <b_m_subgroup_collapsed>
1

$$$$
CHEMBL2061_lig343
                    3D
 Schrodinger Suite 2021-1.
 67 69  0  0  1  0            999 V2000
   62.5908   46.8597   30.9161 C   0  0  0  0  0  0
   58.4950   46.0085   29.0547 C   0  0  0  0  0  0
   60.7024   46.7067   29.2000 C   0  0  0  0  0  0
   59.6110   46.0587   29.8869 C   0  0  0  0  0  0
   58.9181   46.4752   27.8409 N   0  0  0  0  0  0
   63.9019   46.4151   31.1884 C   0  0  0  0  0  0
   62.0356   47.0833   29.5284 C   0  0  0  0  0  0
   64.3101   46.1098   32.5016 C   0  0  0  0  0  0
   60.1949   46.9849   27.8996 C   0  0  0  0  0  0
   61.7596   47.0843   32.0196 C   0  0  0  0  0  0
   57.0874   45.6467   29.2959 C   0  0  0  0  0  0
   63.4310   46.3244   33.5560 C   0  0  0  0  0  0
   62.1501   46.8026   33.3289 C   0  0  0  0  0  0
   56.7146   45.2405   30.5252 C   0  0  0  0  0  0
   55.3608   45.0536   30.9523 C   0  0  0  0  0  0
   54.4486   44.4755   30.3670 O   0  0  0  0  0  0
   65.6637   45.4662   32.8246 C   0  0  0  0  0  0
   61.2298   47.1181   34.5005 C   0  0  0  0  0  0
   64.8115   46.2159   30.1871 O   0  0  0  0  0  0
   55.2080   45.6770   32.1392 O   0  0  0  0  0  0
   62.7924   47.6522   28.4853 C   0  0  0  0  0  0
   60.9382   47.6691   26.9397 C   0  0  0  0  0  0
   56.1111   45.8325   28.1247 C   0  0  0  0  0  0
   62.2515   47.9618   27.2522 C   0  0  0  0  0  0
   65.4708   44.1316   33.5810 C   0  0  0  0  0  0
   66.5624   46.4313   33.6083 C   0  0  0  0  0  0
   64.6338   45.0716   29.3728 C   0  0  0  0  0  0
   61.6170   48.4775   35.0501 C   0  0  0  0  0  0
   61.2057   46.0769   35.6260 C   0  0  0  0  0  0
   64.1883   43.7911   30.1028 C   0  0  0  0  0  0
   63.3352   42.8770   29.2415 C   0  0  0  0  0  0
   62.0073   43.4379   28.7420 C   0  0  0  0  0  0
   59.6233   45.7072   30.9075 H   0  0  0  0  0  0
   58.2970   46.5392   27.0491 H   0  0  0  0  0  0
   60.7922   47.5117   31.8585 H   0  0  0  0  0  0
   63.7670   46.1330   34.5625 H   0  0  0  0  0  0
   57.4512   45.0968   31.3009 H   0  0  0  0  0  0
   66.1802   45.2249   31.8957 H   0  0  0  0  0  0
   60.2056   47.1554   34.1361 H   0  0  0  0  0  0
   56.0164   46.1094   32.4224 H   0  0  0  0  0  0
   63.8437   47.8580   28.5391 H   0  0  0  0  0  0
   60.5528   47.9131   25.9656 H   0  0  0  0  0  0
   56.4082   45.2875   27.2409 H   0  0  0  0  0  0
   55.1009   45.4946   28.3211 H   0  0  0  0  0  0
   56.0077   46.8767   27.8683 H   0  0  0  0  0  0
   62.8840   48.4222   26.5054 H   0  0  0  0  0  0
   64.8010   43.4618   33.0407 H   0  0  0  0  0  0
   66.4074   43.6042   33.7126 H   0  0  0  0  0  0
   65.0563   44.2767   34.5789 H   0  0  0  0  0  0
   66.7772   47.3283   33.0288 H   0  0  0  0  0  0
   66.0799   46.7400   34.5365 H   0  0  0  0  0  0
   67.5126   45.9681   33.8708 H   0  0  0  0  0  0
   63.9741   45.3127   28.5402 H   0  0  0  0  0  0
   65.6094   44.8909   28.9403 H   0  0  0  0  0  0
   61.6172   49.1988   34.2274 H   0  0  0  0  0  0
   60.9074   48.8170   35.8058 H   0  0  0  0  0  0
   62.6108   48.4704   35.4989 H   0  0  0  0  0  0
   60.5395   45.2765   35.3426 H   0  0  0  0  0  0
   62.1808   45.6709   35.8841 H   0  0  0  0  0  0
   60.8077   46.5095   36.5388 H   0  0  0  0  0  0
   65.0710   43.2523   30.4499 H   0  0  0  0  0  0
   63.6075   43.9855   31.0024 H   0  0  0  0  0  0
   63.9142   42.4771   28.4114 H   0  0  0  0  0  0
   63.0725   42.0707   29.9091 H   0  0  0  0  0  0
   61.3437   42.5929   28.5385 H   0  0  0  0  0  0
   61.5238   44.0620   29.4918 H   0  0  0  0  0  0
   62.1090   44.0280   27.8312 H   0  0  0  0  0  0
  1  6  1  0  0  0
  1  7  1  0  0  0
  1 10  2  0  0  0
  2  4  2  0  0  0
  2 11  1  0  0  0
  2  5  1  0  0  0
  3  7  1  0  0  0
  3  4  1  0  0  0
  3  9  2  0  0  0
  4 33  1  0  0  0
  5  9  1  0  0  0
  5 34  1  0  0  0
  6  8  2  0  0  0
  6 19  1  0  0  0
  7 21  2  0  0  0
  8 17  1  0  0  0
  8 12  1  0  0  0
  9 22  1  0  0  0
 10 13  1  0  0  0
 10 35  1  0  0  0
 11 14  2  0  0  0
 11 23  1  0  0  0
 12 13  2  0  0  0
 12 36  1  0  0  0
 13 18  1  0  0  0
 14 15  1  0  0  0
 14 37  1  0  0  0
 15 16  2  0  0  0
 15 20  1  0  0  0
 17 25  1  0  0  0
 17 26  1  0  0  0
 17 38  1  0  0  0
 18 28  1  0  0  0
 18 29  1  0  0  0
 18 39  1  0  0  0
 19 27  1  0  0  0
 20 40  1  0  0  0
 21 24  1  0  0  0
 21 41  1  0  0  0
 22 24  2  0  0  0
 22 42  1  0  0  0
 23 43  1  0  0  0
 23 44  1  0  0  0
 23 45  1  0  0  0
 24 46  1  0  0  0
 25 47  1  0  0  0
 25 48  1  0  0  0
 25 49  1  0  0  0
 26 50  1  0  0  0
 26 51  1  0  0  0
 26 52  1  0  0  0
 27 30  1  0  0  0
 27 53  1  0  0  0
 27 54  1  0  0  0
 28 55  1  0  0  0
 28 56  1  0  0  0
 28 57  1  0  0  0
 29 58  1  0  0  0
 29 59  1  0  0  0
 29 60  1  0  0  0
 30 31  1  0  0  0
 30 61  1  0  0  0
 30 62  1  0  0  0
 31 32  1  0  0  0
 31 63  1  0  0  0
 31 64  1  0  0  0
 32 65  1  0  0  0
 32 66  1  0  0  0
 32 67  1  0  0  0
M  END
> <s_m_entry_id>
30924

> <s_m_entry_name>
dock_pv.137

> <s_m_Source_Path>
/home/csk/Desktop/cluster/DUD-E-result/rxra

> <s_m_Source_File>
dock_pv.maegz

> <i_m_Source_File_Index>
137

> <chembl_id>
CHEMBL93128

> <chembl_pref_name>
None

> <i_lp_mmshare_version>
53161

> <r_lp_tautomer_probability>
1

> <s_lp_Force_Field>
OPLS_2005

> <r_lp_Energy>
28.478287

> <b_lp_Chiralities_Consistent>
1

> <s_lp_Variant>
CHEMBL2061_lig343-1

> <s_i_glide_gridfile>
glide-grid_1mv9

> <i_i_glide_lignum>
403

> <i_i_glide_rotatable_bonds>
10

> <r_i_docking_score>
-10.8553267366279

> <r_i_glide_ligand_efficiency>
-0.339228960519623

> <r_i_glide_ligand_efficiency_sa>
-1.07698481632968

> <r_i_glide_ligand_efficiency_ln>
-2.43080356136205

> <r_i_glide_gscore>
-10.8553267366279

> <r_i_glide_lipo>
-7.254098446321

> <r_i_glide_hbond>
-0.202080877825454

> <r_i_glide_metal>
0

> <r_i_glide_rewards>
-1.52823501526857

> <r_i_glide_evdw>
-42.5228309631348

> <r_i_glide_ecoul>
-2.53444290161133

> <r_i_glide_erotb>
0.635395586185514

> <r_i_glide_esite>
0

> <r_i_glide_emodel>
-51.5415670837065

> <r_i_glide_energy>
-45.0572738647461

> <r_i_glide_einternal>
9.51345348358154

> <i_i_glide_confnum>
38

> <i_i_glide_posenum>
280

> <r_i_glide_eff_state_penalty>
0

> <s_user_duplicate_titles>
CHEMBL2061_lig343

> <i_f3d_flags>
0

> <s_m_subgroup_title>
dock_pv

> <s_m_subgroupid>
dock_pv

> <b_m_subgroup_collapsed>
1

$$$$
CHEMBL2061_lig398
                    3D
 Schrodinger Suite 2021-1.
 54 57  0  0  1  0            999 V2000
   60.4316   45.8644   29.2517 C   0  0  0  0  0  0
   58.1672   45.8649   29.3262 C   0  0  0  0  0  0
   59.3049   45.2773   29.8488 C   0  0  0  0  0  0
   59.9138   46.8753   28.4629 C   0  0  0  0  0  0
   58.5593   46.8774   28.5242 O   0  0  0  0  0  0
   63.8387   45.6540   32.7447 C   0  0  0  0  0  0
   63.0459   46.5700   33.4853 C   0  0  0  0  0  0
   61.9396   45.6439   29.4020 C   0  0  2  0  0  0
   63.5090   45.4299   31.3933 C   0  0  0  0  0  0
   62.4427   46.0832   30.7755 C   0  0  0  0  0  0
   56.7618   45.5945   29.4719 C   0  0  0  0  0  0
   65.0085   44.8708   33.3757 C   0  0  0  0  0  0
   63.2016   46.8050   35.0018 C   0  0  0  0  0  0
   62.1137   47.3361   32.7868 C   0  0  0  0  0  0
   61.8037   47.1051   31.4640 C   0  0  0  0  0  0
   55.8822   46.2673   28.9367 O   0  0  0  0  0  0
   65.2542   45.2845   34.8527 C   0  0  0  0  0  0
   63.9820   45.6254   35.6352 C   0  0  0  0  0  0
   56.5217   44.5095   30.2638 O   0  0  0  0  0  0
   60.6820   47.8540   27.5919 C   0  0  0  0  0  0
   62.6824   46.3521   28.2328 C   0  0  0  0  0  0
   64.6702   43.3587   33.3399 C   0  0  0  0  0  0
   66.3004   45.2305   32.6103 C   0  0  0  0  0  0
   64.0083   48.1017   35.1682 C   0  0  0  0  0  0
   61.8158   46.9078   35.7195 C   0  0  0  0  0  0
   62.1811   47.7928   27.9781 C   0  0  0  0  0  0
   59.3139   44.4540   30.5370 H   0  0  0  0  0  0
   62.1372   44.5724   29.3438 H   0  0  0  0  0  0
   64.0488   44.6811   30.8345 H   0  0  0  0  0  0
   61.6070   48.1226   33.3011 H   0  0  0  0  0  0
   61.0179   47.6845   31.0039 H   0  0  0  0  0  0
   65.9295   46.1368   34.9153 H   0  0  0  0  0  0
   65.7899   44.4881   35.3589 H   0  0  0  0  0  0
   64.2383   45.8527   36.6703 H   0  0  0  0  0  0
   63.3586   44.7328   35.6767 H   0  0  0  0  0  0
   57.3313   44.0858   30.5506 H   0  0  0  0  0  0
   60.5616   47.5930   26.5420 H   0  0  0  0  0  0
   60.3216   48.8740   27.7247 H   0  0  0  0  0  0
   62.5519   45.7713   27.3198 H   0  0  0  0  0  0
   63.7572   46.3599   28.4251 H   0  0  0  0  0  0
   65.4912   42.7654   33.7399 H   0  0  0  0  0  0
   63.7793   43.1259   33.9236 H   0  0  0  0  0  0
   64.4939   42.9951   32.3276 H   0  0  0  0  0  0
   67.1704   44.7778   33.0862 H   0  0  0  0  0  0
   66.2806   44.8786   31.5778 H   0  0  0  0  0  0
   66.4699   46.3077   32.5813 H   0  0  0  0  0  0
   64.2591   48.2915   36.2137 H   0  0  0  0  0  0
   64.9372   48.0710   34.5968 H   0  0  0  0  0  0
   63.4520   48.9692   34.8120 H   0  0  0  0  0  0
   61.8620   47.6285   36.5375 H   0  0  0  0  0  0
   60.9942   47.2500   35.0968 H   0  0  0  0  0  0
   61.4834   45.9567   36.1382 H   0  0  0  0  0  0
   62.7784   48.2650   27.1955 H   0  0  0  0  0  0
   62.3506   48.3904   28.8746 H   0  0  0  0  0  0
  1  3  1  0  0  0
  1  4  2  0  0  0
  1  8  1  0  0  0
  2  3  2  0  0  0
  2 11  1  0  0  0
  2  5  1  0  0  0
  3 27  1  0  0  0
  4  5  1  0  0  0
  4 20  1  0  0  0
  6  9  2  0  0  0
  6 12  1  0  0  0
  6  7  1  0  0  0
  7 14  2  0  0  0
  7 13  1  0  0  0
  8 10  1  0  0  0
  8 21  1  0  0  0
  8 28  1  0  0  0
  9 10  1  0  0  0
  9 29  1  0  0  0
 10 15  2  0  0  0
 11 16  2  0  0  0
 11 19  1  0  0  0
 12 17  1  0  0  0
 12 22  1  0  0  0
 12 23  1  0  0  0
 13 18  1  0  0  0
 13 24  1  0  0  0
 13 25  1  0  0  0
 14 15  1  0  0  0
 14 30  1  0  0  0
 15 31  1  0  0  0
 17 18  1  0  0  0
 17 32  1  0  0  0
 17 33  1  0  0  0
 18 34  1  0  0  0
 18 35  1  0  0  0
 19 36  1  0  0  0
 20 26  1  0  0  0
 20 37  1  0  0  0
 20 38  1  0  0  0
 21 26  1  0  0  0
 21 39  1  0  0  0
 21 40  1  0  0  0
 22 41  1  0  0  0
 22 42  1  0  0  0
 22 43  1  0  0  0
 23 44  1  0  0  0
 23 45  1  0  0  0
 23 46  1  0  0  0
 24 47  1  0  0  0
 24 48  1  0  0  0
 24 49  1  0  0  0
 25 50  1  0  0  0
 25 51  1  0  0  0
 25 52  1  0  0  0
 26 53  1  0  0  0
 26 54  1  0  0  0
M  END
> <s_m_entry_id>
30925

> <s_m_entry_name>
dock_pv.138

> <s_m_Source_Path>
/home/csk/Desktop/cluster/DUD-E-result/rxra

> <s_m_Source_File>
dock_pv.maegz

> <i_m_Source_File_Index>
138

> <chembl_id>
CHEMBL60089

> <chembl_pref_name>
None

> <i_lp_mmshare_version>
53161

> <r_lp_tautomer_probability>
1

> <s_lp_Force_Field>
OPLS_2005

> <r_lp_Energy>
23.45562

> <b_lp_Chiralities_Consistent>
1

> <s_lp_Variant>
CHEMBL2061_lig398-1

> <s_i_glide_gridfile>
glide-grid_1mv9

> <i_i_glide_lignum>
465

> <i_i_glide_rotatable_bonds>
3

> <r_i_docking_score>
-10.8488883288031

> <r_i_glide_ligand_efficiency>
-0.417264935723195

> <r_i_glide_ligand_efficiency_sa>
-1.23614573022172

> <r_i_glide_ligand_efficiency_ln>
-2.54782582591328

> <r_i_glide_gscore>
-10.8488883288031

> <r_i_glide_lipo>
-6.21167870894735

> <r_i_glide_hbond>
0

> <r_i_glide_metal>
0

> <r_i_glide_rewards>
-2.35590940909091

> <r_i_glide_evdw>
-49.0531921386719

> <r_i_glide_ecoul>
-0.905935704708099

> <r_i_glide_erotb>
0.307249751875004

> <r_i_glide_esite>
0

> <r_i_glide_emodel>
-72.5992672228814

> <r_i_glide_energy>
-49.95912784338

> <r_i_glide_einternal>
0.58008086681366

> <i_i_glide_confnum>
28

> <i_i_glide_posenum>
122

> <r_i_glide_eff_state_penalty>
0

> <s_user_duplicate_titles>
CHEMBL2061_lig398

> <i_f3d_flags>
0

> <s_m_subgroup_title>
dock_pv

> <s_m_subgroupid>
dock_pv

> <b_m_subgroup_collapsed>
1

$$$$
CHEMBL2061_lig108
                    3D
 Schrodinger Suite 2021-1.
 61 61  0  0  1  0            999 V2000
   62.2430   47.7752   27.9161 C   0  0  0  0  0  0
   62.7444   47.2707   29.2809 C   0  0  0  0  0  0
   62.5291   47.0192   31.7067 C   0  0  0  0  0  0
   60.7376   47.5386   27.6966 C   0  0  0  0  0  0
   63.6291   46.1284   31.7163 C   0  0  0  0  0  0
   64.2402   45.7861   30.4955 C   0  0  0  0  0  0
   62.1437   47.6237   30.4976 C   0  0  0  0  0  0
   63.7914   46.3597   29.3101 C   0  0  0  0  0  0
   61.6931   47.2659   32.9148 C   0  0  0  0  0  0
   56.2287   45.2773   31.2153 C   0  0  0  0  0  0
   55.2068   44.9629   30.2402 C   0  0  0  0  0  0
   59.6957   46.0770   32.0153 C   0  0  0  0  0  0
   57.5769   45.1939   31.0617 C   0  0  0  0  0  0
   60.4559   46.7376   33.0602 C   0  0  0  0  0  0
   58.4068   45.6950   32.1538 C   0  0  0  0  0  0
   54.0909   44.5458   30.5393 O   0  0  0  0  0  0
   62.5677   49.0523   27.7390 F   0  0  0  0  0  0
   62.8932   47.1377   26.9390 F   0  0  0  0  0  0
   60.4080   48.0769   26.5374 F   0  0  0  0  0  0
   60.4454   46.2395   27.6449 F   0  0  0  0  0  0
   59.9375   48.0770   28.6137 F   0  0  0  0  0  0
   65.3160   44.7146   30.3429 C   0  0  0  0  0  0
   64.0073   45.4633   32.8637 O   0  0  0  0  0  0
   55.5657   45.2757   28.9640 O   0  0  0  0  0  0
   62.2114   48.2434   33.9629 C   0  0  0  0  0  0
   58.2476   44.6020   29.8280 C   0  0  0  0  0  0
   64.7294   43.2937   30.4498 C   0  0  0  0  0  0
   66.5841   44.9222   31.1578 C   0  0  0  0  0  0
   64.9180   46.1227   33.7492 C   0  0  0  0  0  0
   64.8178   45.4490   35.1331 C   0  0  0  0  0  0
   63.4093   45.4841   35.7595 C   0  0  0  0  0  0
   63.2086   44.5013   36.9190 C   0  0  0  0  0  0
   61.3193   48.3202   30.5089 H   0  0  0  0  0  0
   64.2583   46.0612   28.3833 H   0  0  0  0  0  0
   55.8143   45.6406   32.1447 H   0  0  0  0  0  0
   60.1756   45.9259   31.0599 H   0  0  0  0  0  0
   59.9506   46.8769   34.0055 H   0  0  0  0  0  0
   57.9446   45.8329   33.1223 H   0  0  0  0  0  0
   65.7049   44.8630   29.3390 H   0  0  0  0  0  0
   56.4659   45.6034   28.9347 H   0  0  0  0  0  0
   62.4885   49.1848   33.4881 H   0  0  0  0  0  0
   61.4497   48.4744   34.7080 H   0  0  0  0  0  0
   63.0522   47.8866   34.5309 H   0  0  0  0  0  0
   59.1494   44.0769   30.1387 H   0  0  0  0  0  0
   57.6380   43.8434   29.3392 H   0  0  0  0  0  0
   58.5441   45.3783   29.1243 H   0  0  0  0  0  0
   63.8534   43.1785   29.8094 H   0  0  0  0  0  0
   65.4487   42.5364   30.1387 H   0  0  0  0  0  0
   64.4192   43.0643   31.4706 H   0  0  0  0  0  0
   66.8069   45.9817   31.2689 H   0  0  0  0  0  0
   66.5240   44.4770   32.1474 H   0  0  0  0  0  0
   67.4301   44.4769   30.6349 H   0  0  0  0  0  0
   65.9438   46.0300   33.4121 H   0  0  0  0  0  0
   64.7835   47.1987   33.7928 H   0  0  0  0  0  0
   65.1360   44.4114   35.0207 H   0  0  0  0  0  0
   65.5326   45.9091   35.8146 H   0  0  0  0  0  0
   63.1965   46.4851   36.1317 H   0  0  0  0  0  0
   62.6680   45.2777   34.9905 H   0  0  0  0  0  0
   62.1629   44.4761   37.2249 H   0  0  0  0  0  0
   63.5126   43.4871   36.6591 H   0  0  0  0  0  0
   63.7787   44.8382   37.7799 H   0  0  0  0  0  0
  1  2  1  0  0  0
  1  4  1  0  0  0
  1 17  1  0  0  0
  1 18  1  0  0  0
  2  7  1  0  0  0
  2  8  2  0  0  0
  3  7  2  0  0  0
  3  9  1  0  0  0
  3  5  1  0  0  0
  4 19  1  0  0  0
  4 20  1  0  0  0
  4 21  1  0  0  0
  5  6  2  0  0  0
  5 23  1  0  0  0
  6  8  1  0  0  0
  6 22  1  0  0  0
  7 33  1  0  0  0
  8 34  1  0  0  0
  9 14  2  0  0  0
  9 25  1  0  0  0
 10 13  2  0  0  0
 10 11  1  0  0  0
 10 35  1  0  0  0
 11 16  2  0  0  0
 11 24  1  0  0  0
 12 14  1  0  0  0
 12 15  2  0  0  0
 12 36  1  0  0  0
 13 15  1  0  0  0
 13 26  1  0  0  0
 14 37  1  0  0  0
 15 38  1  0  0  0
 22 27  1  0  0  0
 22 28  1  0  0  0
 22 39  1  0  0  0
 23 29  1  0  0  0
 24 40  1  0  0  0
 25 41  1  0  0  0
 25 42  1  0  0  0
 25 43  1  0  0  0
 26 44  1  0  0  0
 26 45  1  0  0  0
 26 46  1  0  0  0
 27 47  1  0  0  0
 27 48  1  0  0  0
 27 49  1  0  0  0
 28 50  1  0  0  0
 28 51  1  0  0  0
 28 52  1  0  0  0
 29 30  1  0  0  0
 29 53  1  0  0  0
 29 54  1  0  0  0
 30 31  1  0  0  0
 30 55  1  0  0  0
 30 56  1  0  0  0
 31 32  1  0  0  0
 31 57  1  0  0  0
 31 58  1  0  0  0
 32 59  1  0  0  0
 32 60  1  0  0  0
 32 61  1  0  0  0
M  END
> <s_m_entry_id>
30926

> <s_m_entry_name>
dock_pv.139

> <s_m_Source_Path>
/home/csk/Desktop/cluster/DUD-E-result/rxra

> <s_m_Source_File>
dock_pv.maegz

> <i_m_Source_File_Index>
139

> <chembl_id>
CHEMBL424269

> <chembl_pref_name>
None

> <i_lp_mmshare_version>
53161

> <r_lp_tautomer_probability>
1

> <s_lp_Force_Field>
OPLS_2005

> <r_lp_Energy>
26.599775

> <b_lp_Chiralities_Consistent>
1

> <s_lp_Variant>
CHEMBL2061_lig108-1

> <s_i_glide_gridfile>
glide-grid_1mv9

> <i_i_glide_lignum>
147

> <i_i_glide_rotatable_bonds>
12

> <r_i_docking_score>
-10.8421446839752

> <r_i_glide_ligand_efficiency>
-0.338817021374226

> <r_i_glide_ligand_efficiency_sa>
-1.07567699106569

> <r_i_glide_ligand_efficiency_ln>
-2.42785174044393

> <r_i_glide_gscore>
-10.8421446839752

> <r_i_glide_lipo>
-5.09869849692627

> <r_i_glide_hbond>
-0.32

> <r_i_glide_metal>
0

> <r_i_glide_rewards>
-3.37089920262526

> <r_i_glide_evdw>
-41.2135925292969

> <r_i_glide_ecoul>
-5.00867366790771

> <r_i_glide_erotb>
0.759433692227288

> <r_i_glide_esite>
0

> <r_i_glide_emodel>
-61.9229941262452

> <r_i_glide_energy>
-46.2222661972046

> <r_i_glide_einternal>
4.91255378723145

> <i_i_glide_confnum>
63

> <i_i_glide_posenum>
108

> <r_i_glide_eff_state_penalty>
0

> <s_user_duplicate_titles>
CHEMBL2061_lig108,217452

> <i_f3d_flags>
0

> <s_m_subgroup_title>
dock_pv

> <s_m_subgroupid>
dock_pv

> <b_m_subgroup_collapsed>
1

$$$$
CHEMBL2061_lig268
                    3D
 Schrodinger Suite 2021-1.
 51 53  0  0  1  0            999 V2000
   62.7652   46.4721   32.7395 C   0  0  0  0  0  0
   63.9002   45.7290   32.3060 C   0  0  0  0  0  0
   61.7942   46.8185   31.7784 C   0  0  0  0  0  0
   61.8468   46.3833   30.4500 C   0  0  0  0  0  0
   60.7707   46.6808   29.4624 C   0  0  0  0  0  0
   62.5500   46.8749   34.2245 C   0  0  0  0  0  0
   65.0121   45.2559   33.2760 C   0  0  0  0  0  0
   55.2713   44.9373   30.3108 C   0  0  0  0  0  0
   63.9694   45.3524   30.9540 C   0  0  0  0  0  0
   59.3843   46.1165   29.6491 C   0  0  0  0  0  0
   56.7091   45.2766   30.0496 C   0  0  0  0  0  0
   62.9654   45.6606   30.0462 C   0  0  0  0  0  0
   63.5275   46.1206   35.1683 C   0  0  0  0  0  0
   64.9468   46.0376   34.6112 C   0  0  0  0  0  0
   54.6995   45.2771   31.3390 O   0  0  0  0  0  0
   61.1047   47.4393   28.3949 C   0  0  0  0  0  0
   58.9326   45.6770   30.8999 C   0  0  0  0  0  0
   58.4621   46.0795   28.5893 C   0  0  0  0  0  0
   57.1405   45.6776   28.7846 C   0  0  0  0  0  0
   57.6195   45.2770   31.1048 C   0  0  0  0  0  0
   54.6571   44.2173   29.3390 O   0  0  0  0  0  0
   62.8081   48.3877   34.3834 C   0  0  0  0  0  0
   61.1209   46.4806   34.6733 C   0  0  0  0  0  0
   64.8079   43.7442   33.5526 C   0  0  0  0  0  0
   66.4080   45.5601   32.6881 C   0  0  0  0  0  0
   60.9471   47.4118   32.0859 H   0  0  0  0  0  0
   64.8020   44.7666   30.5958 H   0  0  0  0  0  0
   63.0545   45.3162   29.0258 H   0  0  0  0  0  0
   63.1831   45.1074   35.3680 H   0  0  0  0  0  0
   63.5520   46.5993   36.1482 H   0  0  0  0  0  0
   65.6034   45.5761   35.3507 H   0  0  0  0  0  0
   65.3339   47.0493   34.4823 H   0  0  0  0  0  0
   62.1108   47.8171   28.2784 H   0  0  0  0  0  0
   60.4028   47.7114   27.6223 H   0  0  0  0  0  0
   59.5726   45.6776   31.7650 H   0  0  0  0  0  0
   58.7523   46.3855   27.5966 H   0  0  0  0  0  0
   56.4596   45.7078   27.9451 H   0  0  0  0  0  0
   57.3199   45.0072   32.1054 H   0  0  0  0  0  0
   55.2583   43.9014   28.6576 H   0  0  0  0  0  0
   62.6325   48.7079   35.4110 H   0  0  0  0  0  0
   63.8329   48.6624   34.1390 H   0  0  0  0  0  0
   62.1574   48.9788   33.7387 H   0  0  0  0  0  0
   61.0071   46.5397   35.7566 H   0  0  0  0  0  0
   60.3702   47.1465   34.2536 H   0  0  0  0  0  0
   60.8509   45.4710   34.3644 H   0  0  0  0  0  0
   65.5553   43.3610   34.2483 H   0  0  0  0  0  0
   63.8256   43.5201   33.9676 H   0  0  0  0  0  0
   64.8940   43.1576   32.6377 H   0  0  0  0  0  0
   67.1988   45.3540   33.4116 H   0  0  0  0  0  0
   66.6296   44.9507   31.8122 H   0  0  0  0  0  0
   66.4997   46.6065   32.3927 H   0  0  0  0  0  0
  1  2  2  0  0  0
  1  3  1  0  0  0
  1  6  1  0  0  0
  2  7  1  0  0  0
  2  9  1  0  0  0
  3  4  2  0  0  0
  3 26  1  0  0  0
  4  5  1  0  0  0
  4 12  1  0  0  0
  5 10  1  0  0  0
  5 16  2  0  0  0
  6 13  1  0  0  0
  6 22  1  0  0  0
  6 23  1  0  0  0
  7 24  1  0  0  0
  7 25  1  0  0  0
  7 14  1  0  0  0
  8 11  1  0  0  0
  8 15  2  0  0  0
  8 21  1  0  0  0
  9 12  2  0  0  0
  9 27  1  0  0  0
 10 17  2  0  0  0
 10 18  1  0  0  0
 11 19  1  0  0  0
 11 20  2  0  0  0
 12 28  1  0  0  0
 13 14  1  0  0  0
 13 29  1  0  0  0
 13 30  1  0  0  0
 14 31  1  0  0  0
 14 32  1  0  0  0
 16 33  1  0  0  0
 16 34  1  0  0  0
 17 20  1  0  0  0
 17 35  1  0  0  0
 18 19  2  0  0  0
 18 36  1  0  0  0
 19 37  1  0  0  0
 20 38  1  0  0  0
 21 39  1  0  0  0
 22 40  1  0  0  0
 22 41  1  0  0  0
 22 42  1  0  0  0
 23 43  1  0  0  0
 23 44  1  0  0  0
 23 45  1  0  0  0
 24 46  1  0  0  0
 24 47  1  0  0  0
 24 48  1  0  0  0
 25 49  1  0  0  0
 25 50  1  0  0  0
 25 51  1  0  0  0
M  END
> <s_m_entry_id>
30927

> <s_m_entry_name>
dock_pv.140

> <s_m_Source_Path>
/home/csk/Desktop/cluster/DUD-E-result/rxra

> <s_m_Source_File>
dock_pv.maegz

> <i_m_Source_File_Index>
140

> <chembl_id>
CHEMBL96184

> <chembl_pref_name>
None

> <i_lp_mmshare_version>
53161

> <r_lp_tautomer_probability>
1

> <s_lp_Force_Field>
OPLS_2005

> <r_lp_Energy>
28.022104

> <b_lp_Chiralities_Consistent>
1

> <s_lp_Variant>
CHEMBL2061_lig268-1

> <s_i_glide_gridfile>
glide-grid_1mv9

> <i_i_glide_lignum>
311

> <i_i_glide_rotatable_bonds>
4

> <r_i_docking_score>
-10.840845111152

> <r_i_glide_ligand_efficiency>
-0.43363380444608

> <r_i_glide_ligand_efficiency_sa>
-1.26795293472861

> <r_i_glide_ligand_efficiency_ln>
-2.56960516525529

> <r_i_glide_gscore>
-10.840845111152

> <r_i_glide_lipo>
-6.15204769194212

> <r_i_glide_hbond>
-0.0609926888844587

> <r_i_glide_metal>
0

> <r_i_glide_rewards>
-2.2988384392728

> <r_i_glide_evdw>
-44.2426528930664

> <r_i_glide_ecoul>
-4.15115833282471

> <r_i_glide_erotb>
0.505840103524395

> <r_i_glide_esite>
0

> <r_i_glide_emodel>
-71.6282361602157

> <r_i_glide_energy>
-48.3938112258911

> <r_i_glide_einternal>
12.7597408294678

> <i_i_glide_confnum>
34

> <i_i_glide_posenum>
285

> <r_i_glide_eff_state_penalty>
0

> <s_user_duplicate_titles>
CHEMBL2061_lig268,151357

> <i_f3d_flags>
0

> <s_m_subgroup_title>
dock_pv

> <s_m_subgroupid>
dock_pv

> <b_m_subgroup_collapsed>
1

$$$$
CHEMBL2061_lig272
                    3D
 Schrodinger Suite 2021-1.
 56 59  0  0  1  0            999 V2000
   61.4842   46.6638   29.2259 C   0  0  1  0  0  0
   62.9922   46.4714   32.7854 C   0  0  0  0  0  0
   64.1225   45.6340   32.5990 C   0  0  0  0  0  0
   62.4696   46.3238   30.3835 C   0  0  0  0  0  0
   62.2634   46.8708   31.6515 C   0  0  0  0  0  0
   62.5103   46.9244   34.1825 C   0  0  0  0  0  0
   65.0225   45.1765   33.7674 C   0  0  0  0  0  0
   55.8645   45.0630   29.9023 C   0  0  0  0  0  0
   62.0348   45.9209   27.6545 S   0  0  0  0  0  0
   64.3833   45.1591   31.3067 C   0  0  0  0  0  0
   59.9978   46.2723   29.4362 C   0  0  0  0  0  0
   61.5038   48.0763   29.0356 O   0  0  0  0  0  0
   57.2993   45.4869   29.7411 C   0  0  0  0  0  0
   63.5679   45.4692   30.2305 C   0  0  0  0  0  0
   63.3033   46.2423   35.3300 C   0  0  0  0  0  0
   64.7828   46.0634   35.0136 C   0  0  0  0  0  0
   55.3279   44.8653   30.9898 O   0  0  0  0  0  0
   59.0698   46.4762   28.4078 C   0  0  0  0  0  0
   59.5222   45.7309   30.6319 C   0  0  0  0  0  0
   58.2004   45.3293   30.7908 C   0  0  0  0  0  0
   57.7440   46.0769   28.5547 C   0  0  0  0  0  0
   55.2080   44.8843   28.7311 O   0  0  0  0  0  0
   62.7386   48.4436   34.3001 C   0  0  0  0  0  0
   61.0337   46.4842   34.3682 C   0  0  0  0  0  0
   64.6826   43.7021   34.0871 C   0  0  0  0  0  0
   66.5107   45.3656   33.4061 C   0  0  0  0  0  0
   62.5203   47.4834   26.9391 C   0  0  0  0  0  0
   62.4605   48.4766   28.0692 C   0  0  0  0  0  0
   61.4376   47.5557   31.7741 H   0  0  0  0  0  0
   65.2101   44.4894   31.1289 H   0  0  0  0  0  0
   63.8215   45.0113   29.2879 H   0  0  0  0  0  0
   62.8845   45.2690   35.5757 H   0  0  0  0  0  0
   63.2069   46.8184   36.2499 H   0  0  0  0  0  0
   65.2884   45.6433   35.8838 H   0  0  0  0  0  0
   65.2211   47.0515   34.8673 H   0  0  0  0  0  0
   59.3813   46.9243   27.4757 H   0  0  0  0  0  0
   60.1585   45.6768   31.4934 H   0  0  0  0  0  0
   57.8867   44.9181   31.7404 H   0  0  0  0  0  0
   57.0560   46.2209   27.7389 H   0  0  0  0  0  0
   54.3520   44.4894   28.8909 H   0  0  0  0  0  0
   62.4534   48.8095   35.2858 H   0  0  0  0  0  0
   63.7841   48.7104   34.1475 H   0  0  0  0  0  0
   62.1618   49.0040   33.5652 H   0  0  0  0  0  0
   60.6563   46.7762   35.3461 H   0  0  0  0  0  0
   60.3655   46.9170   33.6300 H   0  0  0  0  0  0
   60.9083   45.4065   34.2723 H   0  0  0  0  0  0
   65.2576   43.3444   34.9379 H   0  0  0  0  0  0
   63.6262   43.5520   34.3091 H   0  0  0  0  0  0
   64.9239   43.0466   33.2495 H   0  0  0  0  0  0
   67.1612   45.1377   34.2523 H   0  0  0  0  0  0
   66.8140   44.7038   32.5973 H   0  0  0  0  0  0
   66.7286   46.3879   33.0916 H   0  0  0  0  0  0
   61.8096   47.7405   26.1537 H   0  0  0  0  0  0
   63.5200   47.4027   26.5111 H   0  0  0  0  0  0
   62.1989   49.4766   27.7241 H   0  0  0  0  0  0
   63.4308   48.5751   28.5399 H   0  0  0  0  0  0
  1  4  1  0  0  0
  1  9  1  0  0  0
  1 11  1  0  0  0
  1 12  1  0  0  0
  2  5  1  0  0  0
  2  6  1  0  0  0
  2  3  2  0  0  0
  3 10  1  0  0  0
  3  7  1  0  0  0
  4  5  2  0  0  0
  4 14  1  0  0  0
  5 29  1  0  0  0
  6 15  1  0  0  0
  6 23  1  0  0  0
  6 24  1  0  0  0
  7 16  1  0  0  0
  7 25  1  0  0  0
  7 26  1  0  0  0
  8 13  1  0  0  0
  8 17  2  0  0  0
  8 22  1  0  0  0
  9 27  1  0  0  0
 10 14  2  0  0  0
 10 30  1  0  0  0
 11 18  2  0  0  0
 11 19  1  0  0  0
 12 28  1  0  0  0
 13 20  1  0  0  0
 13 21  2  0  0  0
 14 31  1  0  0  0
 15 16  1  0  0  0
 15 32  1  0  0  0
 15 33  1  0  0  0
 16 34  1  0  0  0
 16 35  1  0  0  0
 18 21  1  0  0  0
 18 36  1  0  0  0
 19 20  2  0  0  0
 19 37  1  0  0  0
 20 38  1  0  0  0
 21 39  1  0  0  0
 22 40  1  0  0  0
 23 41  1  0  0  0
 23 42  1  0  0  0
 23 43  1  0  0  0
 24 44  1  0  0  0
 24 45  1  0  0  0
 24 46  1  0  0  0
 25 47  1  0  0  0
 25 48  1  0  0  0
 25 49  1  0  0  0
 26 50  1  0  0  0
 26 51  1  0  0  0
 26 52  1  0  0  0
 27 28  1  0  0  0
 27 53  1  0  0  0
 27 54  1  0  0  0
 28 55  1  0  0  0
 28 56  1  0  0  0
M  END
> <s_m_entry_id>
30928

> <s_m_entry_name>
dock_pv.141

> <s_m_Source_Path>
/home/csk/Desktop/cluster/DUD-E-result/rxra

> <s_m_Source_File>
dock_pv.maegz

> <i_m_Source_File_Index>
141

> <chembl_id>
CHEMBL113975

> <chembl_pref_name>
None

> <i_lp_mmshare_version>
53161

> <r_lp_tautomer_probability>
1

> <s_lp_Force_Field>
OPLS_2005

> <r_lp_Energy>
39.158772

> <b_lp_Chiralities_Consistent>
1

> <s_lp_Variant>
CHEMBL2061_lig272-2

> <s_i_glide_gridfile>
glide-grid_1mv9

> <i_i_glide_lignum>
317

> <i_i_glide_rotatable_bonds>
4

> <r_i_docking_score>
-10.837848867516

> <r_i_glide_ligand_efficiency>
-0.387066030982715

> <r_i_glide_ligand_efficiency_sa>
-1.17536043976428

> <r_i_glide_ligand_efficiency_ln>
-2.50169373169267

> <r_i_glide_gscore>
-10.837848867516

> <r_i_glide_lipo>
-6.7537986566608

> <r_i_glide_hbond>
0

> <r_i_glide_metal>
0

> <r_i_glide_rewards>
-2.05538645454545

> <r_i_glide_evdw>
-50.1215553283691

> <r_i_glide_ecoul>
0.694199025630951

> <r_i_glide_erotb>
0.373284156264036

> <r_i_glide_esite>
0

> <r_i_glide_emodel>
-69.0980179550018

> <r_i_glide_energy>
-49.4273563027382

> <r_i_glide_einternal>
11.0501642227173

> <i_i_glide_confnum>
67

> <i_i_glide_posenum>
227

> <r_i_glide_eff_state_penalty>
0

> <s_user_duplicate_titles>
CHEMBL2061_lig272,187257

> <i_f3d_flags>
0

> <s_m_subgroup_title>
dock_pv

> <s_m_subgroupid>
dock_pv

> <b_m_subgroup_collapsed>
1

$$$$
CHEMBL2061_lig349
                    3D
 Schrodinger Suite 2021-1.
 67 69  0  0  1  0            999 V2000
   62.5471   46.9400   30.1277 C   0  0  0  0  0  0
   63.1525   46.8624   31.5009 C   0  0  0  0  0  0
   61.2048   46.5823   29.7317 C   0  0  0  0  0  0
   64.4052   46.2574   31.7389 C   0  0  0  0  0  0
   63.2098   47.1708   28.9364 C   0  0  0  0  0  0
   64.8341   45.9911   33.0547 C   0  0  0  0  0  0
   62.3640   47.1388   27.8748 N   0  0  0  0  0  0
   62.3860   47.2770   32.5878 C   0  0  0  0  0  0
   64.0585   46.4515   34.1157 C   0  0  0  0  0  0
   60.0693   46.0771   30.3923 C   0  0  0  0  0  0
   62.8461   47.1001   33.8915 C   0  0  0  0  0  0
   57.5868   45.5081   30.4321 C   0  0  0  0  0  0
   56.4496   45.1950   29.7432 C   0  0  0  0  0  0
   58.8464   45.9225   29.7080 C   0  0  0  0  0  0
   61.1265   46.7740   28.3268 C   0  0  0  0  0  0
   55.1527   44.8645   30.2859 C   0  0  0  0  0  0
   58.8408   46.1801   28.3260 C   0  0  0  0  0  0
   54.6829   45.2793   31.3390 O   0  0  0  0  0  0
   59.9741   46.5562   27.6101 C   0  0  0  0  0  0
   66.0463   45.0993   33.3718 C   0  0  0  0  0  0
   61.9748   47.4890   35.0662 C   0  0  0  0  0  0
   65.2045   45.9144   30.6776 O   0  0  0  0  0  0
   54.4384   44.0794   29.4352 O   0  0  0  0  0  0
   57.6595   45.4718   31.9684 C   0  0  0  0  0  0
   65.5845   43.7666   34.0030 C   0  0  0  0  0  0
   67.0843   45.7806   34.2509 C   0  0  0  0  0  0
   65.1610   44.5494   30.3142 C   0  0  0  0  0  0
   62.7261   48.2949   36.1357 C   0  0  0  0  0  0
   61.3488   46.2283   35.6642 C   0  0  0  0  0  0
   63.8536   44.1815   29.6045 C   0  0  0  0  0  0
   63.6058   42.7017   29.5513 C   0  0  0  0  0  0
   63.6113   42.0208   30.9401 C   0  0  0  0  0  0
   64.2660   47.2772   28.7413 H   0  0  0  0  0  0
   62.6672   47.2797   26.9221 H   0  0  0  0  0  0
   61.4192   47.7277   32.4176 H   0  0  0  0  0  0
   64.3690   46.2468   35.1292 H   0  0  0  0  0  0
   60.1564   45.8656   31.4441 H   0  0  0  0  0  0
   56.4376   45.1779   28.6684 H   0  0  0  0  0  0
   57.9456   46.0805   27.7396 H   0  0  0  0  0  0
   60.0063   46.6776   26.5423 H   0  0  0  0  0  0
   66.5969   44.8771   32.4614 H   0  0  0  0  0  0
   61.1798   48.1341   34.7035 H   0  0  0  0  0  0
   54.9377   43.7717   28.6708 H   0  0  0  0  0  0
   58.3334   46.2081   32.3952 H   0  0  0  0  0  0
   56.7149   45.6677   32.4649 H   0  0  0  0  0  0
   58.0090   44.4873   32.2777 H   0  0  0  0  0  0
   64.8445   43.2609   33.3879 H   0  0  0  0  0  0
   66.4083   43.0727   34.1387 H   0  0  0  0  0  0
   65.1272   43.9243   34.9781 H   0  0  0  0  0  0
   67.4822   46.6590   33.7390 H   0  0  0  0  0  0
   66.6648   46.0769   35.2100 H   0  0  0  0  0  0
   67.9185   45.1108   34.4613 H   0  0  0  0  0  0
   66.0560   44.3347   29.7389 H   0  0  0  0  0  0
   65.2265   43.9289   31.1950 H   0  0  0  0  0  0
   63.2716   49.1363   35.7119 H   0  0  0  0  0  0
   62.0080   48.6889   36.8542 H   0  0  0  0  0  0
   63.4382   47.6734   36.6798 H   0  0  0  0  0  0
   60.6845   45.7243   34.9618 H   0  0  0  0  0  0
   62.1150   45.5260   35.9896 H   0  0  0  0  0  0
   60.7846   46.4950   36.5407 H   0  0  0  0  0  0
   63.0043   44.5574   30.1570 H   0  0  0  0  0  0
   63.8251   44.6055   28.6015 H   0  0  0  0  0  0
   62.6557   42.5083   29.0533 H   0  0  0  0  0  0
   64.3839   42.3084   28.9021 H   0  0  0  0  0  0
   62.8170   41.2759   31.0030 H   0  0  0  0  0  0
   64.5594   41.5102   31.1104 H   0  0  0  0  0  0
   63.5200   42.7044   31.7765 H   0  0  0  0  0  0
  1  2  1  0  0  0
  1  3  1  0  0  0
  1  5  2  0  0  0
  2  4  1  0  0  0
  2  8  2  0  0  0
  3 10  1  0  0  0
  3 15  2  0  0  0
  4  6  2  0  0  0
  4 22  1  0  0  0
  5  7  1  0  0  0
  5 33  1  0  0  0
  6 20  1  0  0  0
  6  9  1  0  0  0
  7 15  1  0  0  0
  7 34  1  0  0  0
  8 11  1  0  0  0
  8 35  1  0  0  0
  9 11  2  0  0  0
  9 36  1  0  0  0
 10 14  2  0  0  0
 10 37  1  0  0  0
 11 21  1  0  0  0
 12 14  1  0  0  0
 12 13  2  0  0  0
 12 24  1  0  0  0
 13 16  1  0  0  0
 13 38  1  0  0  0
 14 17  1  0  0  0
 15 19  1  0  0  0
 16 18  2  0  0  0
 16 23  1  0  0  0
 17 19  2  0  0  0
 17 39  1  0  0  0
 19 40  1  0  0  0
 20 25  1  0  0  0
 20 26  1  0  0  0
 20 41  1  0  0  0
 21 28  1  0  0  0
 21 29  1  0  0  0
 21 42  1  0  0  0
 22 27  1  0  0  0
 23 43  1  0  0  0
 24 44  1  0  0  0
 24 45  1  0  0  0
 24 46  1  0  0  0
 25 47  1  0  0  0
 25 48  1  0  0  0
 25 49  1  0  0  0
 26 50  1  0  0  0
 26 51  1  0  0  0
 26 52  1  0  0  0
 27 30  1  0  0  0
 27 53  1  0  0  0
 27 54  1  0  0  0
 28 55  1  0  0  0
 28 56  1  0  0  0
 28 57  1  0  0  0
 29 58  1  0  0  0
 29 59  1  0  0  0
 29 60  1  0  0  0
 30 31  1  0  0  0
 30 61  1  0  0  0
 30 62  1  0  0  0
 31 32  1  0  0  0
 31 63  1  0  0  0
 31 64  1  0  0  0
 32 65  1  0  0  0
 32 66  1  0  0  0
 32 67  1  0  0  0
M  END
> <s_m_entry_id>
30929

> <s_m_entry_name>
dock_pv.142

> <s_m_Source_Path>
/home/csk/Desktop/cluster/DUD-E-result/rxra

> <s_m_Source_File>
dock_pv.maegz

> <i_m_Source_File_Index>
142

> <chembl_id>
CHEMBL92798

> <chembl_pref_name>
None

> <i_lp_mmshare_version>
53161

> <r_lp_tautomer_probability>
1

> <s_lp_Force_Field>
OPLS_2005

> <r_lp_Energy>
29.536429

> <b_lp_Chiralities_Consistent>
1

> <s_lp_Variant>
CHEMBL2061_lig349-1

> <s_i_glide_gridfile>
glide-grid_1mv9

> <i_i_glide_lignum>
409

> <i_i_glide_rotatable_bonds>
10

> <r_i_docking_score>
-10.8365745503789

> <r_i_glide_ligand_efficiency>
-0.33864295469934

> <r_i_glide_ligand_efficiency_sa>
-1.07512436382067

> <r_i_glide_ligand_efficiency_ln>
-2.42660443569559

> <r_i_glide_gscore>
-10.8365745503789

> <r_i_glide_lipo>
-6.96433882995428

> <r_i_glide_hbond>
-0.0662496198810112

> <r_i_glide_metal>
0

> <r_i_glide_rewards>
-1.67009133676877

> <r_i_glide_evdw>
-41.3219795227051

> <r_i_glide_ecoul>
-4.70127582550049

> <r_i_glide_erotb>
0.635395586185514

> <r_i_glide_esite>
0

> <r_i_glide_emodel>
-49.7480790704097

> <r_i_glide_energy>
-46.0232553482056

> <r_i_glide_einternal>
7.78434228897095

> <i_i_glide_confnum>
69

> <i_i_glide_posenum>
169

> <r_i_glide_eff_state_penalty>
0

> <s_user_duplicate_titles>
CHEMBL2061_lig349,151544

> <i_f3d_flags>
0

> <s_m_subgroup_title>
dock_pv

> <s_m_subgroupid>
dock_pv

> <b_m_subgroup_collapsed>
1

$$$$
CHEMBL2061_lig324
                    3D
 Schrodinger Suite 2021-1.
 58 60  0  0  1  0            999 V2000
   61.8488   46.4838   29.1885 C   0  0  1  0  0  0
   60.7206   47.4998   29.2354 C   0  0  1  0  0  0
   61.8555   47.6564   28.2359 C   0  0  0  0  0  0
   63.1337   46.4751   32.7954 C   0  0  0  0  0  0
   62.8093   46.3862   30.3648 C   0  0  0  0  0  0
   64.4436   45.9437   32.6253 C   0  0  0  0  0  0
   62.3485   46.6624   31.6499 C   0  0  0  0  0  0
   59.3145   47.0549   28.8447 C   0  0  0  0  0  0
   62.5577   46.8910   34.1757 C   0  0  0  0  0  0
   65.3141   45.5338   33.8357 C   0  0  0  0  0  0
   64.9062   45.7092   31.3156 C   0  0  0  0  0  0
   56.3095   45.6718   30.4932 C   0  0  0  0  0  0
   58.4693   46.4505   29.7113 C   0  0  0  0  0  0
   54.9163   45.3015   30.3931 C   0  0  0  0  0  0
   57.1021   46.0008   29.4411 C   0  0  0  0  0  0
   64.1116   45.9364   30.1986 C   0  0  0  0  0  0
   63.3954   46.3047   35.3415 C   0  0  0  0  0  0
   64.8992   46.3506   35.0785 C   0  0  0  0  0  0
   54.4083   44.3302   30.9391 O   0  0  0  0  0  0
   61.6152   45.1567   28.4482 C   0  0  0  0  0  0
   54.1980   46.2191   29.6847 O   0  0  0  0  0  0
   62.6186   48.4327   34.2697 C   0  0  0  0  0  0
   61.1101   46.3638   34.3622 C   0  0  0  0  0  0
   65.0903   44.0215   34.0800 C   0  0  0  0  0  0
   66.8073   45.8466   33.6034 C   0  0  0  0  0  0
   56.6105   45.8511   28.0111 C   0  0  0  0  0  0
   60.7779   48.2647   30.0089 H   0  0  0  0  0  0
   61.6515   47.5019   27.1754 H   0  0  0  0  0  0
   62.5813   48.4556   28.3896 H   0  0  0  0  0  0
   61.3407   47.0247   31.7681 H   0  0  0  0  0  0
   59.0224   47.2554   27.8252 H   0  0  0  0  0  0
   65.8886   45.2991   31.1432 H   0  0  0  0  0  0
   56.6868   45.6884   31.5060 H   0  0  0  0  0  0
   58.8473   46.2909   30.7116 H   0  0  0  0  0  0
   64.4948   45.7122   29.2141 H   0  0  0  0  0  0
   63.1033   45.2769   35.5536 H   0  0  0  0  0  0
   63.1867   46.8511   36.2607 H   0  0  0  0  0  0
   65.4316   46.0005   35.9637 H   0  0  0  0  0  0
   65.1969   47.3909   34.9396 H   0  0  0  0  0  0
   60.9429   45.2770   27.5996 H   0  0  0  0  0  0
   62.5526   44.7435   28.0782 H   0  0  0  0  0  0
   61.2084   44.4115   29.1314 H   0  0  0  0  0  0
   54.7912   46.8893   29.3364 H   0  0  0  0  0  0
   62.2448   48.7745   35.2346 H   0  0  0  0  0  0
   63.6305   48.8196   34.1582 H   0  0  0  0  0  0
   62.0093   48.9058   33.4987 H   0  0  0  0  0  0
   60.7668   46.5118   35.3860 H   0  0  0  0  0  0
   60.3930   46.8768   33.7239 H   0  0  0  0  0  0
   61.0253   45.3023   34.1397 H   0  0  0  0  0  0
   65.6565   43.6758   34.9406 H   0  0  0  0  0  0
   64.0439   43.7648   34.2415 H   0  0  0  0  0  0
   65.4262   43.4282   33.2307 H   0  0  0  0  0  0
   67.4000   45.6767   34.5044 H   0  0  0  0  0  0
   67.2079   45.1810   32.8468 H   0  0  0  0  0  0
   66.9730   46.8764   33.2822 H   0  0  0  0  0  0
   57.4470   45.6778   27.3414 H   0  0  0  0  0  0
   55.9977   44.9552   27.9099 H   0  0  0  0  0  0
   56.0064   46.6954   27.6888 H   0  0  0  0  0  0
  1  2  1  0  0  0
  1  3  1  0  0  0
  1  5  1  0  0  0
  1 20  1  0  0  0
  2  8  1  0  0  0
  2  3  1  0  0  0
  2 27  1  0  0  0
  3 28  1  0  0  0
  3 29  1  0  0  0
  4  7  1  0  0  0
  4  9  1  0  0  0
  4  6  2  0  0  0
  5  7  2  0  0  0
  5 16  1  0  0  0
  6 11  1  0  0  0
  6 10  1  0  0  0
  7 30  1  0  0  0
  8 13  2  0  0  0
  8 31  1  0  0  0
  9 17  1  0  0  0
  9 22  1  0  0  0
  9 23  1  0  0  0
 10 18  1  0  0  0
 10 24  1  0  0  0
 10 25  1  0  0  0
 11 16  2  0  0  0
 11 32  1  0  0  0
 12 15  2  0  0  0
 12 14  1  0  0  0
 12 33  1  0  0  0
 13 15  1  0  0  0
 13 34  1  0  0  0
 14 19  2  0  0  0
 14 21  1  0  0  0
 15 26  1  0  0  0
 16 35  1  0  0  0
 17 18  1  0  0  0
 17 36  1  0  0  0
 17 37  1  0  0  0
 18 38  1  0  0  0
 18 39  1  0  0  0
 20 40  1  0  0  0
 20 41  1  0  0  0
 20 42  1  0  0  0
 21 43  1  0  0  0
 22 44  1  0  0  0
 22 45  1  0  0  0
 22 46  1  0  0  0
 23 47  1  0  0  0
 23 48  1  0  0  0
 23 49  1  0  0  0
 24 50  1  0  0  0
 24 51  1  0  0  0
 24 52  1  0  0  0
 25 53  1  0  0  0
 25 54  1  0  0  0
 25 55  1  0  0  0
 26 56  1  0  0  0
 26 57  1  0  0  0
 26 58  1  0  0  0
M  END
> <s_m_entry_id>
30930

> <s_m_entry_name>
dock_pv.143

> <s_m_Source_Path>
/home/csk/Desktop/cluster/DUD-E-result/rxra

> <s_m_Source_File>
dock_pv.maegz

> <i_m_Source_File_Index>
143

> <chembl_id>
CHEMBL69091

> <chembl_pref_name>
None

> <i_lp_mmshare_version>
53161

> <r_lp_tautomer_probability>
1

> <s_lp_Force_Field>
OPLS_2005

> <r_lp_Energy>
32.543171

> <b_lp_Chiralities_Consistent>
1

> <s_lp_Variant>
CHEMBL2061_lig324-1

> <s_i_glide_gridfile>
glide-grid_1mv9

> <i_i_glide_lignum>
372

> <i_i_glide_rotatable_bonds>
5

> <r_i_docking_score>
-10.8360855205509

> <r_i_glide_ligand_efficiency>
-0.416772520021189

> <r_i_glide_ligand_efficiency_sa>
-1.2346869506421

> <r_i_glide_ligand_efficiency_ln>
-2.54481912840471

> <r_i_glide_gscore>
-10.8360855205509

> <r_i_glide_lipo>
-6.13003531117779

> <r_i_glide_hbond>
-0.32

> <r_i_glide_metal>
0

> <r_i_glide_rewards>
-2.41048350272078

> <r_i_glide_evdw>
-38.192798614502

> <r_i_glide_ecoul>
-4.53528499603271

> <r_i_glide_erotb>
0.614365973477658

> <r_i_glide_esite>
0

> <r_i_glide_emodel>
-39.6325902547382

> <r_i_glide_energy>
-42.7280836105347

> <r_i_glide_einternal>
9.78718376159668

> <i_i_glide_confnum>
176

> <i_i_glide_posenum>
193

> <r_i_glide_eff_state_penalty>
0

> <s_user_duplicate_titles>
CHEMBL2061_lig324,CHEMBL2061_lig326,108623

> <i_f3d_flags>
0

> <s_m_subgroup_title>
dock_pv

> <s_m_subgroupid>
dock_pv

> <b_m_subgroup_collapsed>
1

$$$$
CHEMBL2061_lig361
                    3D
 Schrodinger Suite 2021-1.
 53 55  0  0  1  0            999 V2000
   61.8892   46.2235   30.4748 C   0  0  0  0  0  0
   62.7724   46.4732   32.7696 C   0  0  0  0  0  0
   63.9247   45.7239   32.4001 C   0  0  0  0  0  0
   60.8181   46.5088   29.4557 C   0  0  0  0  0  0
   61.8165   46.7495   31.7718 C   0  0  0  0  0  0
   63.0205   45.4715   30.1337 C   0  0  0  0  0  0
   64.0228   45.2717   31.0746 C   0  0  0  0  0  0
   62.5368   46.9787   34.2215 C   0  0  0  0  0  0
   65.0287   45.3229   33.4123 C   0  0  0  0  0  0
   55.2646   44.9349   30.3166 C   0  0  0  0  0  0
   59.3861   46.0770   29.6827 C   0  0  0  0  0  0
   56.7054   45.2753   30.0680 C   0  0  0  0  0  0
   61.1507   46.9517   28.3534 O   0  0  0  0  0  0
   64.9191   46.1610   34.7098 C   0  0  0  0  0  0
   63.4818   46.2646   35.2231 C   0  0  0  0  0  0
   54.6813   45.2771   31.3390 O   0  0  0  0  0  0
   58.9209   45.6770   30.9393 C   0  0  0  0  0  0
   58.4722   46.0770   28.6173 C   0  0  0  0  0  0
   57.1466   45.6806   28.8060 C   0  0  0  0  0  0
   57.6062   45.2770   31.1327 C   0  0  0  0  0  0
   54.6627   44.2105   29.3390 O   0  0  0  0  0  0
   63.2089   44.9411   28.8798 O   0  0  0  0  0  0
   62.8190   48.4937   34.2972 C   0  0  0  0  0  0
   64.8525   43.8245   33.7669 C   0  0  0  0  0  0
   66.4294   45.6256   32.8310 C   0  0  0  0  0  0
   61.0931   46.6488   34.6786 C   0  0  0  0  0  0
   62.5460   43.7008   28.6573 C   0  0  0  0  0  0
   60.9738   47.3721   32.0317 H   0  0  0  0  0  0
   64.8750   44.6850   30.7678 H   0  0  0  0  0  0
   65.5562   45.7390   35.4890 H   0  0  0  0  0  0
   65.3115   47.1644   34.5418 H   0  0  0  0  0  0
   63.1169   45.2641   35.4500 H   0  0  0  0  0  0
   63.4799   46.7857   36.1814 H   0  0  0  0  0  0
   59.5534   45.6770   31.8106 H   0  0  0  0  0  0
   58.7838   46.3867   27.6292 H   0  0  0  0  0  0
   56.4700   45.7190   27.9633 H   0  0  0  0  0  0
   57.2953   45.0176   32.1332 H   0  0  0  0  0  0
   55.2692   43.8987   28.6605 H   0  0  0  0  0  0
   62.5703   48.8770   35.2860 H   0  0  0  0  0  0
   63.8658   48.7420   34.1390 H   0  0  0  0  0  0
   62.2313   49.0559   33.5708 H   0  0  0  0  0  0
   65.5580   43.5136   34.5384 H   0  0  0  0  0  0
   63.8495   43.5946   34.1269 H   0  0  0  0  0  0
   65.0286   43.1859   32.9014 H   0  0  0  0  0  0
   67.2081   45.4618   33.5771 H   0  0  0  0  0  0
   66.6760   44.9848   31.9849 H   0  0  0  0  0  0
   66.5114   46.6607   32.4960 H   0  0  0  0  0  0
   60.9619   46.8180   35.7482 H   0  0  0  0  0  0
   60.3594   47.2767   34.1809 H   0  0  0  0  0  0
   60.8213   45.6143   34.4744 H   0  0  0  0  0  0
   62.4077   43.5433   27.5880 H   0  0  0  0  0  0
   63.1498   42.8776   29.0413 H   0  0  0  0  0  0
   61.5647   43.6446   29.1281 H   0  0  0  0  0  0
  1  4  1  0  0  0
  1  5  2  0  0  0
  1  6  1  0  0  0
  2  5  1  0  0  0
  2  8  1  0  0  0
  2  3  2  0  0  0
  3  7  1  0  0  0
  3  9  1  0  0  0
  4 11  1  0  0  0
  4 13  2  0  0  0
  5 28  1  0  0  0
  6  7  2  0  0  0
  6 22  1  0  0  0
  7 29  1  0  0  0
  8 15  1  0  0  0
  8 23  1  0  0  0
  8 26  1  0  0  0
  9 14  1  0  0  0
  9 24  1  0  0  0
  9 25  1  0  0  0
 10 12  1  0  0  0
 10 16  2  0  0  0
 10 21  1  0  0  0
 11 17  2  0  0  0
 11 18  1  0  0  0
 12 19  1  0  0  0
 12 20  2  0  0  0
 14 15  1  0  0  0
 14 30  1  0  0  0
 14 31  1  0  0  0
 15 32  1  0  0  0
 15 33  1  0  0  0
 17 20  1  0  0  0
 17 34  1  0  0  0
 18 19  2  0  0  0
 18 35  1  0  0  0
 19 36  1  0  0  0
 20 37  1  0  0  0
 21 38  1  0  0  0
 22 27  1  0  0  0
 23 39  1  0  0  0
 23 40  1  0  0  0
 23 41  1  0  0  0
 24 42  1  0  0  0
 24 43  1  0  0  0
 24 44  1  0  0  0
 25 45  1  0  0  0
 25 46  1  0  0  0
 25 47  1  0  0  0
 26 48  1  0  0  0
 26 49  1  0  0  0
 26 50  1  0  0  0
 27 51  1  0  0  0
 27 52  1  0  0  0
 27 53  1  0  0  0
M  END
> <s_m_entry_id>
30931

> <s_m_entry_name>
dock_pv.144

> <s_m_Source_Path>
/home/csk/Desktop/cluster/DUD-E-result/rxra

> <s_m_Source_File>
dock_pv.maegz

> <i_m_Source_File_Index>
144

> <chembl_id>
CHEMBL318916

> <chembl_pref_name>
None

> <i_lp_mmshare_version>
53161

> <r_lp_tautomer_probability>
1

> <s_lp_Force_Field>
OPLS_2005

> <r_lp_Energy>
34.833336

> <b_lp_Chiralities_Consistent>
1

> <s_lp_Variant>
CHEMBL2061_lig361-1

> <s_i_glide_gridfile>
glide-grid_1mv9

> <i_i_glide_lignum>
421

> <i_i_glide_rotatable_bonds>
5

> <r_i_docking_score>
-10.8328153665643

> <r_i_glide_ligand_efficiency>
-0.401215383946824

> <r_i_glide_ligand_efficiency_sa>
-1.20364615051813

> <r_i_glide_ligand_efficiency_ln>
-2.52170082441705

> <r_i_glide_gscore>
-10.8328153665643

> <r_i_glide_lipo>
-5.85914361195914

> <r_i_glide_hbond>
-0.0662506210897654

> <r_i_glide_metal>
0

> <r_i_glide_rewards>
-2.3781974974271

> <r_i_glide_evdw>
-46.2044448852539

> <r_i_glide_ecoul>
-4.32666778564453

> <r_i_glide_erotb>
0.429998776021129

> <r_i_glide_esite>
0

> <r_i_glide_emodel>
-74.4114922192291

> <r_i_glide_energy>
-50.5311126708984

> <r_i_glide_einternal>
10.4568281173706

> <i_i_glide_confnum>
63

> <i_i_glide_posenum>
272

> <r_i_glide_eff_state_penalty>
0

> <s_user_duplicate_titles>
CHEMBL2061_lig361

> <i_f3d_flags>
0

> <s_m_subgroup_title>
dock_pv

> <s_m_subgroupid>
dock_pv

> <b_m_subgroup_collapsed>
1

$$$$
CHEMBL2061_lig86 
                    3D
 Schrodinger Suite 2021-1.
 42 45  0  0  1  0            999 V2000
   61.7921   47.1178   27.6497 C   0  0  0  0  0  0
   62.6531   47.4732   28.6834 C   0  0  0  0  0  0
   62.2792   47.2658   30.0127 C   0  0  0  0  0  0
   60.5529   46.5519   27.9400 C   0  0  0  0  0  0
   60.1764   46.3450   29.2716 C   0  0  0  0  0  0
   61.0405   46.6819   30.3058 C   0  0  0  0  0  0
   60.3590   46.3527   31.5686 C   0  0  0  0  0  0
   59.0463   45.8407   31.1901 C   0  0  0  0  0  0
   58.9432   45.8012   29.8467 C   0  0  0  0  0  0
   57.8115   45.2833   28.9680 C   0  0  0  0  0  0
   56.3620   45.5122   29.3461 C   0  0  0  0  0  0
   60.7961   46.4771   32.8420 C   0  0  0  0  0  0
   62.1307   46.7853   33.3494 C   0  0  0  0  0  0
   62.2957   47.6807   34.4096 C   0  0  0  0  0  0
   63.5556   47.8722   34.9713 C   0  0  0  0  0  0
   64.6432   47.1487   34.4863 C   0  0  0  0  0  0
   64.4908   46.2432   33.4320 C   0  0  0  0  0  0
   63.2316   46.0787   32.8633 C   0  0  0  0  0  0
   55.6072   46.5527   28.8761 N   0  0  0  0  0  0
   54.3617   46.4771   29.3386 N   0  0  0  0  0  0
   54.3656   45.3468   30.1351 N   0  0  0  0  0  0
   55.6201   44.7451   30.1070 N   0  0  0  0  0  0
   58.0071   45.3053   32.1522 C   0  0  0  0  0  0
   65.6579   45.4180   32.9118 C   0  0  0  0  0  0
   65.5342   44.1615   33.3395 F   0  0  0  0  0  0
   65.6894   45.4223   31.5782 F   0  0  0  0  0  0
   66.8090   45.9018   33.3588 F   0  0  0  0  0  0
   62.0859   47.2878   26.6245 H   0  0  0  0  0  0
   63.6076   47.9167   28.4475 H   0  0  0  0  0  0
   62.9559   47.5851   30.7892 H   0  0  0  0  0  0
   59.9031   46.2890   27.1197 H   0  0  0  0  0  0
   57.9576   45.6761   27.9620 H   0  0  0  0  0  0
   57.9900   44.2098   28.9390 H   0  0  0  0  0  0
   60.0991   46.2512   33.6336 H   0  0  0  0  0  0
   61.4483   48.2149   34.8148 H   0  0  0  0  0  0
   63.6883   48.5649   35.7907 H   0  0  0  0  0  0
   65.6080   47.2816   34.9389 H   0  0  0  0  0  0
   63.1026   45.3624   32.0629 H   0  0  0  0  0  0
   55.9253   47.2883   28.2626 H   0  0  0  0  0  0
   58.4111   45.0539   33.1302 H   0  0  0  0  0  0
   57.2095   46.0400   32.2866 H   0  0  0  0  0  0
   57.6073   44.3829   31.7381 H   0  0  0  0  0  0
  1  2  2  0  0  0
  1  4  1  0  0  0
  1 28  1  0  0  0
  2  3  1  0  0  0
  2 29  1  0  0  0
  3  6  2  0  0  0
  3 30  1  0  0  0
  4  5  2  0  0  0
  4 31  1  0  0  0
  5  6  1  0  0  0
  5  9  1  0  0  0
  6  7  1  0  0  0
  7  8  1  0  0  0
  7 12  2  0  0  0
  8  9  2  0  0  0
  8 23  1  0  0  0
  9 10  1  0  0  0
 10 11  1  0  0  0
 10 32  1  0  0  0
 10 33  1  0  0  0
 11 19  1  0  0  0
 11 22  2  0  0  0
 12 13  1  0  0  0
 12 34  1  0  0  0
 13 14  2  0  0  0
 13 18  1  0  0  0
 14 15  1  0  0  0
 14 35  1  0  0  0
 15 16  2  0  0  0
 15 36  1  0  0  0
 16 17  1  0  0  0
 16 37  1  0  0  0
 17 18  2  0  0  0
 17 24  1  0  0  0
 18 38  1  0  0  0
 19 20  1  0  0  0
 19 39  1  0  0  0
 20 21  2  0  0  0
 21 22  1  0  0  0
 23 40  1  0  0  0
 23 41  1  0  0  0
 23 42  1  0  0  0
 24 25  1  0  0  0
 24 26  1  0  0  0
 24 27  1  0  0  0
M  END
> <s_m_entry_id>
30932

> <s_m_entry_name>
dock_pv.145

> <s_m_Source_Path>
/home/csk/Desktop/cluster/DUD-E-result/rxra

> <s_m_Source_File>
dock_pv.maegz

> <i_m_Source_File_Index>
145

> <chembl_id>
CHEMBL4559724

> <chembl_pref_name>
None

> <i_lp_mmshare_version>
53161

> <r_lp_tautomer_probability>
0.3

> <s_lp_Force_Field>
OPLS_2005

> <r_lp_Energy>
43.660105

> <b_lp_Chiralities_Consistent>
1

> <s_lp_Variant>
CHEMBL2061_lig86 -1

> <s_i_glide_gridfile>
glide-grid_1mv9

> <i_i_glide_lignum>
121

> <i_i_glide_rotatable_bonds>
4

> <r_i_docking_score>
-10.8312494086771

> <r_i_glide_ligand_efficiency>
-0.401157385506561

> <r_i_glide_ligand_efficiency_sa>
-1.20347215519753

> <r_i_glide_ligand_efficiency_ln>
-2.52133629523776

> <r_i_glide_gscore>
-10.8312494086771

> <r_i_glide_lipo>
-5.1482422617458

> <r_i_glide_hbond>
0

> <r_i_glide_metal>
0

> <r_i_glide_rewards>
-3.59757880227273

> <r_i_glide_evdw>
-45.5353355407715

> <r_i_glide_ecoul>
-0.949645042419434

> <r_i_glide_erotb>
0.426035098229492

> <r_i_glide_esite>
-0.0922499094866293

> <r_i_glide_emodel>
-69.5172030769157

> <r_i_glide_energy>
-46.4849805831909

> <r_i_glide_einternal>
3.17627644538879

> <i_i_glide_confnum>
17

> <i_i_glide_posenum>
30

> <r_i_glide_eff_state_penalty>
0

> <s_user_duplicate_titles>
CHEMBL2061_lig86 ,CHEMBL2061_lig86 

> <i_f3d_flags>
0

> <s_m_subgroup_title>
dock_pv

> <s_m_subgroupid>
dock_pv

> <b_m_subgroup_collapsed>
1

$$$$
CHEMBL2061_lig272
                    3D
 Schrodinger Suite 2021-1.
 56 59  0  0  1  0            999 V2000
   61.3811   46.3469   29.2676 C   0  0  2  0  0  0
   62.9681   46.3547   32.8134 C   0  0  0  0  0  0
   64.0875   45.5039   32.6264 C   0  0  0  0  0  0
   62.3364   46.0376   30.4518 C   0  0  0  0  0  0
   62.1873   46.6753   31.6892 C   0  0  0  0  0  0
   62.5534   46.8906   34.2057 C   0  0  0  0  0  0
   65.0679   45.1553   33.7651 C   0  0  0  0  0  0
   55.6576   45.2311   30.0602 C   0  0  0  0  0  0
   61.6001   48.0770   28.8120 S   0  0  0  0  0  0
   64.2603   44.9019   31.3712 C   0  0  0  0  0  0
   59.8702   46.0700   29.4951 C   0  0  0  0  0  0
   61.7831   45.6090   28.1094 O   0  0  0  0  0  0
   57.1211   45.4967   29.8350 C   0  0  0  0  0  0
   63.3833   45.1240   30.3219 C   0  0  0  0  0  0
   63.3715   46.2310   35.3446 C   0  0  0  0  0  0
   64.8433   46.0647   34.9970 C   0  0  0  0  0  0
   55.1178   45.2990   31.1642 O   0  0  0  0  0  0
   59.3481   45.6783   30.7317 C   0  0  0  0  0  0
   58.9720   46.2005   28.4297 C   0  0  0  0  0  0
   57.6128   45.9340   28.5957 C   0  0  0  0  0  0
   58.0056   45.3736   30.9036 C   0  0  0  0  0  0
   54.9889   44.8758   28.9391 O   0  0  0  0  0  0
   62.8000   48.4117   34.2597 C   0  0  0  0  0  0
   61.0821   46.4965   34.4814 C   0  0  0  0  0  0
   64.8375   43.6807   34.1530 C   0  0  0  0  0  0
   66.5166   45.4242   33.3177 C   0  0  0  0  0  0
   62.5363   47.7749   27.3249 C   0  0  0  0  0  0
   62.8076   46.2781   27.3796 C   0  0  0  0  0  0
   61.3824   47.3867   31.8014 H   0  0  0  0  0  0
   65.0679   44.2043   31.2105 H   0  0  0  0  0  0
   63.5409   44.5707   29.4091 H   0  0  0  0  0  0
   62.9657   45.2560   35.6059 H   0  0  0  0  0  0
   63.2844   46.8195   36.2589 H   0  0  0  0  0  0
   65.3821   45.6755   35.8617 H   0  0  0  0  0  0
   65.2612   47.0560   34.8196 H   0  0  0  0  0  0
   59.9592   45.6770   31.6143 H   0  0  0  0  0  0
   59.3340   46.5126   27.4610 H   0  0  0  0  0  0
   56.9630   46.0746   27.7411 H   0  0  0  0  0  0
   57.6578   45.0891   31.8875 H   0  0  0  0  0  0
   55.5968   44.6468   28.2334 H   0  0  0  0  0  0
   62.4891   48.8224   35.2194 H   0  0  0  0  0  0
   63.8518   48.6656   34.1392 H   0  0  0  0  0  0
   62.2446   48.9438   33.4869 H   0  0  0  0  0  0
   60.8101   46.7101   35.5160 H   0  0  0  0  0  0
   60.3946   47.0532   33.8513 H   0  0  0  0  0  0
   60.8872   45.4405   34.2947 H   0  0  0  0  0  0
   65.5257   43.3814   34.9390 H   0  0  0  0  0  0
   63.8233   43.4866   34.5006 H   0  0  0  0  0  0
   65.0222   43.0066   33.3159 H   0  0  0  0  0  0
   67.2275   45.2392   34.1251 H   0  0  0  0  0  0
   66.8082   44.7794   32.4912 H   0  0  0  0  0  0
   66.6584   46.4547   32.9864 H   0  0  0  0  0  0
   63.4537   48.3642   27.3337 H   0  0  0  0  0  0
   61.9275   48.0703   26.4702 H   0  0  0  0  0  0
   63.7694   46.0768   27.8475 H   0  0  0  0  0  0
   62.8778   45.8099   26.4046 H   0  0  0  0  0  0
  1  4  1  0  0  0
  1  9  1  0  0  0
  1 11  1  0  0  0
  1 12  1  0  0  0
  2  5  1  0  0  0
  2  6  1  0  0  0
  2  3  2  0  0  0
  3 10  1  0  0  0
  3  7  1  0  0  0
  4  5  2  0  0  0
  4 14  1  0  0  0
  5 29  1  0  0  0
  6 15  1  0  0  0
  6 23  1  0  0  0
  6 24  1  0  0  0
  7 16  1  0  0  0
  7 25  1  0  0  0
  7 26  1  0  0  0
  8 13  1  0  0  0
  8 17  2  0  0  0
  8 22  1  0  0  0
  9 27  1  0  0  0
 10 14  2  0  0  0
 10 30  1  0  0  0
 11 18  2  0  0  0
 11 19  1  0  0  0
 12 28  1  0  0  0
 13 20  1  0  0  0
 13 21  2  0  0  0
 14 31  1  0  0  0
 15 16  1  0  0  0
 15 32  1  0  0  0
 15 33  1  0  0  0
 16 34  1  0  0  0
 16 35  1  0  0  0
 18 21  1  0  0  0
 18 36  1  0  0  0
 19 20  2  0  0  0
 19 37  1  0  0  0
 20 38  1  0  0  0
 21 39  1  0  0  0
 22 40  1  0  0  0
 23 41  1  0  0  0
 23 42  1  0  0  0
 23 43  1  0  0  0
 24 44  1  0  0  0
 24 45  1  0  0  0
 24 46  1  0  0  0
 25 47  1  0  0  0
 25 48  1  0  0  0
 25 49  1  0  0  0
 26 50  1  0  0  0
 26 51  1  0  0  0
 26 52  1  0  0  0
 27 28  1  0  0  0
 27 53  1  0  0  0
 27 54  1  0  0  0
 28 55  1  0  0  0
 28 56  1  0  0  0
M  END
> <s_m_entry_id>
30933

> <s_m_entry_name>
dock_pv.146

> <s_m_Source_Path>
/home/csk/Desktop/cluster/DUD-E-result/rxra

> <s_m_Source_File>
dock_pv.maegz

> <i_m_Source_File_Index>
146

> <chembl_id>
CHEMBL113975

> <chembl_pref_name>
None

> <i_lp_mmshare_version>
53161

> <r_lp_tautomer_probability>
1

> <s_lp_Force_Field>
OPLS_2005

> <r_lp_Energy>
39.158772

> <b_lp_Chiralities_Consistent>
1

> <s_lp_Variant>
CHEMBL2061_lig272-1

> <s_i_glide_gridfile>
glide-grid_1mv9

> <i_i_glide_lignum>
316

> <i_i_glide_rotatable_bonds>
4

> <r_i_docking_score>
-10.8224947769312

> <r_i_glide_ligand_efficiency>
-0.386517670604686

> <r_i_glide_ligand_efficiency_sa>
-1.1736952946896

> <r_i_glide_ligand_efficiency_ln>
-2.49814955677001

> <r_i_glide_gscore>
-10.8224947769312

> <r_i_glide_lipo>
-6.51848451567652

> <r_i_glide_hbond>
0

> <r_i_glide_metal>
0

> <r_i_glide_rewards>
-2.01049649943744

> <r_i_glide_evdw>
-48.130313873291

> <r_i_glide_ecoul>
-1.73521482944489

> <r_i_glide_erotb>
0.373284156264036

> <r_i_glide_esite>
0

> <r_i_glide_emodel>
-81.1873944970235

> <r_i_glide_energy>
-49.8655287027359

> <r_i_glide_einternal>
3.69082760810852

> <i_i_glide_confnum>
58

> <i_i_glide_posenum>
136

> <r_i_glide_eff_state_penalty>
0

> <s_user_duplicate_titles>
CHEMBL2061_lig272

> <i_f3d_flags>
0

> <s_m_subgroup_title>
dock_pv

> <s_m_subgroupid>
dock_pv

> <b_m_subgroup_collapsed>
1

$$$$
CHEMBL2061_lig348
                    3D
 Schrodinger Suite 2021-1.
 54 56  0  0  1  0            999 V2000
   62.8609   46.4960   29.9514 C   0  0  0  0  0  0
   63.2608   46.2937   31.3732 C   0  0  0  0  0  0
   61.5355   46.4463   29.4271 C   0  0  0  0  0  0
   64.3882   45.5303   31.7102 C   0  0  0  0  0  0
   63.7650   46.7854   28.9408 C   0  0  0  0  0  0
   64.7955   45.4425   33.0454 C   0  0  0  0  0  0
   63.0925   47.2468   27.4244 S   0  0  0  0  0  0
   62.5060   46.8978   32.3893 C   0  0  0  0  0  0
   64.0297   46.0512   34.0409 C   0  0  0  0  0  0
   60.3136   46.0766   30.0300 C   0  0  0  0  0  0
   62.8829   46.7737   33.7287 C   0  0  0  0  0  0
   57.8408   45.5403   29.8715 C   0  0  0  0  0  0
   56.6427   46.0610   29.4829 C   0  0  0  0  0  0
   59.1268   46.0469   29.2821 C   0  0  0  0  0  0
   61.5212   46.8459   28.0640 C   0  0  0  0  0  0
   55.3098   45.6808   29.9197 C   0  0  0  0  0  0
   59.1797   46.4771   27.9542 C   0  0  0  0  0  0
   55.0143   44.8150   30.7396 O   0  0  0  0  0  0
   60.3520   46.8940   27.3390 C   0  0  0  0  0  0
   66.0240   44.6414   33.4460 C   0  0  0  0  0  0
   65.0794   44.8545   30.7327 O   0  0  0  0  0  0
   62.0620   47.3970   34.8544 C   0  0  0  0  0  0
   54.3686   46.4768   29.3342 O   0  0  0  0  0  0
   57.9976   44.3825   30.8577 C   0  0  0  0  0  0
   65.5686   43.2803   33.9860 C   0  0  0  0  0  0
   66.9370   45.4256   34.4026 C   0  0  0  0  0  0
   62.9090   48.3314   35.7421 C   0  0  0  0  0  0
   61.3728   46.3083   35.6942 C   0  0  0  0  0  0
   64.8368   46.8721   29.0456 H   0  0  0  0  0  0
   61.6358   47.4864   32.1376 H   0  0  0  0  0  0
   64.3091   45.9410   35.0772 H   0  0  0  0  0  0
   60.3077   45.7590   31.0600 H   0  0  0  0  0  0
   56.6502   46.8698   28.7706 H   0  0  0  0  0  0
   58.2996   46.4484   27.3399 H   0  0  0  0  0  0
   60.4080   47.2054   26.3069 H   0  0  0  0  0  0
   66.6388   44.4773   32.5618 H   0  0  0  0  0  0
   64.6285   44.9179   29.8875 H   0  0  0  0  0  0
   61.2790   48.0107   34.4121 H   0  0  0  0  0  0
   54.7729   47.1005   28.7282 H   0  0  0  0  0  0
   58.8076   43.7310   30.5393 H   0  0  0  0  0  0
   58.2252   44.7662   31.8523 H   0  0  0  0  0  0
   57.1253   43.7401   30.9364 H   0  0  0  0  0  0
   64.8971   42.7791   33.2869 H   0  0  0  0  0  0
   66.4080   42.6160   34.1388 H   0  0  0  0  0  0
   65.0389   43.3845   34.9339 H   0  0  0  0  0  0
   67.2424   46.3616   33.9346 H   0  0  0  0  0  0
   66.4403   45.6775   35.3389 H   0  0  0  0  0  0
   67.8456   44.8754   34.6357 H   0  0  0  0  0  0
   63.4554   49.0632   35.1449 H   0  0  0  0  0  0
   62.2743   48.8755   36.4419 H   0  0  0  0  0  0
   63.6423   47.7829   36.3344 H   0  0  0  0  0  0
   60.6898   45.7070   35.0912 H   0  0  0  0  0  0
   62.1008   45.6293   36.1373 H   0  0  0  0  0  0
   60.8084   46.7486   36.5136 H   0  0  0  0  0  0
  1  2  1  0  0  0
  1  3  1  0  0  0
  1  5  2  0  0  0
  2  4  1  0  0  0
  2  8  2  0  0  0
  3 10  1  0  0  0
  3 15  2  0  0  0
  4  6  2  0  0  0
  4 21  1  0  0  0
  5  7  1  0  0  0
  5 29  1  0  0  0
  6 20  1  0  0  0
  6  9  1  0  0  0
  7 15  1  0  0  0
  8 11  1  0  0  0
  8 30  1  0  0  0
  9 11  2  0  0  0
  9 31  1  0  0  0
 10 14  2  0  0  0
 10 32  1  0  0  0
 11 22  1  0  0  0
 12 14  1  0  0  0
 12 13  2  0  0  0
 12 24  1  0  0  0
 13 16  1  0  0  0
 13 33  1  0  0  0
 14 17  1  0  0  0
 15 19  1  0  0  0
 16 18  2  0  0  0
 16 23  1  0  0  0
 17 19  2  0  0  0
 17 34  1  0  0  0
 19 35  1  0  0  0
 20 25  1  0  0  0
 20 26  1  0  0  0
 20 36  1  0  0  0
 21 37  1  0  0  0
 22 27  1  0  0  0
 22 28  1  0  0  0
 22 38  1  0  0  0
 23 39  1  0  0  0
 24 40  1  0  0  0
 24 41  1  0  0  0
 24 42  1  0  0  0
 25 43  1  0  0  0
 25 44  1  0  0  0
 25 45  1  0  0  0
 26 46  1  0  0  0
 26 47  1  0  0  0
 26 48  1  0  0  0
 27 49  1  0  0  0
 27 50  1  0  0  0
 27 51  1  0  0  0
 28 52  1  0  0  0
 28 53  1  0  0  0
 28 54  1  0  0  0
M  END
> <s_m_entry_id>
30934

> <s_m_entry_name>
dock_pv.147

> <s_m_Source_Path>
/home/csk/Desktop/cluster/DUD-E-result/rxra

> <s_m_Source_File>
dock_pv.maegz

> <i_m_Source_File_Index>
147

> <chembl_id>
CHEMBL93571

> <chembl_pref_name>
None

> <i_lp_mmshare_version>
53161

> <r_lp_tautomer_probability>
0.999999999997365

> <s_lp_Force_Field>
OPLS_2005

> <r_lp_Energy>
23.986499

> <b_lp_Chiralities_Consistent>
1

> <s_lp_Variant>
CHEMBL2061_lig348-1

> <s_i_glide_gridfile>
glide-grid_1mv9

> <i_i_glide_lignum>
408

> <i_i_glide_rotatable_bonds>
7

> <r_i_docking_score>
-10.8203857671231

> <r_i_glide_ligand_efficiency>
-0.386442348825826

> <r_i_glide_ligand_efficiency_sa>
-1.17346657340682

> <r_i_glide_ligand_efficiency_ln>
-2.49766273538308

> <r_i_glide_gscore>
-10.8203857671231

> <r_i_glide_lipo>
-6.54323456565911

> <r_i_glide_hbond>
0

> <r_i_glide_metal>
0

> <r_i_glide_rewards>
-1.83291516923871

> <r_i_glide_evdw>
-47.7862167358398

> <r_i_glide_ecoul>
-2.87764072418213

> <r_i_glide_erotb>
0.376720913194005

> <r_i_glide_esite>
0

> <r_i_glide_emodel>
-72.2115481683023

> <r_i_glide_energy>
-50.663857460022

> <r_i_glide_einternal>
1.28697443008423

> <i_i_glide_confnum>
14

> <i_i_glide_posenum>
6

> <r_i_glide_eff_state_penalty>
0

> <s_user_duplicate_titles>
CHEMBL2061_lig348,151286

> <i_f3d_flags>
0

> <s_m_subgroup_title>
dock_pv

> <s_m_subgroupid>
dock_pv

> <b_m_subgroup_collapsed>
1

$$$$
CHEMBL2061_lig451
                    3D
 Schrodinger Suite 2021-1.
 61 63  0  0  1  0            999 V2000
   63.9527   46.7742   35.4567 C   0  0  0  0  0  0
   64.8393   45.5522   35.2185 C   0  0  0  0  0  0
   65.4448   45.4968   33.7897 C   0  0  0  0  0  0
   63.1806   47.1018   34.3806 N   0  0  0  0  0  0
   63.9728   47.3487   36.5389 O   0  0  0  0  0  0
   66.1384   44.1370   33.7058 C   0  0  0  0  0  0
   66.4495   46.6377   33.5337 C   0  0  0  0  0  0
   63.1782   46.3949   33.1377 C   0  0  0  0  0  0
   64.3030   45.6212   32.7821 C   0  0  0  0  0  0
   64.3564   45.0210   31.5198 C   0  0  0  0  0  0
   63.3341   45.1843   30.5947 C   0  0  0  0  0  0
   62.2155   45.9582   30.9391 C   0  0  0  0  0  0
   62.1344   46.5145   32.2120 C   0  0  0  0  0  0
   61.1446   46.2574   29.9679 C   0  0  0  0  0  0
   59.8416   45.8039   30.1846 C   0  0  0  0  0  0
   58.8307   46.0284   29.2607 C   0  0  0  0  0  0
   59.1590   46.7194   28.0952 C   0  0  0  0  0  0
   60.4375   47.2296   27.8808 C   0  0  0  0  0  0
   61.4439   47.0126   28.8301 C   0  0  0  0  0  0
   57.4285   45.4762   29.5460 C   0  0  0  0  0  0
   56.2687   46.2246   28.8456 C   0  0  0  0  0  0
   54.8735   45.9790   29.4300 C   0  0  0  0  0  0
   53.9835   46.8870   28.9390 O   0  0  0  0  0  0
   54.5958   45.1050   30.2487 O   0  0  0  0  0  0
   62.7357   47.5033   28.7459 O   0  0  0  0  0  0
   63.2012   48.1088   27.5596 C   0  0  0  0  0  0
   64.4929   48.3688   27.6930 F   0  0  0  0  0  0
   63.0904   47.2776   26.5390 F   0  0  0  0  0  0
   62.5694   49.2542   27.3391 F   0  0  0  0  0  0
   62.1936   48.1885   34.6310 C   0  0  0  0  0  0
   63.4586   44.4766   29.2504 C   0  0  0  0  0  0
   60.8237   47.6641   35.1148 C   0  0  0  0  0  0
   62.2106   49.3289   33.5885 C   0  0  0  0  0  0
   65.6080   45.5685   35.9835 H   0  0  0  0  0  0
   64.2176   44.6779   35.4200 H   0  0  0  0  0  0
   66.8212   44.0640   34.5389 H   0  0  0  0  0  0
   65.4522   43.2890   33.7318 H   0  0  0  0  0  0
   66.7612   44.0773   32.8238 H   0  0  0  0  0  0
   67.3403   46.4770   34.1384 H   0  0  0  0  0  0
   66.7805   46.6458   32.4952 H   0  0  0  0  0  0
   66.0439   47.6261   33.7520 H   0  0  0  0  0  0
   65.2163   44.4343   31.2363 H   0  0  0  0  0  0
   61.2535   47.0911   32.4399 H   0  0  0  0  0  0
   59.5984   45.2773   31.0880 H   0  0  0  0  0  0
   58.4103   46.8763   27.3397 H   0  0  0  0  0  0
   60.6247   47.7874   26.9760 H   0  0  0  0  0  0
   57.2723   45.5036   30.6272 H   0  0  0  0  0  0
   57.4184   44.4219   29.2628 H   0  0  0  0  0  0
   56.2530   45.9858   27.7816 H   0  0  0  0  0  0
   56.4577   47.2902   28.9389 H   0  0  0  0  0  0
   54.4101   47.4928   28.3286 H   0  0  0  0  0  0
   62.5051   48.7366   35.5231 H   0  0  0  0  0  0
   64.0074   43.5387   29.3510 H   0  0  0  0  0  0
   62.4840   44.2109   28.8393 H   0  0  0  0  0  0
   63.9883   45.1095   28.5388 H   0  0  0  0  0  0
   60.1446   48.4831   35.3391 H   0  0  0  0  0  0
   60.3310   47.0066   34.4009 H   0  0  0  0  0  0
   60.9382   47.1188   36.0523 H   0  0  0  0  0  0
   61.4266   50.0770   33.7371 H   0  0  0  0  0  0
   63.1303   49.8934   33.7390 H   0  0  0  0  0  0
   62.1625   49.0311   32.5449 H   0  0  0  0  0  0
  1  5  2  0  0  0
  1  2  1  0  0  0
  1  4  1  0  0  0
  2  3  1  0  0  0
  2 34  1  0  0  0
  2 35  1  0  0  0
  3  9  1  0  0  0
  3  6  1  0  0  0
  3  7  1  0  0  0
  4  8  1  0  0  0
  4 30  1  0  0  0
  6 36  1  0  0  0
  6 37  1  0  0  0
  6 38  1  0  0  0
  7 39  1  0  0  0
  7 40  1  0  0  0
  7 41  1  0  0  0
  8  9  2  0  0  0
  8 13  1  0  0  0
  9 10  1  0  0  0
 10 11  2  0  0  0
 10 42  1  0  0  0
 11 12  1  0  0  0
 11 31  1  0  0  0
 12 14  1  0  0  0
 12 13  2  0  0  0
 13 43  1  0  0  0
 14 19  1  0  0  0
 14 15  2  0  0  0
 15 16  1  0  0  0
 15 44  1  0  0  0
 16 17  2  0  0  0
 16 20  1  0  0  0
 17 18  1  0  0  0
 17 45  1  0  0  0
 18 19  2  0  0  0
 18 46  1  0  0  0
 19 25  1  0  0  0
 20 21  1  0  0  0
 20 47  1  0  0  0
 20 48  1  0  0  0
 21 22  1  0  0  0
 21 49  1  0  0  0
 21 50  1  0  0  0
 22 23  1  0  0  0
 22 24  2  0  0  0
 23 51  1  0  0  0
 25 26  1  0  0  0
 26 27  1  0  0  0
 26 28  1  0  0  0
 26 29  1  0  0  0
 30 32  1  0  0  0
 30 33  1  0  0  0
 30 52  1  0  0  0
 31 53  1  0  0  0
 31 54  1  0  0  0
 31 55  1  0  0  0
 32 56  1  0  0  0
 32 57  1  0  0  0
 32 58  1  0  0  0
 33 59  1  0  0  0
 33 60  1  0  0  0
 33 61  1  0  0  0
M  END
> <s_m_entry_id>
30935

> <s_m_entry_name>
dock_pv.148

> <s_m_Source_Path>
/home/csk/Desktop/cluster/DUD-E-result/rxra

> <s_m_Source_File>
dock_pv.maegz

> <i_m_Source_File_Index>
148

> <chembl_id>
CHEMBL399461

> <chembl_pref_name>
None

> <i_lp_mmshare_version>
53161

> <r_lp_tautomer_probability>
1

> <s_lp_Force_Field>
OPLS_2005

> <r_lp_Energy>
38.511584

> <b_lp_Chiralities_Consistent>
1

> <s_lp_Variant>
CHEMBL2061_lig451-1

> <s_i_glide_gridfile>
glide-grid_1mv9

> <i_i_glide_lignum>
527

> <i_i_glide_rotatable_bonds>
8

> <r_i_docking_score>
-10.8165723980849

> <r_i_glide_ligand_efficiency>
-0.327774921154088

> <r_i_glide_ligand_efficiency_sa>
-1.05134931088806

> <r_i_glide_ligand_efficiency_ln>
-2.40554969611954

> <r_i_glide_gscore>
-10.8165723980849

> <r_i_glide_lipo>
-6.02524815679006

> <r_i_glide_hbond>
0

> <r_i_glide_metal>
0

> <r_i_glide_rewards>
-2.72011576281174

> <r_i_glide_evdw>
-40.7172546386719

> <r_i_glide_ecoul>
-3.36257719993591

> <r_i_glide_erotb>
0.46904083344087

> <r_i_glide_esite>
0

> <r_i_glide_emodel>
-56.7631200929788

> <r_i_glide_energy>
-44.0798318386078

> <r_i_glide_einternal>
5.71612405776978

> <i_i_glide_confnum>
103

> <i_i_glide_posenum>
228

> <r_i_glide_eff_state_penalty>
0

> <s_user_duplicate_titles>
CHEMBL2061_lig451,414659

> <i_f3d_flags>
0

> <s_m_subgroup_title>
dock_pv

> <s_m_subgroupid>
dock_pv

> <b_m_subgroup_collapsed>
1

$$$$
CHEMBL2061_lig300
                    3D
 Schrodinger Suite 2021-1.
 55 58  0  0  1  0            999 V2000
   61.0048   46.6976   29.5508 C   0  0  2  0  0  0
   61.0157   48.0769   29.2678 O   0  0  0  0  0  0
   62.0587   46.2661   30.5798 C   0  0  0  0  0  0
   62.9298   46.4673   32.8754 C   0  0  0  0  0  0
   64.0053   45.6016   32.5308 C   0  0  0  0  0  0
   61.5057   47.2759   28.2411 C   0  0  0  0  0  0
   62.0361   46.8377   31.8553 C   0  0  0  0  0  0
   64.0310   45.0568   31.2349 C   0  0  0  0  0  0
   63.0657   45.3458   30.2733 C   0  0  0  0  0  0
   65.1024   45.1809   33.5392 C   0  0  0  0  0  0
   62.6998   46.9859   34.3229 C   0  0  0  0  0  0
   55.4467   45.0217   30.2853 C   0  0  0  0  0  0
   59.5814   46.1077   29.6934 C   0  0  0  0  0  0
   56.9039   45.2979   30.0532 C   0  0  0  0  0  0
   65.0158   46.0193   34.8412 C   0  0  0  0  0  0
   63.5837   46.2092   35.3350 C   0  0  0  0  0  0
   54.8735   45.2770   31.3390 O   0  0  0  0  0  0
   58.6921   46.0771   28.6128 C   0  0  0  0  0  0
   59.1135   45.6770   30.9389 C   0  0  0  0  0  0
   57.7969   45.2770   31.1234 C   0  0  0  0  0  0
   57.3668   45.6857   28.7923 C   0  0  0  0  0  0
   54.8080   44.4770   29.2256 O   0  0  0  0  0  0
   63.1129   44.6119   28.9391 C   0  0  0  0  0  0
   63.0680   48.4826   34.3992 C   0  0  0  0  0  0
   61.2334   46.7274   34.7579 C   0  0  0  0  0  0
   64.9088   43.6844   33.8888 C   0  0  0  0  0  0
   66.4998   45.4736   32.9439 C   0  0  0  0  0  0
   62.5746   47.3712   28.0501 H   0  0  0  0  0  0
   60.9158   47.2616   27.3271 H   0  0  0  0  0  0
   61.2551   47.5505   32.0735 H   0  0  0  0  0  0
   64.8086   44.3531   30.9776 H   0  0  0  0  0  0
   65.4628   47.0017   34.6892 H   0  0  0  0  0  0
   65.6080   45.5588   35.6319 H   0  0  0  0  0  0
   63.6020   46.7217   36.2984 H   0  0  0  0  0  0
   63.1615   45.2270   35.5459 H   0  0  0  0  0  0
   58.9932   46.4027   27.6307 H   0  0  0  0  0  0
   59.7476   45.6899   31.8095 H   0  0  0  0  0  0
   57.4783   45.0086   32.1194 H   0  0  0  0  0  0
   56.7011   45.7400   27.9424 H   0  0  0  0  0  0
   55.4197   44.1742   28.5497 H   0  0  0  0  0  0
   63.6357   43.6585   29.0267 H   0  0  0  0  0  0
   62.1074   44.3717   28.5917 H   0  0  0  0  0  0
   63.6080   45.2157   28.1796 H   0  0  0  0  0  0
   62.9233   48.8768   35.4061 H   0  0  0  0  0  0
   64.1078   48.6655   34.1390 H   0  0  0  0  0  0
   62.4525   49.0818   33.7274 H   0  0  0  0  0  0
   61.0689   47.0233   35.7948 H   0  0  0  0  0  0
   60.5130   47.2770   34.1585 H   0  0  0  0  0  0
   60.9637   45.6770   34.6723 H   0  0  0  0  0  0
   65.6490   43.3533   34.6162 H   0  0  0  0  0  0
   63.9216   43.4765   34.3014 H   0  0  0  0  0  0
   65.0269   43.0468   33.0122 H   0  0  0  0  0  0
   67.2850   45.2523   33.6683 H   0  0  0  0  0  0
   66.7099   44.8769   32.0574 H   0  0  0  0  0  0
   66.6057   46.5214   32.6577 H   0  0  0  0  0  0
  1  2  1  0  0  0
  1  3  1  0  0  0
  1  6  1  0  0  0
  1 13  1  0  0  0
  2  6  1  0  0  0
  3  7  2  0  0  0
  3  9  1  0  0  0
  4  7  1  0  0  0
  4 11  1  0  0  0
  4  5  2  0  0  0
  5  8  1  0  0  0
  5 10  1  0  0  0
  6 28  1  0  0  0
  6 29  1  0  0  0
  7 30  1  0  0  0
  8  9  2  0  0  0
  8 31  1  0  0  0
  9 23  1  0  0  0
 10 15  1  0  0  0
 10 26  1  0  0  0
 10 27  1  0  0  0
 11 16  1  0  0  0
 11 24  1  0  0  0
 11 25  1  0  0  0
 12 14  1  0  0  0
 12 17  2  0  0  0
 12 22  1  0  0  0
 13 18  2  0  0  0
 13 19  1  0  0  0
 14 20  1  0  0  0
 14 21  2  0  0  0
 15 16  1  0  0  0
 15 32  1  0  0  0
 15 33  1  0  0  0
 16 34  1  0  0  0
 16 35  1  0  0  0
 18 21  1  0  0  0
 18 36  1  0  0  0
 19 20  2  0  0  0
 19 37  1  0  0  0
 20 38  1  0  0  0
 21 39  1  0  0  0
 22 40  1  0  0  0
 23 41  1  0  0  0
 23 42  1  0  0  0
 23 43  1  0  0  0
 24 44  1  0  0  0
 24 45  1  0  0  0
 24 46  1  0  0  0
 25 47  1  0  0  0
 25 48  1  0  0  0
 25 49  1  0  0  0
 26 50  1  0  0  0
 26 51  1  0  0  0
 26 52  1  0  0  0
 27 53  1  0  0  0
 27 54  1  0  0  0
 27 55  1  0  0  0
M  END
> <s_m_entry_id>
30936

> <s_m_entry_name>
dock_pv.149

> <s_m_Source_Path>
/home/csk/Desktop/cluster/DUD-E-result/rxra

> <s_m_Source_File>
dock_pv.maegz

> <i_m_Source_File_Index>
149

> <chembl_id>
CHEMBL106817

> <chembl_pref_name>
None

> <i_lp_mmshare_version>
53161

> <r_lp_tautomer_probability>
1

> <s_lp_Force_Field>
OPLS_2005

> <r_lp_Energy>
33.443371

> <b_lp_Chiralities_Consistent>
1

> <s_lp_Variant>
CHEMBL2061_lig300-1

> <s_i_glide_gridfile>
glide-grid_1mv9

> <i_i_glide_lignum>
346

> <i_i_glide_rotatable_bonds>
4

> <r_i_docking_score>
-10.8095171849736

> <r_i_glide_ligand_efficiency>
-0.400352488332355

> <r_i_glide_ligand_efficiency_sa>
-1.20105746367757

> <r_i_glide_ligand_efficiency_ln>
-2.51627739184328

> <r_i_glide_gscore>
-10.8095171849736

> <r_i_glide_lipo>
-6.42716417367283

> <r_i_glide_hbond>
-0.00817487943277471

> <r_i_glide_metal>
0

> <r_i_glide_rewards>
-2.17477532133362

> <r_i_glide_evdw>
-43.5227813720703

> <r_i_glide_ecoul>
-3.04950833320618

> <r_i_glide_erotb>
0.434162508050075

> <r_i_glide_esite>
0

> <r_i_glide_emodel>
-70.3827304775347

> <r_i_glide_energy>
-46.5722897052765

> <r_i_glide_einternal>
7.6700611114502

> <i_i_glide_confnum>
10

> <i_i_glide_posenum>
276

> <r_i_glide_eff_state_penalty>
0

> <s_user_duplicate_titles>
CHEMBL2061_lig300,176177

> <i_f3d_flags>
0

> <s_m_subgroup_title>
dock_pv

> <s_m_subgroupid>
dock_pv

> <b_m_subgroup_collapsed>
1

$$$$
CHEMBL2061_lig347
                    3D
 Schrodinger Suite 2021-1.
 60 62  0  0  1  0            999 V2000
   62.4911   46.5711   30.1128 C   0  0  0  0  0  0
   63.0753   46.4060   31.4515 C   0  0  0  0  0  0
   63.2084   46.8771   28.9839 N   0  0  0  0  0  0
   61.1519   46.4509   29.6779 C   0  0  0  0  0  0
   64.2162   45.6294   31.6832 C   0  0  0  0  0  0
   64.7241   45.5357   32.9894 C   0  0  0  0  0  0
   62.4884   47.0820   27.8760 N   0  0  0  0  0  0
   62.4066   47.0203   32.5080 C   0  0  0  0  0  0
   59.9267   46.0751   30.2547 C   0  0  0  0  0  0
   64.0529   46.1740   34.0379 C   0  0  0  0  0  0
   62.8913   46.9084   33.8056 C   0  0  0  0  0  0
   57.4746   45.5142   29.9890 C   0  0  0  0  0  0
   56.2961   46.0660   29.5902 C   0  0  0  0  0  0
   61.2200   46.8224   28.3088 C   0  0  0  0  0  0
   58.7726   46.0322   29.4591 C   0  0  0  0  0  0
   54.9503   45.6778   29.9621 C   0  0  0  0  0  0
   58.8615   46.4767   28.1412 C   0  0  0  0  0  0
   54.6241   44.8103   30.7692 O   0  0  0  0  0  0
   60.0563   46.8787   27.5584 C   0  0  0  0  0  0
   65.9613   44.7046   33.3014 C   0  0  0  0  0  0
   64.8192   44.9741   30.6303 O   0  0  0  0  0  0
   62.1253   47.5398   34.9559 C   0  0  0  0  0  0
   54.0346   46.4764   29.3388 O   0  0  0  0  0  0
   57.6082   44.3101   30.9139 C   0  0  0  0  0  0
   65.5480   43.3872   33.9726 C   0  0  0  0  0  0
   66.9935   45.4773   34.1390 C   0  0  0  0  0  0
   64.4077   43.6192   30.4300 C   0  0  0  0  0  0
   63.0164   48.4010   35.8637 C   0  0  0  0  0  0
   61.3592   46.4622   35.7300 C   0  0  0  0  0  0
   63.3621   43.5126   29.3141 C   0  0  0  0  0  0
   64.2142   46.9685   28.9787 H   0  0  0  0  0  0
   61.5094   47.5921   32.3176 H   0  0  0  0  0  0
   59.8911   45.7758   31.2915 H   0  0  0  0  0  0
   64.4123   46.0705   35.0503 H   0  0  0  0  0  0
   56.3365   46.9093   28.9208 H   0  0  0  0  0  0
   57.9858   46.4642   27.5257 H   0  0  0  0  0  0
   60.0995   47.2005   26.5390 H   0  0  0  0  0  0
   66.4671   44.4771   32.3647 H   0  0  0  0  0  0
   61.3837   48.2192   34.5388 H   0  0  0  0  0  0
   54.4612   47.0946   28.7422 H   0  0  0  0  0  0
   58.4245   43.6771   30.5739 H   0  0  0  0  0  0
   57.8405   44.6462   31.9238 H   0  0  0  0  0  0
   56.7256   43.6776   30.9390 H   0  0  0  0  0  0
   64.8429   42.8174   33.3697 H   0  0  0  0  0  0
   66.4079   42.7494   34.1390 H   0  0  0  0  0  0
   65.0772   43.5690   34.9391 H   0  0  0  0  0  0
   67.2887   46.3997   33.6392 H   0  0  0  0  0  0
   66.6026   45.7500   35.1158 H   0  0  0  0  0  0
   67.8892   44.8797   34.3031 H   0  0  0  0  0  0
   65.2896   43.0488   30.1390 H   0  0  0  0  0  0
   64.0246   43.1487   31.3356 H   0  0  0  0  0  0
   63.6086   49.1070   35.2813 H   0  0  0  0  0  0
   62.3938   48.9839   36.5389 H   0  0  0  0  0  0
   63.7002   47.8034   36.4674 H   0  0  0  0  0  0
   60.6443   45.9517   35.0839 H   0  0  0  0  0  0
   62.0296   45.7059   36.1386 H   0  0  0  0  0  0
   60.8081   46.9100   36.5496 H   0  0  0  0  0  0
   63.2016   42.4770   29.0204 H   0  0  0  0  0  0
   62.4011   43.9094   29.6310 H   0  0  0  0  0  0
   63.6672   44.0704   28.4311 H   0  0  0  0  0  0
  1  2  1  0  0  0
  1  3  1  0  0  0
  1  4  2  0  0  0
  2  5  2  0  0  0
  2  8  1  0  0  0
  3  7  1  0  0  0
  3 31  1  0  0  0
  4  9  1  0  0  0
  4 14  1  0  0  0
  5  6  1  0  0  0
  5 21  1  0  0  0
  6 20  1  0  0  0
  6 10  2  0  0  0
  7 14  2  0  0  0
  8 11  2  0  0  0
  8 32  1  0  0  0
  9 15  2  0  0  0
  9 33  1  0  0  0
 10 11  1  0  0  0
 10 34  1  0  0  0
 11 22  1  0  0  0
 12 15  1  0  0  0
 12 13  2  0  0  0
 12 24  1  0  0  0
 13 16  1  0  0  0
 13 35  1  0  0  0
 14 19  1  0  0  0
 15 17  1  0  0  0
 16 18  2  0  0  0
 16 23  1  0  0  0
 17 19  2  0  0  0
 17 36  1  0  0  0
 19 37  1  0  0  0
 20 25  1  0  0  0
 20 26  1  0  0  0
 20 38  1  0  0  0
 21 27  1  0  0  0
 22 28  1  0  0  0
 22 29  1  0  0  0
 22 39  1  0  0  0
 23 40  1  0  0  0
 24 41  1  0  0  0
 24 42  1  0  0  0
 24 43  1  0  0  0
 25 44  1  0  0  0
 25 45  1  0  0  0
 25 46  1  0  0  0
 26 47  1  0  0  0
 26 48  1  0  0  0
 26 49  1  0  0  0
 27 30  1  0  0  0
 27 50  1  0  0  0
 27 51  1  0  0  0
 28 52  1  0  0  0
 28 53  1  0  0  0
 28 54  1  0  0  0
 29 55  1  0  0  0
 29 56  1  0  0  0
 29 57  1  0  0  0
 30 58  1  0  0  0
 30 59  1  0  0  0
 30 60  1  0  0  0
M  END
> <s_m_entry_id>
30937

> <s_m_entry_name>
dock_pv.150

> <s_m_Source_Path>
/home/csk/Desktop/cluster/DUD-E-result/rxra

> <s_m_Source_File>
dock_pv.maegz

> <i_m_Source_File_Index>
150

> <chembl_id>
CHEMBL91979

> <chembl_pref_name>
None

> <i_lp_mmshare_version>
53161

> <r_lp_tautomer_probability>
1

> <s_lp_Force_Field>
OPLS_2005

> <r_lp_Energy>
44.003953

> <b_lp_Chiralities_Consistent>
1

> <s_lp_Variant>
CHEMBL2061_lig347-1

> <s_i_glide_gridfile>
glide-grid_1mv9

> <i_i_glide_lignum>
407

> <i_i_glide_rotatable_bonds>
8

> <r_i_docking_score>
-10.8091826899772

> <r_i_glide_ligand_efficiency>
-0.360306089665906

> <r_i_glide_ligand_efficiency_sa>
-1.11955479263375

> <r_i_glide_ligand_efficiency_ln>
-2.4559640826413

> <r_i_glide_gscore>
-10.8091826899772

> <r_i_glide_lipo>
-6.49621459557584

> <r_i_glide_hbond>
-0.0778566978395013

> <r_i_glide_metal>
0

> <r_i_glide_rewards>
-1.65445639190054

> <r_i_glide_evdw>
-52.2363739013672

> <r_i_glide_ecoul>
-2.96517944335938

> <r_i_glide_erotb>
0.475940606910962

> <r_i_glide_esite>
0

> <r_i_glide_emodel>
-82.9152780169818

> <r_i_glide_energy>
-55.2015533447266

> <r_i_glide_einternal>
2.99290418624878

> <i_i_glide_confnum>
46

> <i_i_glide_posenum>
1

> <r_i_glide_eff_state_penalty>
0

> <s_user_duplicate_titles>
CHEMBL2061_lig347,151318

> <i_f3d_flags>
0

> <s_m_subgroup_title>
dock_pv

> <s_m_subgroupid>
dock_pv

> <b_m_subgroup_collapsed>
1

$$$$
CHEMBL2061_lig406
                    3D
 Schrodinger Suite 2021-1.
 62 65  0  0  1  0            999 V2000
   62.4462   46.8196   29.4860 C   0  0  1  0  0  0
   61.0882   46.7368   28.8137 C   0  0  2  0  0  0
   61.7901   48.0765   28.9147 C   0  0  0  0  0  0
   63.9447   45.8614   32.9073 C   0  0  0  0  0  0
   62.7342   46.8020   30.9890 C   0  0  0  0  0  0
   63.0942   46.5873   33.7766 C   0  0  0  0  0  0
   63.7221   45.9726   31.5253 C   0  0  0  0  0  0
   59.8183   46.4222   29.5951 C   0  0  0  0  0  0
   65.0613   44.9386   33.4347 C   0  0  0  0  0  0
   63.0938   46.4379   35.3044 C   0  0  0  0  0  0
   62.1838   47.4856   33.2252 C   0  0  0  0  0  0
   56.2458   45.9332   29.0716 C   0  0  0  0  0  0
   58.6371   46.0880   29.0345 C   0  0  0  0  0  0
   54.9041   45.7017   29.5507 C   0  0  0  0  0  0
   57.4089   45.7502   29.7505 C   0  0  0  0  0  0
   61.9937   47.5901   31.8655 C   0  0  0  0  0  0
   65.3131   45.2057   34.9395 C   0  0  0  0  0  0
   64.0205   45.2764   35.7525 C   0  0  0  0  0  0
   53.9732   46.4777   29.3403 O   0  0  0  0  0  0
   63.5268   46.3360   28.4965 C   0  0  0  0  0  0
   61.3432   45.9763   27.5154 C   0  0  0  0  0  0
   54.7640   44.5167   30.2098 O   0  0  0  0  0  0
   62.8084   46.1600   27.1576 C   0  0  0  0  0  0
   64.6319   43.4638   33.2351 C   0  0  0  0  0  0
   66.3908   45.2767   32.7289 C   0  0  0  0  0  0
   63.6304   47.7592   35.8999 C   0  0  0  0  0  0
   61.6393   46.0946   35.7389 C   0  0  0  0  0  0
   57.4720   45.2764   31.2054 C   0  0  0  0  0  0
   62.1767   48.5557   28.0148 H   0  0  0  0  0  0
   61.4431   48.8372   29.5973 H   0  0  0  0  0  0
   64.3253   45.3680   30.8685 H   0  0  0  0  0  0
   59.9100   46.4765   30.6663 H   0  0  0  0  0  0
   61.5848   48.0848   33.8868 H   0  0  0  0  0  0
   56.2588   46.3178   28.0612 H   0  0  0  0  0  0
   58.6012   46.0769   27.9538 H   0  0  0  0  0  0
   61.2159   48.2564   31.5359 H   0  0  0  0  0  0
   65.8591   46.1393   35.0799 H   0  0  0  0  0  0
   65.9659   44.4296   35.3387 H   0  0  0  0  0  0
   64.2573   45.3664   36.8143 H   0  0  0  0  0  0
   63.5213   44.3138   35.6677 H   0  0  0  0  0  0
   64.3708   47.0230   28.4257 H   0  0  0  0  0  0
   63.9226   45.3645   28.7921 H   0  0  0  0  0  0
   61.2074   44.9121   27.7046 H   0  0  0  0  0  0
   60.6658   46.2793   26.7167 H   0  0  0  0  0  0
   55.6018   44.0481   30.2122 H   0  0  0  0  0  0
   62.9474   47.0464   26.5388 H   0  0  0  0  0  0
   63.1753   45.3090   26.5892 H   0  0  0  0  0  0
   65.3876   42.7784   33.6167 H   0  0  0  0  0  0
   63.6912   43.2264   33.7323 H   0  0  0  0  0  0
   64.4978   43.2267   32.1798 H   0  0  0  0  0  0
   67.2078   44.7292   33.1929 H   0  0  0  0  0  0
   66.3867   44.9999   31.6748 H   0  0  0  0  0  0
   66.6294   46.3406   32.7898 H   0  0  0  0  0  0
   63.8407   47.6722   36.9627 H   0  0  0  0  0  0
   64.5502   48.0759   35.4081 H   0  0  0  0  0  0
   62.9176   48.5759   35.7857 H   0  0  0  0  0  0
   61.6038   45.3577   36.5388 H   0  0  0  0  0  0
   61.1097   46.9800   36.0919 H   0  0  0  0  0  0
   61.0376   45.6774   34.9309 H   0  0  0  0  0  0
   58.1851   45.8704   31.7754 H   0  0  0  0  0  0
   56.5359   45.4027   31.7470 H   0  0  0  0  0  0
   57.8152   44.2425   31.2590 H   0  0  0  0  0  0
  1  2  1  0  0  0
  1  3  1  0  0  0
  1  5  1  0  0  0
  1 20  1  0  0  0
  2  8  1  0  0  0
  2 21  1  0  0  0
  2  3  1  0  0  0
  3 29  1  0  0  0
  3 30  1  0  0  0
  4  7  1  0  0  0
  4  9  1  0  0  0
  4  6  2  0  0  0
  5  7  2  0  0  0
  5 16  1  0  0  0
  6 11  1  0  0  0
  6 10  1  0  0  0
  7 31  1  0  0  0
  8 13  2  0  0  0
  8 32  1  0  0  0
  9 17  1  0  0  0
  9 24  1  0  0  0
  9 25  1  0  0  0
 10 18  1  0  0  0
 10 26  1  0  0  0
 10 27  1  0  0  0
 11 16  2  0  0  0
 11 33  1  0  0  0
 12 15  2  0  0  0
 12 14  1  0  0  0
 12 34  1  0  0  0
 13 15  1  0  0  0
 13 35  1  0  0  0
 14 19  2  0  0  0
 14 22  1  0  0  0
 15 28  1  0  0  0
 16 36  1  0  0  0
 17 18  1  0  0  0
 17 37  1  0  0  0
 17 38  1  0  0  0
 18 39  1  0  0  0
 18 40  1  0  0  0
 20 23  1  0  0  0
 20 41  1  0  0  0
 20 42  1  0  0  0
 21 23  1  0  0  0
 21 43  1  0  0  0
 21 44  1  0  0  0
 22 45  1  0  0  0
 23 46  1  0  0  0
 23 47  1  0  0  0
 24 48  1  0  0  0
 24 49  1  0  0  0
 24 50  1  0  0  0
 25 51  1  0  0  0
 25 52  1  0  0  0
 25 53  1  0  0  0
 26 54  1  0  0  0
 26 55  1  0  0  0
 26 56  1  0  0  0
 27 57  1  0  0  0
 27 58  1  0  0  0
 27 59  1  0  0  0
 28 60  1  0  0  0
 28 61  1  0  0  0
 28 62  1  0  0  0
M  END
> <s_m_entry_id>
30938

> <s_m_entry_name>
dock_pv.151

> <s_m_Source_Path>
/home/csk/Desktop/cluster/DUD-E-result/rxra

> <s_m_Source_File>
dock_pv.maegz

> <i_m_Source_File_Index>
151

> <chembl_id>
CHEMBL310047

> <chembl_pref_name>
None

> <i_lp_mmshare_version>
53161

> <r_lp_tautomer_probability>
1

> <s_lp_Force_Field>
OPLS_2005

> <r_lp_Energy>
51.357512

> <b_lp_Chiralities_Consistent>
1

> <s_lp_Variant>
CHEMBL2061_lig406-1

> <s_i_glide_gridfile>
glide-grid_1mv9

> <i_i_glide_lignum>
477

> <i_i_glide_rotatable_bonds>
5

> <r_i_docking_score>
-10.8022805100761

> <r_i_glide_ligand_efficiency>
-0.385795732502718

> <r_i_glide_ligand_efficiency_sa>
-1.17150306541322

> <r_i_glide_ligand_efficiency_ln>
-2.49348351046318

> <r_i_glide_gscore>
-10.8022805100761

> <r_i_glide_lipo>
-6.63173956482451

> <r_i_glide_hbond>
-0.0931465112327601

> <r_i_glide_metal>
0

> <r_i_glide_rewards>
-1.89153182310188

> <r_i_glide_evdw>
-46.7375183105469

> <r_i_glide_ecoul>
-2.59978246688843

> <r_i_glide_erotb>
0.540980674643655

> <r_i_glide_esite>
0

> <r_i_glide_emodel>
-55.8266716300485

> <r_i_glide_energy>
-49.3373007774353

> <r_i_glide_einternal>
8.02250957489014

> <i_i_glide_confnum>
114

> <i_i_glide_posenum>
120

> <r_i_glide_eff_state_penalty>
0

> <s_user_duplicate_titles>
CHEMBL2061_lig406,125225

> <i_f3d_flags>
0

> <s_m_subgroup_title>
dock_pv

> <s_m_subgroupid>
dock_pv

> <b_m_subgroup_collapsed>
1

$$$$
CHEMBL2061_lig291
                    3D
 Schrodinger Suite 2021-1.
 54 56  0  0  1  0            999 V2000
   62.5589   46.5488   32.6589 C   0  0  0  0  0  0
   63.6736   45.7652   32.3495 C   0  0  0  0  0  0
   62.5195   46.9284   34.1324 C   0  0  0  0  0  0
   64.5687   45.5646   33.5623 C   0  0  0  0  0  0
   61.7748   46.3625   30.3590 C   0  0  0  0  0  0
   63.6331   46.0147   34.7223 C   0  0  1  0  0  0
   60.7355   46.6893   29.3438 C   0  0  0  0  0  0
   61.6478   46.8769   31.6555 C   0  0  0  0  0  0
   63.8493   45.2965   31.0457 C   0  0  0  0  0  0
   62.9013   45.5700   30.0549 C   0  0  0  0  0  0
   55.1469   45.2378   30.0840 C   0  0  0  0  0  0
   59.3379   46.1503   29.5041 C   0  0  0  0  0  0
   56.6188   45.4368   29.8490 C   0  0  0  0  0  0
   61.1084   47.4587   28.2961 C   0  0  0  0  0  0
   54.6920   44.4771   30.9373 O   0  0  0  0  0  0
   58.8531   45.6769   30.7311 C   0  0  0  0  0  0
   58.4396   46.1630   28.4318 C   0  0  0  0  0  0
   57.0966   45.8334   28.5977 C   0  0  0  0  0  0
   57.5290   45.2780   30.8957 C   0  0  0  0  0  0
   54.3689   46.0767   29.3406 O   0  0  0  0  0  0
   62.7782   48.4422   34.3395 C   0  0  0  0  0  0
   61.1494   46.5878   34.7716 C   0  0  0  0  0  0
   64.9703   44.0791   33.7493 C   0  0  0  0  0  0
   65.8566   46.4160   33.4217 C   0  0  0  0  0  0
   64.3293   46.5623   35.9789 C   0  0  0  0  0  0
   63.1065   44.9568   28.6761 C   0  0  0  0  0  0
   63.1409   45.1090   35.0776 H   0  0  0  0  0  0
   60.8080   47.5086   31.8962 H   0  0  0  0  0  0
   64.7128   44.6937   30.8046 H   0  0  0  0  0  0
   62.1237   47.8207   28.2109 H   0  0  0  0  0  0
   60.4323   47.7556   27.5105 H   0  0  0  0  0  0
   59.4754   45.6770   31.6088 H   0  0  0  0  0  0
   58.7624   46.4698   27.4499 H   0  0  0  0  0  0
   56.4420   45.9076   27.7401 H   0  0  0  0  0  0
   57.2071   44.9696   31.8767 H   0  0  0  0  0  0
   54.9339   46.6406   28.8095 H   0  0  0  0  0  0
   62.6367   48.7269   35.3829 H   0  0  0  0  0  0
   63.7962   48.7234   34.0854 H   0  0  0  0  0  0
   62.1056   49.0547   33.7376 H   0  0  0  0  0  0
   61.1931   46.6422   35.8599 H   0  0  0  0  0  0
   60.3705   47.2769   34.4503 H   0  0  0  0  0  0
   60.8087   45.5887   34.5041 H   0  0  0  0  0  0
   65.5194   43.9277   34.6800 H   0  0  0  0  0  0
   64.0996   43.4214   33.7730 H   0  0  0  0  0  0
   65.6088   43.7308   32.9393 H   0  0  0  0  0  0
   66.5216   46.2811   34.2744 H   0  0  0  0  0  0
   66.4222   46.1364   32.5321 H   0  0  0  0  0  0
   65.6368   47.4804   33.3396 H   0  0  0  0  0  0
   64.8079   47.5048   35.7397 H   0  0  0  0  0  0
   63.6104   46.7690   36.7670 H   0  0  0  0  0  0
   65.0791   45.8743   36.3700 H   0  0  0  0  0  0
   63.7248   44.0598   28.7277 H   0  0  0  0  0  0
   62.1578   44.6436   28.2382 H   0  0  0  0  0  0
   63.5801   45.6768   28.0086 H   0  0  0  0  0  0
  1  2  2  0  0  0
  1  3  1  0  0  0
  1  8  1  0  0  0
  2  4  1  0  0  0
  2  9  1  0  0  0
  3  6  1  0  0  0
  3 21  1  0  0  0
  3 22  1  0  0  0
  4 23  1  0  0  0
  4 24  1  0  0  0
  4  6  1  0  0  0
  5  8  2  0  0  0
  5  7  1  0  0  0
  5 10  1  0  0  0
  6 25  1  0  0  0
  6 27  1  0  0  0
  7 12  1  0  0  0
  7 14  2  0  0  0
  8 28  1  0  0  0
  9 10  2  0  0  0
  9 29  1  0  0  0
 10 26  1  0  0  0
 11 13  1  0  0  0
 11 15  2  0  0  0
 11 20  1  0  0  0
 12 16  2  0  0  0
 12 17  1  0  0  0
 13 18  1  0  0  0
 13 19  2  0  0  0
 14 30  1  0  0  0
 14 31  1  0  0  0
 16 19  1  0  0  0
 16 32  1  0  0  0
 17 18  2  0  0  0
 17 33  1  0  0  0
 18 34  1  0  0  0
 19 35  1  0  0  0
 20 36  1  0  0  0
 21 37  1  0  0  0
 21 38  1  0  0  0
 21 39  1  0  0  0
 22 40  1  0  0  0
 22 41  1  0  0  0
 22 42  1  0  0  0
 23 43  1  0  0  0
 23 44  1  0  0  0
 23 45  1  0  0  0
 24 46  1  0  0  0
 24 47  1  0  0  0
 24 48  1  0  0  0
 25 49  1  0  0  0
 25 50  1  0  0  0
 25 51  1  0  0  0
 26 52  1  0  0  0
 26 53  1  0  0  0
 26 54  1  0  0  0
M  END
> <s_m_entry_id>
30939

> <s_m_entry_name>
dock_pv.152

> <s_m_Source_Path>
/home/csk/Desktop/cluster/DUD-E-result/rxra

> <s_m_Source_File>
dock_pv.maegz

> <i_m_Source_File_Index>
152

> <chembl_id>
CHEMBL106837

> <chembl_pref_name>
None

> <i_lp_mmshare_version>
53161

> <r_lp_tautomer_probability>
1

> <s_lp_Force_Field>
OPLS_2005

> <r_lp_Energy>
36.423397

> <b_lp_Chiralities_Consistent>
1

> <s_lp_Variant>
CHEMBL2061_lig291-1

> <s_i_glide_gridfile>
glide-grid_1mv9

> <i_i_glide_lignum>
336

> <i_i_glide_rotatable_bonds>
4

> <r_i_docking_score>
-10.8018076766617

> <r_i_glide_ligand_efficiency>
-0.415454141410066

> <r_i_glide_ligand_efficiency_sa>
-1.23078125919421

> <r_i_glide_ligand_efficiency_ln>
-2.53676908924211

> <r_i_glide_gscore>
-10.8018076766617

> <r_i_glide_lipo>
-6.40263233104243

> <r_i_glide_hbond>
-0.183349615526959

> <r_i_glide_metal>
0

> <r_i_glide_rewards>
-2.17299089541333

> <r_i_glide_evdw>
-43.0313415527344

> <r_i_glide_ecoul>
-2.41042304039001

> <r_i_glide_erotb>
0.470295699016224

> <r_i_glide_esite>
0

> <r_i_glide_emodel>
-70.7542498741534

> <r_i_glide_energy>
-45.4417645931244

> <r_i_glide_einternal>
3.94343090057373

> <i_i_glide_confnum>
9

> <i_i_glide_posenum>
215

> <r_i_glide_eff_state_penalty>
0

> <s_user_duplicate_titles>
CHEMBL2061_lig291

> <i_f3d_flags>
0

> <s_m_subgroup_title>
dock_pv

> <s_m_subgroupid>
dock_pv

> <b_m_subgroup_collapsed>
1

$$$$
CHEMBL2061_lig437
                    3D
 Schrodinger Suite 2021-1.
 57 59  0  0  1  0            999 V2000
   64.5315   46.2127   34.7810 C   0  0  0  0  0  0
   65.7838   45.8822   33.8742 C   0  0  0  0  0  0
   65.4457   44.8397   32.9377 O   0  0  0  0  0  0
   63.3928   46.2765   34.0349 N   0  0  0  0  0  0
   64.5649   46.3351   36.0097 O   0  0  0  0  0  0
   63.3445   45.9498   32.6614 C   0  0  0  0  0  0
   64.3621   45.1335   32.1517 C   0  0  0  0  0  0
   64.3045   44.5759   30.8849 C   0  0  0  0  0  0
   63.1994   44.8433   30.0836 C   0  0  0  0  0  0
   62.2077   45.7374   30.5417 C   0  0  0  0  0  0
   62.2914   46.2922   31.8185 C   0  0  0  0  0  0
   61.0452   46.0872   29.7152 C   0  0  0  0  0  0
   59.7626   45.7175   30.1384 C   0  0  0  0  0  0
   58.6519   45.8711   29.3175 C   0  0  0  0  0  0
   58.8733   46.4769   28.0842 C   0  0  0  0  0  0
   60.1257   46.9612   27.6910 C   0  0  0  0  0  0
   61.2421   46.7585   28.5042 C   0  0  0  0  0  0
   62.5594   47.0702   28.1864 O   0  0  0  0  0  0
   62.9734   48.0580   27.2484 C   0  0  0  0  0  0
   62.1310   46.6149   34.7280 C   0  0  0  0  0  0
   61.9631   48.1162   34.9997 C   0  0  0  0  0  0
   63.0406   44.0689   28.7791 C   0  0  0  0  0  0
   57.2930   45.4079   29.7328 C   0  0  0  0  0  0
   56.2052   46.1680   29.4323 C   0  0  0  0  0  0
   54.8099   45.9245   29.7386 C   0  0  0  0  0  0
   54.0097   46.8499   29.1288 O   0  0  0  0  0  0
   54.3628   45.0620   30.4910 O   0  0  0  0  0  0
   57.2611   44.0555   30.4446 C   0  0  0  0  0  0
   64.2364   47.7841   26.9265 F   0  0  0  0  0  0
   62.2837   48.0770   26.1390 F   0  0  0  0  0  0
   62.9438   49.2770   27.7390 F   0  0  0  0  0  0
   66.8703   45.2528   34.7167 C   0  0  0  0  0  0
   66.2155   47.1826   33.1487 C   0  0  0  0  0  0
   65.0863   43.9082   30.5539 H   0  0  0  0  0  0
   61.5056   46.9510   32.1579 H   0  0  0  0  0  0
   59.6263   45.2770   31.1066 H   0  0  0  0  0  0
   58.0583   46.5069   27.3902 H   0  0  0  0  0  0
   60.2142   47.4246   26.7243 H   0  0  0  0  0  0
   61.2708   46.2557   34.1637 H   0  0  0  0  0  0
   62.0726   46.0639   35.6686 H   0  0  0  0  0  0
   61.0019   48.3176   35.4729 H   0  0  0  0  0  0
   62.7355   48.4815   35.6772 H   0  0  0  0  0  0
   62.0098   48.6969   34.0780 H   0  0  0  0  0  0
   63.7069   43.2076   28.7258 H   0  0  0  0  0  0
   62.0275   43.6735   28.7020 H   0  0  0  0  0  0
   63.2087   44.7069   27.9140 H   0  0  0  0  0  0
   56.3756   47.1043   28.9281 H   0  0  0  0  0  0
   54.5173   47.4555   28.5845 H   0  0  0  0  0  0
   57.7637   44.1141   31.4073 H   0  0  0  0  0  0
   56.2648   43.6773   30.6402 H   0  0  0  0  0  0
   57.7566   43.2902   29.8455 H   0  0  0  0  0  0
   67.3582   45.9941   35.3390 H   0  0  0  0  0  0
   66.4312   44.4717   35.3389 H   0  0  0  0  0  0
   67.6483   44.8227   34.0913 H   0  0  0  0  0  0
   66.0265   48.0770   33.7395 H   0  0  0  0  0  0
   67.2825   47.1677   32.9381 H   0  0  0  0  0  0
   65.7121   47.2953   32.1900 H   0  0  0  0  0  0
  1  2  1  0  0  0
  1  4  1  0  0  0
  1  5  2  0  0  0
  2  3  1  0  0  0
  2 32  1  0  0  0
  2 33  1  0  0  0
  3  7  1  0  0  0
  4 20  1  0  0  0
  4  6  1  0  0  0
  6 11  1  0  0  0
  6  7  2  0  0  0
  7  8  1  0  0  0
  8  9  2  0  0  0
  8 34  1  0  0  0
  9 22  1  0  0  0
  9 10  1  0  0  0
 10 11  2  0  0  0
 10 12  1  0  0  0
 11 35  1  0  0  0
 12 13  2  0  0  0
 12 17  1  0  0  0
 13 14  1  0  0  0
 13 36  1  0  0  0
 14 15  2  0  0  0
 14 23  1  0  0  0
 15 16  1  0  0  0
 15 37  1  0  0  0
 16 17  2  0  0  0
 16 38  1  0  0  0
 17 18  1  0  0  0
 18 19  1  0  0  0
 19 29  1  0  0  0
 19 30  1  0  0  0
 19 31  1  0  0  0
 20 21  1  0  0  0
 20 39  1  0  0  0
 20 40  1  0  0  0
 21 41  1  0  0  0
 21 42  1  0  0  0
 21 43  1  0  0  0
 22 44  1  0  0  0
 22 45  1  0  0  0
 22 46  1  0  0  0
 23 24  2  0  0  0
 23 28  1  0  0  0
 24 25  1  0  0  0
 24 47  1  0  0  0
 25 26  1  0  0  0
 25 27  2  0  0  0
 26 48  1  0  0  0
 28 49  1  0  0  0
 28 50  1  0  0  0
 28 51  1  0  0  0
 32 52  1  0  0  0
 32 53  1  0  0  0
 32 54  1  0  0  0
 33 55  1  0  0  0
 33 56  1  0  0  0
 33 57  1  0  0  0
M  END
> <s_m_entry_id>
30940

> <s_m_entry_name>
dock_pv.153

> <s_m_Source_Path>
/home/csk/Desktop/cluster/DUD-E-result/rxra

> <s_m_Source_File>
dock_pv.maegz

> <i_m_Source_File_Index>
153

> <chembl_id>
CHEMBL248191

> <chembl_pref_name>
None

> <i_lp_mmshare_version>
53161

> <r_lp_tautomer_probability>
1

> <s_lp_Force_Field>
OPLS_2005

> <r_lp_Energy>
44.466494

> <b_lp_Chiralities_Consistent>
1

> <s_lp_Variant>
CHEMBL2061_lig437-1

> <s_i_glide_gridfile>
glide-grid_1mv9

> <i_i_glide_lignum>
508

> <i_i_glide_rotatable_bonds>
7

> <r_i_docking_score>
-10.7967853015313

> <r_i_glide_ligand_efficiency>
-0.327175312167616

> <r_i_glide_ligand_efficiency_sa>
-1.04942604448162

> <r_i_glide_ligand_efficiency_ln>
-2.40114914829813

> <r_i_glide_gscore>
-10.7967853015313

> <r_i_glide_lipo>
-5.81173724334268

> <r_i_glide_hbond>
-0.104216218564172

> <r_i_glide_metal>
0

> <r_i_glide_rewards>
-2.63616814635944

> <r_i_glide_evdw>
-39.7197380065918

> <r_i_glide_ecoul>
-4.22648668289185

> <r_i_glide_erotb>
0.375296209498317

> <r_i_glide_esite>
0

> <r_i_glide_emodel>
-47.8684816793443

> <r_i_glide_energy>
-43.9462246894836

> <r_i_glide_einternal>
5.17984676361084

> <i_i_glide_confnum>
12

> <i_i_glide_posenum>
168

> <r_i_glide_eff_state_penalty>
0

> <s_user_duplicate_titles>
CHEMBL2061_lig437,414868

> <i_f3d_flags>
0

> <s_m_subgroup_title>
dock_pv

> <s_m_subgroupid>
dock_pv

> <b_m_subgroup_collapsed>
1

$$$$
CHEMBL2061_lig374
                    3D
 Schrodinger Suite 2021-1.
 51 53  0  0  1  0            999 V2000
   62.8400   46.4814   32.9437 C   0  0  0  0  0  0
   61.9693   46.4101   30.6319 C   0  0  0  0  0  0
   63.9243   45.6528   32.5469 C   0  0  0  0  0  0
   60.9270   46.7971   29.6421 C   0  0  0  0  0  0
   61.9221   46.8777   31.9510 C   0  0  0  0  0  0
   63.9653   45.1984   31.2187 C   0  0  0  0  0  0
   63.0030   45.5424   30.2805 C   0  0  0  0  0  0
   62.6578   46.9672   34.4107 C   0  0  0  0  0  0
   65.0218   45.1793   33.5272 C   0  0  0  0  0  0
   55.4266   45.0397   30.2832 C   0  0  0  0  0  0
   59.5561   46.1913   29.7365 C   0  0  0  0  0  0
   56.8778   45.3455   30.0562 C   0  0  0  0  0  0
   61.2699   47.6767   28.6770 C   0  0  0  0  0  0
   64.9789   45.9806   34.8513 C   0  0  0  0  0  0
   63.5625   46.1642   35.3837 C   0  0  0  0  0  0
   54.8469   45.2771   31.3390 O   0  0  0  0  0  0
   59.0879   45.6770   30.9490 C   0  0  0  0  0  0
   58.6579   46.2172   28.6597 C   0  0  0  0  0  0
   57.3355   45.8012   28.8159 C   0  0  0  0  0  0
   57.7722   45.2769   31.1203 C   0  0  0  0  0  0
   63.1240   44.7750   28.5390 Br  0  0  0  0  0  0
   54.8080   44.4769   29.2212 O   0  0  0  0  0  0
   63.0509   48.4564   34.4995 C   0  0  0  0  0  0
   64.8021   43.6771   33.8281 C   0  0  0  0  0  0
   66.4080   45.4671   32.9222 C   0  0  0  0  0  0
   61.2079   46.7225   34.8912 C   0  0  0  0  0  0
   61.1245   47.5533   32.2164 H   0  0  0  0  0  0
   64.7477   44.5249   30.9045 H   0  0  0  0  0  0
   62.2698   48.0841   28.6311 H   0  0  0  0  0  0
   60.5780   48.0142   27.9212 H   0  0  0  0  0  0
   65.5967   45.4963   35.6087 H   0  0  0  0  0  0
   65.4253   46.9658   34.7152 H   0  0  0  0  0  0
   63.1427   45.1794   35.5857 H   0  0  0  0  0  0
   63.6080   46.6557   36.3571 H   0  0  0  0  0  0
   59.7099   45.6770   31.8278 H   0  0  0  0  0  0
   58.9621   46.5904   27.6938 H   0  0  0  0  0  0
   56.6677   45.8887   27.9702 H   0  0  0  0  0  0
   57.4581   44.9604   32.1031 H   0  0  0  0  0  0
   55.4326   44.1941   28.5482 H   0  0  0  0  0  0
   62.9974   48.8314   35.5226 H   0  0  0  0  0  0
   64.0625   48.6341   34.1391 H   0  0  0  0  0  0
   62.3901   49.0725   33.8888 H   0  0  0  0  0  0
   65.5392   43.3046   34.5390 H   0  0  0  0  0  0
   63.8132   43.4746   34.2395 H   0  0  0  0  0  0
   64.8996   43.0685   32.9290 H   0  0  0  0  0  0
   67.2065   45.2319   33.6284 H   0  0  0  0  0  0
   66.6076   44.8771   32.0290 H   0  0  0  0  0  0
   66.5194   46.5167   32.6445 H   0  0  0  0  0  0
   61.0814   47.0153   35.9343 H   0  0  0  0  0  0
   60.4698   47.2770   34.3189 H   0  0  0  0  0  0
   60.9241   45.6770   34.8109 H   0  0  0  0  0  0
  1  3  2  0  0  0
  1  5  1  0  0  0
  1  8  1  0  0  0
  2  5  2  0  0  0
  2  4  1  0  0  0
  2  7  1  0  0  0
  3  6  1  0  0  0
  3  9  1  0  0  0
  4 11  1  0  0  0
  4 13  2  0  0  0
  5 27  1  0  0  0
  6  7  2  0  0  0
  6 28  1  0  0  0
  7 21  1  0  0  0
  8 15  1  0  0  0
  8 23  1  0  0  0
  8 26  1  0  0  0
  9 24  1  0  0  0
  9 25  1  0  0  0
  9 14  1  0  0  0
 10 12  1  0  0  0
 10 16  2  0  0  0
 10 22  1  0  0  0
 11 17  2  0  0  0
 11 18  1  0  0  0
 12 19  1  0  0  0
 12 20  2  0  0  0
 13 29  1  0  0  0
 13 30  1  0  0  0
 14 15  1  0  0  0
 14 31  1  0  0  0
 14 32  1  0  0  0
 15 33  1  0  0  0
 15 34  1  0  0  0
 17 20  1  0  0  0
 17 35  1  0  0  0
 18 19  2  0  0  0
 18 36  1  0  0  0
 19 37  1  0  0  0
 20 38  1  0  0  0
 22 39  1  0  0  0
 23 40  1  0  0  0
 23 41  1  0  0  0
 23 42  1  0  0  0
 24 43  1  0  0  0
 24 44  1  0  0  0
 24 45  1  0  0  0
 25 46  1  0  0  0
 25 47  1  0  0  0
 25 48  1  0  0  0
 26 49  1  0  0  0
 26 50  1  0  0  0
 26 51  1  0  0  0
M  END
> <s_m_entry_id>
30941

> <s_m_entry_name>
dock_pv.154

> <s_m_Source_Path>
/home/csk/Desktop/cluster/DUD-E-result/rxra

> <s_m_Source_File>
dock_pv.maegz

> <i_m_Source_File_Index>
154

> <chembl_id>
CHEMBL101661

> <chembl_pref_name>
None

> <i_lp_mmshare_version>
53161

> <r_lp_tautomer_probability>
1

> <s_lp_Force_Field>
OPLS_2005

> <r_lp_Energy>
29.425543

> <b_lp_Chiralities_Consistent>
1

> <s_lp_Variant>
CHEMBL2061_lig374-1

> <s_i_glide_gridfile>
glide-grid_1mv9

> <i_i_glide_lignum>
434

> <i_i_glide_rotatable_bonds>
4

> <r_i_docking_score>
-10.7918981564247

> <r_i_glide_ligand_efficiency>
-0.415073006016336

> <r_i_glide_ligand_efficiency_sa>
-1.22965214708998

> <r_i_glide_ligand_efficiency_ln>
-2.53444187093024

> <r_i_glide_gscore>
-10.7918981564247

> <r_i_glide_lipo>
-6.48723038490675

> <r_i_glide_hbond>
-0.016519822762816

> <r_i_glide_metal>
0

> <r_i_glide_rewards>
-1.83151047771556

> <r_i_glide_evdw>
-47.2697486877441

> <r_i_glide_ecoul>
-2.93024253845215

> <r_i_glide_erotb>
0.346386344115414

> <r_i_glide_esite>
0

> <r_i_glide_emodel>
-77.6468885768837

> <r_i_glide_energy>
-50.1999912261963

> <r_i_glide_einternal>
4.80809545516968

> <i_i_glide_confnum>
9

> <i_i_glide_posenum>
287

> <r_i_glide_eff_state_penalty>
0

> <s_user_duplicate_titles>
CHEMBL2061_lig374,163356

> <i_f3d_flags>
0

> <s_m_subgroup_title>
dock_pv

> <s_m_subgroupid>
dock_pv

> <b_m_subgroup_collapsed>
1

$$$$
CHEMBL2061_lig382
                    3D
 Schrodinger Suite 2021-1.
 62 64  0  0  1  0            999 V2000
   62.8730   46.3613   33.1565 C   0  0  0  0  0  0
   64.0022   45.5693   32.8083 C   0  0  0  0  0  0
   61.9888   46.1016   30.8648 C   0  0  0  0  0  0
   60.9900   46.5206   29.8566 C   0  0  0  0  0  0
   61.9283   46.6389   32.1553 C   0  0  0  0  0  0
   64.0628   45.0390   31.5102 C   0  0  0  0  0  0
   63.0853   45.2775   30.5473 C   0  0  0  0  0  0
   62.6683   46.9519   34.5759 C   0  0  0  0  0  0
   65.1237   45.2129   33.8146 C   0  0  0  0  0  0
   55.3639   44.9848   30.3467 C   0  0  0  0  0  0
   61.5194   47.3036   29.0023 N   0  0  0  0  0  0
   59.5465   46.0770   29.9152 C   0  0  0  0  0  0
   56.8221   45.2839   30.1654 C   0  0  0  0  0  0
   65.0117   46.0752   35.0967 C   0  0  0  0  0  0
   63.5820   46.2324   35.5981 C   0  0  0  0  0  0
   54.7402   45.3386   31.3390 O   0  0  0  0  0  0
   58.6733   46.0489   28.8075 C   0  0  0  0  0  0
   58.9922   45.6770   31.1374 C   0  0  0  0  0  0
   57.6707   45.2779   31.2660 C   0  0  0  0  0  0
   57.3347   45.6770   28.9311 C   0  0  0  0  0  0
   54.7903   44.2873   29.3389 O   0  0  0  0  0  0
   60.6538   47.7421   28.0110 O   0  0  0  0  0  0
   63.8209   48.4701   27.3391 N   0  0  0  0  0  0
   61.3515   48.4770   27.0290 C   0  0  0  0  0  0
   63.2446   44.6122   29.1812 C   0  0  0  0  0  0
   64.9778   43.7225   34.1995 C   0  0  0  0  0  0
   66.5145   45.5260   33.2078 C   0  0  0  0  0  0
   63.0404   48.4489   34.5391 C   0  0  0  0  0  0
   61.2175   46.7244   35.0794 C   0  0  0  0  0  0
   62.7269   47.9583   26.5391 C   0  0  0  0  0  0
   61.1156   47.3081   32.3933 H   0  0  0  0  0  0
   64.8926   44.4014   31.2444 H   0  0  0  0  0  0
   65.6081   45.6498   35.8989 H   0  0  0  0  0  0
   65.4290   47.0666   34.9289 H   0  0  0  0  0  0
   63.1861   45.2467   35.8460 H   0  0  0  0  0  0
   63.6060   46.7829   36.5388 H   0  0  0  0  0  0
   59.0000   46.2820   27.8076 H   0  0  0  0  0  0
   59.5726   45.6772   32.0452 H   0  0  0  0  0  0
   57.3094   45.0411   32.2489 H   0  0  0  0  0  0
   56.7069   45.7107   28.0517 H   0  0  0  0  0  0
   55.4254   43.9647   28.6934 H   0  0  0  0  0  0
   63.6584   48.1689   28.2920 H   0  0  0  0  0  0
   64.6898   48.0421   27.0493 H   0  0  0  0  0  0
   60.6515   48.4768   26.1933 H   0  0  0  0  0  0
   61.4373   49.5065   27.3713 H   0  0  0  0  0  0
   63.9691   43.7969   29.2041 H   0  0  0  0  0  0
   62.2979   44.1804   28.8541 H   0  0  0  0  0  0
   63.5597   45.3405   28.4338 H   0  0  0  0  0  0
   65.7261   43.4404   34.9382 H   0  0  0  0  0  0
   63.9979   43.4913   34.6164 H   0  0  0  0  0  0
   65.1224   43.0673   33.3398 H   0  0  0  0  0  0
   67.3073   45.3811   33.9432 H   0  0  0  0  0  0
   66.7542   44.8776   32.3658 H   0  0  0  0  0  0
   66.5801   46.5572   32.8569 H   0  0  0  0  0  0
   63.0114   48.8771   35.5409 H   0  0  0  0  0  0
   64.0389   48.6171   34.1390 H   0  0  0  0  0  0
   62.3495   49.0131   33.9123 H   0  0  0  0  0  0
   61.1080   47.0440   36.1168 H   0  0  0  0  0  0
   60.4756   47.2796   34.5113 H   0  0  0  0  0  0
   60.9277   45.6770   35.0311 H   0  0  0  0  0  0
   62.7515   46.8681   26.5389 H   0  0  0  0  0  0
   62.9000   48.3030   25.5228 H   0  0  0  0  0  0
  1  2  2  0  0  0
  1  5  1  0  0  0
  1  8  1  0  0  0
  2  6  1  0  0  0
  2  9  1  0  0  0
  3  5  2  0  0  0
  3  4  1  0  0  0
  3  7  1  0  0  0
  4 11  2  0  0  0
  4 12  1  0  0  0
  5 31  1  0  0  0
  6  7  2  0  0  0
  6 32  1  0  0  0
  7 25  1  0  0  0
  8 15  1  0  0  0
  8 28  1  0  0  0
  8 29  1  0  0  0
  9 26  1  0  0  0
  9 27  1  0  0  0
  9 14  1  0  0  0
 10 13  1  0  0  0
 10 16  2  0  0  0
 10 21  1  0  0  0
 11 22  1  0  0  0
 12 17  2  0  0  0
 12 18  1  0  0  0
 13 19  1  0  0  0
 13 20  2  0  0  0
 14 15  1  0  0  0
 14 33  1  0  0  0
 14 34  1  0  0  0
 15 35  1  0  0  0
 15 36  1  0  0  0
 17 20  1  0  0  0
 17 37  1  0  0  0
 18 19  2  0  0  0
 18 38  1  0  0  0
 19 39  1  0  0  0
 20 40  1  0  0  0
 21 41  1  0  0  0
 22 24  1  0  0  0
 23 30  1  0  0  0
 23 42  1  0  0  0
 23 43  1  0  0  0
 24 30  1  0  0  0
 24 44  1  0  0  0
 24 45  1  0  0  0
 25 46  1  0  0  0
 25 47  1  0  0  0
 25 48  1  0  0  0
 26 49  1  0  0  0
 26 50  1  0  0  0
 26 51  1  0  0  0
 27 52  1  0  0  0
 27 53  1  0  0  0
 27 54  1  0  0  0
 28 55  1  0  0  0
 28 56  1  0  0  0
 28 57  1  0  0  0
 29 58  1  0  0  0
 29 59  1  0  0  0
 29 60  1  0  0  0
 30 61  1  0  0  0
 30 62  1  0  0  0
M  END
> <s_m_entry_id>
30942

> <s_m_entry_name>
dock_pv.155

> <s_m_Source_Path>
/home/csk/Desktop/cluster/DUD-E-result/rxra

> <s_m_Source_File>
dock_pv.maegz

> <i_m_Source_File_Index>
155

> <chembl_id>
CHEMBL162876

> <chembl_pref_name>
None

> <i_lp_mmshare_version>
53161

> <r_lp_tautomer_probability>
1

> <s_lp_Force_Field>
OPLS_2005

> <r_lp_Energy>
39.256376

> <b_lp_Chiralities_Consistent>
1

> <s_lp_Variant>
CHEMBL2061_lig382-1

> <s_i_glide_gridfile>
glide-grid_1mv9

> <i_i_glide_lignum>
442

> <i_i_glide_rotatable_bonds>
7

> <r_i_docking_score>
-10.784634985008

> <r_i_glide_ligand_efficiency>
-0.3594878328336

> <r_i_glide_ligand_efficiency_sa>
-1.11701227840908

> <r_i_glide_ligand_efficiency_ln>
-2.45038657660363

> <r_i_glide_gscore>
-10.784634985008

> <r_i_glide_lipo>
-6.23612887248614

> <r_i_glide_hbond>
-0.0617753394737409

> <r_i_glide_metal>
0

> <r_i_glide_rewards>
-2.15646712829276

> <r_i_glide_evdw>
-46.1235504150391

> <r_i_glide_ecoul>
-4.09153032302856

> <r_i_glide_erotb>
0.589643424450886

> <r_i_glide_esite>
0

> <r_i_glide_emodel>
-64.3263503715473

> <r_i_glide_energy>
-50.2150807380676

> <r_i_glide_einternal>
16.4074020385742

> <i_i_glide_confnum>
223

> <i_i_glide_posenum>
89

> <r_i_glide_eff_state_penalty>
0

> <s_user_duplicate_titles>
CHEMBL2061_lig382,273337

> <i_f3d_flags>
0

> <s_m_subgroup_title>
dock_pv

> <s_m_subgroupid>
dock_pv

> <b_m_subgroup_collapsed>
1

$$$$
CHEMBL2061_lig117
                    3D
 Schrodinger Suite 2021-1.
 56 59  0  0  1  0            999 V2000
   62.7169   46.4835   32.2547 C   0  0  0  0  0  0
   61.8313   46.8448   31.2249 C   0  0  0  0  0  0
   61.7795   46.1854   29.9956 C   0  0  0  0  0  0
   62.7241   45.1867   29.7368 C   0  0  0  0  0  0
   63.6685   44.8769   30.7094 C   0  0  0  0  0  0
   63.6598   45.4513   31.9906 C   0  0  0  0  0  0
   64.6561   44.9171   33.0548 C   0  0  0  0  0  0
   64.2824   45.4027   34.4833 C   0  0  0  0  0  0
   63.8068   46.8535   34.5254 C   0  0  0  0  0  0
   62.5339   47.0912   33.6698 C   0  0  0  0  0  0
   60.6829   46.5782   28.9903 C   0  0  0  0  0  0
   59.2528   46.0760   29.3213 C   0  0  0  0  0  0
   58.3513   46.0956   28.3038 N   0  0  0  0  0  0
   57.0508   45.8068   28.5647 C   0  0  0  0  0  0
   56.5848   45.4555   29.8343 C   0  0  0  0  0  0
   57.5347   45.3255   30.8528 C   0  0  0  0  0  0
   58.8649   45.6752   30.6065 C   0  0  0  0  0  0
   55.1178   45.2704   30.1077 C   0  0  0  0  0  0
   54.6856   44.4770   30.9389 O   0  0  0  0  0  0
   54.3143   46.1238   29.4095 O   0  0  0  0  0  0
   61.0930   46.8261   27.5313 C   0  0  0  0  0  0
   60.7735   47.9859   28.4130 C   0  0  0  0  0  0
   64.5956   43.3633   33.1216 C   0  0  0  0  0  0
   66.0649   45.4495   32.6956 C   0  0  0  0  0  0
   62.2989   48.6229   33.6650 C   0  0  0  0  0  0
   61.3162   46.3749   34.3071 C   0  0  0  0  0  0
   62.7030   44.3497   28.4682 C   0  0  0  0  0  0
   61.0800   47.5937   31.4110 H   0  0  0  0  0  0
   64.3937   44.1125   30.4778 H   0  0  0  0  0  0
   65.1272   45.2717   35.1624 H   0  0  0  0  0  0
   63.4926   44.7846   34.9092 H   0  0  0  0  0  0
   64.6220   47.4913   34.1795 H   0  0  0  0  0  0
   63.6265   47.1490   35.5604 H   0  0  0  0  0  0
   56.3850   45.8773   27.7171 H   0  0  0  0  0  0
   57.2387   45.0562   31.8545 H   0  0  0  0  0  0
   59.5599   45.6769   31.4294 H   0  0  0  0  0  0
   54.8313   46.7276   28.8732 H   0  0  0  0  0  0
   62.1318   46.7469   27.2155 H   0  0  0  0  0  0
   60.4084   46.5684   26.7246 H   0  0  0  0  0  0
   59.8563   48.5346   28.2027 H   0  0  0  0  0  0
   61.6010   48.6318   28.7130 H   0  0  0  0  0  0
   65.3227   42.9716   33.8331 H   0  0  0  0  0  0
   63.6119   43.0055   33.4318 H   0  0  0  0  0  0
   64.8080   42.8791   32.1716 H   0  0  0  0  0  0
   66.8089   45.1363   33.4289 H   0  0  0  0  0  0
   66.3964   45.0745   31.7264 H   0  0  0  0  0  0
   66.0928   46.5386   32.6456 H   0  0  0  0  0  0
   61.7084   48.8773   34.5432 H   0  0  0  0  0  0
   63.2087   49.2094   33.7403 H   0  0  0  0  0  0
   61.7596   49.0021   32.7989 H   0  0  0  0  0  0
   61.2546   46.5474   35.3826 H   0  0  0  0  0  0
   60.3802   46.7292   33.8727 H   0  0  0  0  0  0
   61.3371   45.3032   34.1392 H   0  0  0  0  0  0
   63.1843   43.3806   28.6118 H   0  0  0  0  0  0
   61.6796   44.1376   28.1600 H   0  0  0  0  0  0
   63.2077   44.8766   27.6637 H   0  0  0  0  0  0
  1  2  2  0  0  0
  1  6  1  0  0  0
  1 10  1  0  0  0
  2  3  1  0  0  0
  2 28  1  0  0  0
  3  4  2  0  0  0
  3 11  1  0  0  0
  4  5  1  0  0  0
  4 27  1  0  0  0
  5  6  2  0  0  0
  5 29  1  0  0  0
  6  7  1  0  0  0
  7  8  1  0  0  0
  7 23  1  0  0  0
  7 24  1  0  0  0
  8  9  1  0  0  0
  8 30  1  0  0  0
  8 31  1  0  0  0
  9 10  1  0  0  0
  9 32  1  0  0  0
  9 33  1  0  0  0
 10 25  1  0  0  0
 10 26  1  0  0  0
 11 12  1  0  0  0
 11 21  1  0  0  0
 11 22  1  0  0  0
 12 13  2  0  0  0
 12 17  1  0  0  0
 13 14  1  0  0  0
 14 15  2  0  0  0
 14 34  1  0  0  0
 15 16  1  0  0  0
 15 18  1  0  0  0
 16 17  2  0  0  0
 16 35  1  0  0  0
 17 36  1  0  0  0
 18 19  2  0  0  0
 18 20  1  0  0  0
 20 37  1  0  0  0
 21 22  1  0  0  0
 21 38  1  0  0  0
 21 39  1  0  0  0
 22 40  1  0  0  0
 22 41  1  0  0  0
 23 42  1  0  0  0
 23 43  1  0  0  0
 23 44  1  0  0  0
 24 45  1  0  0  0
 24 46  1  0  0  0
 24 47  1  0  0  0
 25 48  1  0  0  0
 25 49  1  0  0  0
 25 50  1  0  0  0
 26 51  1  0  0  0
 26 52  1  0  0  0
 26 53  1  0  0  0
 27 54  1  0  0  0
 27 55  1  0  0  0
 27 56  1  0  0  0
M  END
> <s_m_entry_id>
30943

> <s_m_entry_name>
dock_pv.156

> <s_m_Source_Path>
/home/csk/Desktop/cluster/DUD-E-result/rxra

> <s_m_Source_File>
dock_pv.maegz

> <i_m_Source_File_Index>
156

> <chembl_id>
CHEMBL288436

> <chembl_pref_name>
None

> <i_lp_mmshare_version>
53161

> <r_lp_tautomer_probability>
1

> <s_lp_Force_Field>
OPLS_2005

> <r_lp_Energy>
29.094515

> <b_lp_Chiralities_Consistent>
1

> <s_lp_Variant>
CHEMBL2061_lig117-1

> <s_i_glide_gridfile>
glide-grid_1mv9

> <i_i_glide_lignum>
156

> <i_i_glide_rotatable_bonds>
4

> <r_i_docking_score>
-10.7725499878588

> <r_i_glide_ligand_efficiency>
-0.398983332883659

> <r_i_glide_ligand_efficiency_sa>
-1.19694999733599

> <r_i_glide_ligand_efficiency_ln>
-2.50767203780683

> <r_i_glide_gscore>
-10.7725499878588

> <r_i_glide_lipo>
-6.24157813838409

> <r_i_glide_hbond>
-0.188218160243247

> <r_i_glide_metal>
0

> <r_i_glide_rewards>
-2.06039305077008

> <r_i_glide_evdw>
-44.3659896850586

> <r_i_glide_ecoul>
-3.33549880981445

> <r_i_glide_erotb>
0.436263667263728

> <r_i_glide_esite>
0

> <r_i_glide_emodel>
-66.1287965369001

> <r_i_glide_energy>
-47.701488494873

> <r_i_glide_einternal>
6.29228210449219

> <i_i_glide_confnum>
31

> <i_i_glide_posenum>
98

> <r_i_glide_eff_state_penalty>
0

> <s_user_duplicate_titles>
CHEMBL2061_lig117,61111

> <i_f3d_flags>
0

> <s_m_subgroup_title>
dock_pv

> <s_m_subgroupid>
dock_pv

> <b_m_subgroup_collapsed>
1

$$$$
CHEMBL2061_lig575
                    3D
 Schrodinger Suite 2021-1.
 48 50  0  0  1  0            999 V2000
   62.7567   46.4425   33.0229 C   0  0  0  0  0  0
   60.8350   46.3533   29.7277 C   0  0  0  0  0  0
   63.9563   45.7894   32.6261 C   0  0  0  0  0  0
   59.5560   46.0770   30.1177 O   0  0  0  0  0  0
   61.7559   46.6333   32.0516 C   0  0  0  0  0  0
   61.9148   46.2218   30.7306 C   0  0  0  0  0  0
   60.8558   46.6415   28.3768 C   0  0  0  0  0  0
   58.7538   46.1751   29.0211 C   0  0  0  0  0  0
   62.5363   46.9520   34.4710 C   0  0  0  0  0  0
   65.0626   45.3932   33.6274 C   0  0  0  0  0  0
   64.1082   45.4254   31.2779 C   0  0  0  0  0  0
   59.5425   46.5450   27.9436 C   0  0  0  0  0  0
   57.3309   45.9141   29.1157 C   0  0  0  0  0  0
   55.2073   45.2806   30.2010 C   0  0  0  0  0  0
   56.6382   45.4852   30.1944 C   0  0  0  0  0  0
   63.1125   45.6413   30.3412 C   0  0  0  0  0  0
   63.4694   46.2112   35.4626 C   0  0  0  0  0  0
   64.9083   46.1429   34.9687 C   0  0  0  0  0  0
   54.6324   44.4855   30.9386 O   0  0  0  0  0  0
   54.5404   46.1022   29.3395 O   0  0  0  0  0  0
   62.8626   48.4608   34.5056 C   0  0  0  0  0  0
   61.0942   46.6654   34.9460 C   0  0  0  0  0  0
   64.9588   43.8683   33.8864 C   0  0  0  0  0  0
   66.4387   45.8074   33.0796 C   0  0  0  0  0  0
   60.8259   47.1118   32.3204 H   0  0  0  0  0  0
   61.7233   46.8855   27.7807 H   0  0  0  0  0  0
   64.9989   44.9161   30.9440 H   0  0  0  0  0  0
   59.2081   46.7039   26.9390 H   0  0  0  0  0  0
   56.8267   46.0906   28.1765 H   0  0  0  0  0  0
   57.1368   45.2639   31.1277 H   0  0  0  0  0  0
   63.2657   45.3144   29.3207 H   0  0  0  0  0  0
   63.1144   45.1971   35.6476 H   0  0  0  0  0  0
   63.4597   46.7080   36.4337 H   0  0  0  0  0  0
   65.5378   45.6850   35.7346 H   0  0  0  0  0  0
   65.2791   47.1643   34.8777 H   0  0  0  0  0  0
   55.1503   46.6828   28.8848 H   0  0  0  0  0  0
   62.7937   48.8689   35.5166 H   0  0  0  0  0  0
   63.8647   48.6805   34.1393 H   0  0  0  0  0  0
   62.1730   49.0257   33.8758 H   0  0  0  0  0  0
   60.9792   46.8632   36.0113 H   0  0  0  0  0  0
   60.3538   47.2771   34.4420 H   0  0  0  0  0  0
   60.8088   45.6280   34.7761 H   0  0  0  0  0  0
   65.7158   43.5362   34.5945 H   0  0  0  0  0  0
   63.9860   43.5795   34.2812 H   0  0  0  0  0  0
   65.1127   43.2981   32.9712 H   0  0  0  0  0  0
   67.2141   45.6667   33.8310 H   0  0  0  0  0  0
   66.7435   45.2111   32.2180 H   0  0  0  0  0  0
   66.4640   46.8566   32.7817 H   0  0  0  0  0  0
  1  3  2  0  0  0
  1  5  1  0  0  0
  1  9  1  0  0  0
  2  6  1  0  0  0
  2  4  1  0  0  0
  2  7  2  0  0  0
  3 10  1  0  0  0
  3 11  1  0  0  0
  4  8  1  0  0  0
  5  6  2  0  0  0
  5 25  1  0  0  0
  6 16  1  0  0  0
  7 12  1  0  0  0
  7 26  1  0  0  0
  8 13  1  0  0  0
  8 12  2  0  0  0
  9 17  1  0  0  0
  9 21  1  0  0  0
  9 22  1  0  0  0
 10 23  1  0  0  0
 10 24  1  0  0  0
 10 18  1  0  0  0
 11 16  2  0  0  0
 11 27  1  0  0  0
 12 28  1  0  0  0
 13 15  2  0  0  0
 13 29  1  0  0  0
 14 15  1  0  0  0
 14 19  2  0  0  0
 14 20  1  0  0  0
 15 30  1  0  0  0
 16 31  1  0  0  0
 17 18  1  0  0  0
 17 32  1  0  0  0
 17 33  1  0  0  0
 18 34  1  0  0  0
 18 35  1  0  0  0
 20 36  1  0  0  0
 21 37  1  0  0  0
 21 38  1  0  0  0
 21 39  1  0  0  0
 22 40  1  0  0  0
 22 41  1  0  0  0
 22 42  1  0  0  0
 23 43  1  0  0  0
 23 44  1  0  0  0
 23 45  1  0  0  0
 24 46  1  0  0  0
 24 47  1  0  0  0
 24 48  1  0  0  0
M  END
> <s_m_entry_id>
30944

> <s_m_entry_name>
dock_pv.157

> <s_m_Source_Path>
/home/csk/Desktop/cluster/DUD-E-result/rxra

> <s_m_Source_File>
dock_pv.maegz

> <i_m_Source_File_Index>
157

> <chembl_id>
CHEMBL62047

> <chembl_pref_name>
None

> <i_lp_mmshare_version>
53161

> <r_lp_tautomer_probability>
1

> <s_lp_Force_Field>
OPLS_2005

> <r_lp_Energy>
17.425983

> <b_lp_Chiralities_Consistent>
1

> <s_lp_Variant>
CHEMBL2061_lig575-1

> <s_i_glide_gridfile>
glide-grid_1mv9

> <i_i_glide_lignum>
706

> <i_i_glide_rotatable_bonds>
4

> <r_i_docking_score>
-10.7613889269728

> <r_i_glide_ligand_efficiency>
-0.448391205290532

> <r_i_glide_ligand_efficiency_sa>
-1.29338404494963

> <r_i_glide_ligand_efficiency_ln>
-2.57569417818549

> <r_i_glide_gscore>
-10.7613889269728

> <r_i_glide_lipo>
-5.7936097569447

> <r_i_glide_hbond>
-0.22348810141262

> <r_i_glide_metal>
0

> <r_i_glide_rewards>
-2.48305629182054

> <r_i_glide_evdw>
-45.6496734619141

> <r_i_glide_ecoul>
-3.41717743873596

> <r_i_glide_erotb>
0.533825512111178

> <r_i_glide_esite>
0

> <r_i_glide_emodel>
-79.3583470593567

> <r_i_glide_energy>
-49.06685090065

> <r_i_glide_einternal>
3.03880667686462

> <i_i_glide_confnum>
15

> <i_i_glide_posenum>
385

> <r_i_glide_eff_state_penalty>
0

> <s_user_duplicate_titles>
CHEMBL2061_lig575

> <i_f3d_flags>
0

> <s_m_subgroup_title>
dock_pv

> <s_m_subgroupid>
dock_pv

> <b_m_subgroup_collapsed>
1

$$$$
CHEMBL2061_lig434
                    3D
 Schrodinger Suite 2021-1.
 59 61  0  0  1  0            999 V2000
   64.1623   47.3033   35.0193 C   0  0  0  0  0  0
   65.4951   46.6928   34.5820 C   0  0  0  0  0  0
   65.3602   45.3711   33.8111 C   0  0  0  0  0  0
   63.2474   47.2807   34.0176 N   0  0  0  0  0  0
   64.0079   47.7917   36.1399 O   0  0  0  0  0  0
   64.7579   44.2955   34.7364 C   0  0  0  0  0  0
   66.7915   45.0660   33.3500 C   0  0  0  0  0  0
   63.3688   46.5378   32.8012 C   0  0  0  0  0  0
   64.3991   45.5866   32.6463 C   0  0  0  0  0  0
   64.4496   44.8062   31.4853 C   0  0  0  0  0  0
   63.4912   44.9270   30.4853 C   0  0  0  0  0  0
   62.4748   45.8797   30.6309 C   0  0  0  0  0  0
   62.4320   46.6609   31.7777 C   0  0  0  0  0  0
   61.3764   46.0705   29.6674 C   0  0  0  0  0  0
   60.0632   45.9093   30.1283 C   0  0  0  0  0  0
   58.9685   46.0799   29.2917 C   0  0  0  0  0  0
   59.2229   46.5236   27.9971 C   0  0  0  0  0  0
   60.5181   46.7371   27.5277 C   0  0  0  0  0  0
   61.6151   46.4831   28.3500 C   0  0  0  0  0  0
   62.9164   46.5773   27.8949 O   0  0  0  0  0  0
   63.3757   47.7983   27.3210 C   0  0  0  0  0  0
   64.6842   47.6786   27.1063 F   0  0  0  0  0  0
   62.8080   48.0770   26.1604 F   0  0  0  0  0  0
   63.2010   48.8234   28.1388 F   0  0  0  0  0  0
   63.5137   43.9392   29.3294 C   0  0  0  0  0  0
   57.6071   45.8010   29.8050 C   0  0  0  0  0  0
   56.4426   46.0381   29.1613 C   0  0  0  0  0  0
   55.1601   45.7298   29.7434 C   0  0  0  0  0  0
   54.1735   46.4834   29.1838 O   0  0  0  0  0  0
   54.9580   44.9238   30.6503 O   0  0  0  0  0  0
   62.0545   48.1186   34.2833 C   0  0  0  0  0  0
   60.7944   47.2770   34.5374 C   0  0  0  0  0  0
   62.0135   49.4015   33.4033 C   0  0  0  0  0  0
   66.0085   47.4614   34.0028 H   0  0  0  0  0  0
   66.0827   46.4768   35.4638 H   0  0  0  0  0  0
   65.1252   44.4769   35.7390 H   0  0  0  0  0  0
   63.6691   44.3450   34.7939 H   0  0  0  0  0  0
   65.0272   43.2842   34.4299 H   0  0  0  0  0  0
   67.5089   45.0854   34.1722 H   0  0  0  0  0  0
   66.8349   44.0770   32.9349 H   0  0  0  0  0  0
   67.1219   45.7769   32.5950 H   0  0  0  0  0  0
   65.2089   44.0482   31.3826 H   0  0  0  0  0  0
   61.5986   47.3329   31.8653 H   0  0  0  0  0  0
   59.8952   45.6725   31.1672 H   0  0  0  0  0  0
   58.4080   46.7127   27.3391 H   0  0  0  0  0  0
   60.6598   47.0714   26.5159 H   0  0  0  0  0  0
   64.0309   43.0160   29.5952 H   0  0  0  0  0  0
   62.5040   43.6508   29.0351 H   0  0  0  0  0  0
   64.0080   44.3872   28.4741 H   0  0  0  0  0  0
   57.5710   45.3594   30.7935 H   0  0  0  0  0  0
   56.4207   46.4753   28.1757 H   0  0  0  0  0  0
   54.5295   47.0722   28.5157 H   0  0  0  0  0  0
   62.1342   48.5911   35.2633 H   0  0  0  0  0  0
   60.0072   47.9034   34.9394 H   0  0  0  0  0  0
   60.4084   46.7784   33.6496 H   0  0  0  0  0  0
   60.9815   46.5183   35.2979 H   0  0  0  0  0  0
   61.2082   50.0773   33.6600 H   0  0  0  0  0  0
   62.8854   50.0010   33.6529 H   0  0  0  0  0  0
   62.0067   49.2642   32.3261 H   0  0  0  0  0  0
  1  2  1  0  0  0
  1  4  1  0  0  0
  1  5  2  0  0  0
  2  3  1  0  0  0
  2 34  1  0  0  0
  2 35  1  0  0  0
  3  6  1  0  0  0
  3  7  1  0  0  0
  3  9  1  0  0  0
  4 31  1  0  0  0
  4  8  1  0  0  0
  6 36  1  0  0  0
  6 37  1  0  0  0
  6 38  1  0  0  0
  7 39  1  0  0  0
  7 40  1  0  0  0
  7 41  1  0  0  0
  8  9  2  0  0  0
  8 13  1  0  0  0
  9 10  1  0  0  0
 10 11  2  0  0  0
 10 42  1  0  0  0
 11 12  1  0  0  0
 11 25  1  0  0  0
 12 13  2  0  0  0
 12 14  1  0  0  0
 13 43  1  0  0  0
 14 15  2  0  0  0
 14 19  1  0  0  0
 15 16  1  0  0  0
 15 44  1  0  0  0
 16 17  2  0  0  0
 16 26  1  0  0  0
 17 18  1  0  0  0
 17 45  1  0  0  0
 18 19  2  0  0  0
 18 46  1  0  0  0
 19 20  1  0  0  0
 20 21  1  0  0  0
 21 22  1  0  0  0
 21 23  1  0  0  0
 21 24  1  0  0  0
 25 47  1  0  0  0
 25 48  1  0  0  0
 25 49  1  0  0  0
 26 27  2  0  0  0
 26 50  1  0  0  0
 27 28  1  0  0  0
 27 51  1  0  0  0
 28 29  1  0  0  0
 28 30  2  0  0  0
 29 52  1  0  0  0
 31 32  1  0  0  0
 31 33  1  0  0  0
 31 53  1  0  0  0
 32 54  1  0  0  0
 32 55  1  0  0  0
 32 56  1  0  0  0
 33 57  1  0  0  0
 33 58  1  0  0  0
 33 59  1  0  0  0
M  END
> <s_m_entry_id>
30945

> <s_m_entry_name>
dock_pv.158

> <s_m_Source_Path>
/home/csk/Desktop/cluster/DUD-E-result/rxra

> <s_m_Source_File>
dock_pv.maegz

> <i_m_Source_File_Index>
158

> <chembl_id>
CHEMBL428930

> <chembl_pref_name>
None

> <i_lp_mmshare_version>
53161

> <r_lp_tautomer_probability>
1

> <s_lp_Force_Field>
OPLS_2005

> <r_lp_Energy>
39.857175

> <b_lp_Chiralities_Consistent>
1

> <s_lp_Variant>
CHEMBL2061_lig434-1

> <s_i_glide_gridfile>
glide-grid_1mv9

> <i_i_glide_lignum>
505

> <i_i_glide_rotatable_bonds>
7

> <r_i_docking_score>
-10.7607429059842

> <r_i_glide_ligand_efficiency>
-0.326083118363158

> <r_i_glide_ligand_efficiency_sa>
-1.0459227953629

> <r_i_glide_ligand_efficiency_ln>
-2.39313350614599

> <r_i_glide_gscore>
-10.7607429059842

> <r_i_glide_lipo>
-5.78924557329223

> <r_i_glide_hbond>
0

> <r_i_glide_metal>
0

> <r_i_glide_rewards>
-2.91961154173111

> <r_i_glide_evdw>
-40.6551284790039

> <r_i_glide_ecoul>
-2.64902853965759

> <r_i_glide_erotb>
0.378224913937964

> <r_i_glide_esite>
0

> <r_i_glide_emodel>
-52.0529854907165

> <r_i_glide_energy>
-43.3041570186615

> <r_i_glide_einternal>
4.77985906600952

> <i_i_glide_confnum>
40

> <i_i_glide_posenum>
364

> <r_i_glide_eff_state_penalty>
0

> <s_user_duplicate_titles>
CHEMBL2061_lig434,414788

> <i_f3d_flags>
0

> <s_m_subgroup_title>
dock_pv

> <s_m_subgroupid>
dock_pv

> <b_m_subgroup_collapsed>
1

$$$$
CHEMBL2061_lig355
                    3D
 Schrodinger Suite 2021-1.
 49 51  0  0  1  0            999 V2000
   61.9991   46.3886   30.5502 C   0  0  0  0  0  0
   62.8384   46.4923   32.8682 C   0  0  0  0  0  0
   63.9323   45.6662   32.4935 C   0  0  0  0  0  0
   60.9333   46.7353   29.5581 C   0  0  0  0  0  0
   61.9330   46.8770   31.8614 C   0  0  0  0  0  0
   63.0507   45.5344   30.2081 C   0  0  0  0  0  0
   64.0011   45.2083   31.1665 C   0  0  0  0  0  0
   62.6210   46.9791   34.3301 C   0  0  0  0  0  0
   65.0101   45.2004   33.4987 C   0  0  0  0  0  0
   55.4224   45.0428   30.2839 C   0  0  0  0  0  0
   59.5441   46.1725   29.7126 C   0  0  0  0  0  0
   56.8712   45.3564   30.0548 C   0  0  0  0  0  0
   61.2316   47.4137   28.5724 O   0  0  0  0  0  0
   64.9452   46.0186   34.8120 C   0  0  0  0  0  0
   63.5212   46.1986   35.3250 C   0  0  0  0  0  0
   54.8408   45.2770   31.3390 O   0  0  0  0  0  0
   59.0891   45.6770   30.9390 C   0  0  0  0  0  0
   58.6398   46.2294   28.6453 C   0  0  0  0  0  0
   57.3157   45.8284   28.8151 C   0  0  0  0  0  0
   57.7728   45.2770   31.1141 C   0  0  0  0  0  0
   63.2081   44.8314   28.6302 Cl  0  0  0  0  0  0
   54.8080   44.4770   29.2215 O   0  0  0  0  0  0
   62.9770   48.4770   34.4269 C   0  0  0  0  0  0
   64.7822   43.7011   33.8108 C   0  0  0  0  0  0
   66.4080   45.4793   32.9178 C   0  0  0  0  0  0
   61.1673   46.7049   34.7795 C   0  0  0  0  0  0
   61.1278   47.5470   32.1235 H   0  0  0  0  0  0
   64.7973   44.5422   30.8707 H   0  0  0  0  0  0
   65.5572   45.5487   35.5835 H   0  0  0  0  0  0
   65.3855   47.0056   34.6673 H   0  0  0  0  0  0
   63.1058   45.2149   35.5387 H   0  0  0  0  0  0
   63.5519   46.7058   36.2906 H   0  0  0  0  0  0
   59.7181   45.6770   31.8138 H   0  0  0  0  0  0
   58.9458   46.6184   27.6838 H   0  0  0  0  0  0
   56.6384   45.9328   27.9788 H   0  0  0  0  0  0
   57.4620   44.9564   32.0968 H   0  0  0  0  0  0
   55.4326   44.1977   28.5471 H   0  0  0  0  0  0
   62.8504   48.8540   35.4426 H   0  0  0  0  0  0
   64.0080   48.6744   34.1390 H   0  0  0  0  0  0
   62.3456   49.0792   33.7722 H   0  0  0  0  0  0
   65.5054   43.3348   34.5390 H   0  0  0  0  0  0
   63.7855   43.5042   34.2059 H   0  0  0  0  0  0
   64.8951   43.0832   32.9197 H   0  0  0  0  0  0
   67.1921   45.2536   33.6429 H   0  0  0  0  0  0
   66.6254   44.8770   32.0370 H   0  0  0  0  0  0
   66.5258   46.5251   32.6283 H   0  0  0  0  0  0
   61.0201   46.9611   35.8296 H   0  0  0  0  0  0
   60.4357   47.2770   34.2162 H   0  0  0  0  0  0
   60.8926   45.6608   34.6569 H   0  0  0  0  0  0
  1  4  1  0  0  0
  1  5  2  0  0  0
  1  6  1  0  0  0
  2  5  1  0  0  0
  2  8  1  0  0  0
  2  3  2  0  0  0
  3  7  1  0  0  0
  3  9  1  0  0  0
  4 11  1  0  0  0
  4 13  2  0  0  0
  5 27  1  0  0  0
  6  7  2  0  0  0
  6 21  1  0  0  0
  7 28  1  0  0  0
  8 15  1  0  0  0
  8 23  1  0  0  0
  8 26  1  0  0  0
  9 14  1  0  0  0
  9 24  1  0  0  0
  9 25  1  0  0  0
 10 12  1  0  0  0
 10 16  2  0  0  0
 10 22  1  0  0  0
 11 17  2  0  0  0
 11 18  1  0  0  0
 12 19  1  0  0  0
 12 20  2  0  0  0
 14 15  1  0  0  0
 14 29  1  0  0  0
 14 30  1  0  0  0
 15 31  1  0  0  0
 15 32  1  0  0  0
 17 20  1  0  0  0
 17 33  1  0  0  0
 18 19  2  0  0  0
 18 34  1  0  0  0
 19 35  1  0  0  0
 20 36  1  0  0  0
 22 37  1  0  0  0
 23 38  1  0  0  0
 23 39  1  0  0  0
 23 40  1  0  0  0
 24 41  1  0  0  0
 24 42  1  0  0  0
 24 43  1  0  0  0
 25 44  1  0  0  0
 25 45  1  0  0  0
 25 46  1  0  0  0
 26 47  1  0  0  0
 26 48  1  0  0  0
 26 49  1  0  0  0
M  END
> <s_m_entry_id>
30946

> <s_m_entry_name>
dock_pv.159

> <s_m_Source_Path>
/home/csk/Desktop/cluster/DUD-E-result/rxra

> <s_m_Source_File>
dock_pv.maegz

> <i_m_Source_File_Index>
159

> <chembl_id>
CHEMBL102039

> <chembl_pref_name>
None

> <i_lp_mmshare_version>
53161

> <r_lp_tautomer_probability>
1

> <s_lp_Force_Field>
OPLS_2005

> <r_lp_Energy>
31.674855

> <b_lp_Chiralities_Consistent>
1

> <s_lp_Variant>
CHEMBL2061_lig355-1

> <s_i_glide_gridfile>
glide-grid_1mv9

> <i_i_glide_lignum>
415

> <i_i_glide_rotatable_bonds>
4

> <r_i_docking_score>
-10.7484179978674

> <r_i_glide_ligand_efficiency>
-0.413400692225671

> <r_i_glide_ligand_efficiency_sa>
-1.22469792406537

> <r_i_glide_ligand_efficiency_ln>
-2.52423069836309

> <r_i_glide_gscore>
-10.7484179978674

> <r_i_glide_lipo>
-5.90313230395187

> <r_i_glide_hbond>
-0.0183900668282674

> <r_i_glide_metal>
0

> <r_i_glide_rewards>
-2.41662439127665

> <r_i_glide_evdw>
-47.7944755554199

> <r_i_glide_ecoul>
-2.94290518760681

> <r_i_glide_erotb>
0.420888320101362

> <r_i_glide_esite>
0

> <r_i_glide_emodel>
-78.9235077675509

> <r_i_glide_energy>
-50.7373807430267

> <r_i_glide_einternal>
5.73538398742676

> <i_i_glide_confnum>
25

> <i_i_glide_posenum>
78

> <r_i_glide_eff_state_penalty>
0

> <s_user_duplicate_titles>
CHEMBL2061_lig355,163624

> <i_f3d_flags>
0

> <s_m_subgroup_title>
dock_pv

> <s_m_subgroupid>
dock_pv

> <b_m_subgroup_collapsed>
1

$$$$
CHEMBL2061_lig110
                    3D
 Schrodinger Suite 2021-1.
 56 57  0  0  1  0            999 V2000
   63.3212   45.9018   33.0839 C   0  0  0  0  0  0
   62.1925   46.7033   32.8677 C   0  0  0  0  0  0
   64.0918   45.4898   31.9764 C   0  0  0  0  0  0
   62.7274   46.8641   30.5099 C   0  0  0  0  0  0
   61.9557   47.2384   31.6024 C   0  0  0  0  0  0
   63.8034   46.0058   30.7078 C   0  0  0  0  0  0
   62.3714   47.2986   29.1375 C   0  0  0  0  0  0
   63.5132   45.4149   34.3564 O   0  0  0  0  0  0
   61.1599   46.8620   33.9116 C   0  0  0  0  0  0
   60.6982   47.3803   28.6497 S   0  0  0  0  0  0
   55.9631   45.3315   31.1604 C   0  0  0  0  0  0
   55.1005   45.0060   30.0583 C   0  0  0  0  0  0
   59.2869   45.8999   32.5317 C   0  0  0  0  0  0
   57.3096   45.1923   31.2028 C   0  0  0  0  0  0
   59.8784   46.4772   33.7255 C   0  0  0  0  0  0
   63.2133   47.6217   28.0818 C   0  0  0  0  0  0
   57.9672   45.6771   32.4088 C   0  0  0  0  0  0
   61.1558   47.9193   27.0773 C   0  0  0  0  0  0
   62.5296   48.0128   26.9388 C   0  0  0  0  0  0
   54.0076   44.4767   30.2080 O   0  0  0  0  0  0
   65.1711   44.4118   32.0570 C   0  0  0  0  0  0
   64.4425   45.8356   36.5293 C   0  0  0  0  0  0
   64.7264   45.7394   35.0271 C   0  0  0  0  0  0
   55.5793   45.4349   28.8574 O   0  0  0  0  0  0
   64.0084   47.0325   36.9232 F   0  0  0  0  0  0
   63.6078   44.8775   36.9398 F   0  0  0  0  0  0
   61.5716   47.5296   35.2114 C   0  0  0  0  0  0
   58.1266   44.5462   30.0850 C   0  0  0  0  0  0
   64.7684   43.1136   32.8133 C   0  0  0  0  0  0
   66.5389   44.9918   32.4376 C   0  0  0  0  0  0
   61.1042   47.8819   31.4534 H   0  0  0  0  0  0
   64.3823   45.6897   29.8514 H   0  0  0  0  0  0
   55.4273   45.7299   32.0096 H   0  0  0  0  0  0
   59.9258   45.6778   31.6916 H   0  0  0  0  0  0
   59.2122   46.6580   34.5389 H   0  0  0  0  0  0
   64.2915   47.6009   28.1388 H   0  0  0  0  0  0
   57.3470   45.9161   33.2611 H   0  0  0  0  0  0
   60.4079   48.1395   26.3325 H   0  0  0  0  0  0
   63.0218   48.3230   26.0298 H   0  0  0  0  0  0
   65.3040   44.0761   31.0273 H   0  0  0  0  0  0
   65.3511   45.6962   37.0990 H   0  0  0  0  0  0
   65.4303   44.9242   34.8744 H   0  0  0  0  0  0
   65.1904   46.6589   34.6650 H   0  0  0  0  0  0
   56.4466   45.8319   28.9569 H   0  0  0  0  0  0
   61.7773   46.7624   35.9550 H   0  0  0  0  0  0
   62.4655   48.1412   35.0833 H   0  0  0  0  0  0
   60.7780   48.1651   35.6062 H   0  0  0  0  0  0
   58.8079   43.8327   30.5390 H   0  0  0  0  0  0
   57.5477   43.9526   29.3791 H   0  0  0  0  0  0
   58.7466   45.2765   29.5674 H   0  0  0  0  0  0
   64.3916   42.3654   32.1173 H   0  0  0  0  0  0
   65.6090   42.6598   33.3391 H   0  0  0  0  0  0
   63.9843   43.2483   33.5533 H   0  0  0  0  0  0
   67.2038   44.8854   31.5798 H   0  0  0  0  0  0
   66.5014   46.0557   32.6760 H   0  0  0  0  0  0
   66.9975   44.4787   33.2834 H   0  0  0  0  0  0
  1  2  1  0  0  0
  1  3  2  0  0  0
  1  8  1  0  0  0
  2  5  2  0  0  0
  2  9  1  0  0  0
  3  6  1  0  0  0
  3 21  1  0  0  0
  4  6  2  0  0  0
  4  7  1  0  0  0
  4  5  1  0  0  0
  5 31  1  0  0  0
  6 32  1  0  0  0
  7 10  1  0  0  0
  7 16  2  0  0  0
  8 23  1  0  0  0
  9 15  2  0  0  0
  9 27  1  0  0  0
 10 18  1  0  0  0
 11 14  2  0  0  0
 11 12  1  0  0  0
 11 33  1  0  0  0
 12 20  2  0  0  0
 12 24  1  0  0  0
 13 15  1  0  0  0
 13 17  2  0  0  0
 13 34  1  0  0  0
 14 17  1  0  0  0
 14 28  1  0  0  0
 15 35  1  0  0  0
 16 19  1  0  0  0
 16 36  1  0  0  0
 17 37  1  0  0  0
 18 19  2  0  0  0
 18 38  1  0  0  0
 19 39  1  0  0  0
 21 29  1  0  0  0
 21 30  1  0  0  0
 21 40  1  0  0  0
 22 23  1  0  0  0
 22 25  1  0  0  0
 22 26  1  0  0  0
 22 41  1  0  0  0
 23 42  1  0  0  0
 23 43  1  0  0  0
 24 44  1  0  0  0
 27 45  1  0  0  0
 27 46  1  0  0  0
 27 47  1  0  0  0
 28 48  1  0  0  0
 28 49  1  0  0  0
 28 50  1  0  0  0
 29 51  1  0  0  0
 29 52  1  0  0  0
 29 53  1  0  0  0
 30 54  1  0  0  0
 30 55  1  0  0  0
 30 56  1  0  0  0
M  END
> <s_m_entry_id>
30947

> <s_m_entry_name>
dock_pv.160

> <s_m_Source_Path>
/home/csk/Desktop/cluster/DUD-E-result/rxra

> <s_m_Source_File>
dock_pv.maegz

> <i_m_Source_File_Index>
160

> <chembl_id>
CHEMBL130374

> <chembl_pref_name>
None

> <i_lp_mmshare_version>
53161

> <r_lp_tautomer_probability>
1

> <s_lp_Force_Field>
OPLS_2005

> <r_lp_Energy>
28.164564

> <b_lp_Chiralities_Consistent>
1

> <s_lp_Variant>
CHEMBL2061_lig110-1

> <s_i_glide_gridfile>
glide-grid_1mv9

> <i_i_glide_lignum>
149

> <i_i_glide_rotatable_bonds>
10

> <r_i_docking_score>
-10.7446732187335

> <r_i_glide_ligand_efficiency>
-0.358155773957782

> <r_i_glide_ligand_efficiency_sa>
-1.11287326177498

> <r_i_glide_ligand_efficiency_ln>
-2.44130682788774

> <r_i_glide_gscore>
-10.7446732187335

> <r_i_glide_lipo>
-6.03782613750567

> <r_i_glide_hbond>
-0.32

> <r_i_glide_metal>
0

> <r_i_glide_rewards>
-2.40408572838591

> <r_i_glide_evdw>
-42.376594543457

> <r_i_glide_ecoul>
-4.0567774772644

> <r_i_glide_erotb>
0.744584995920624

> <r_i_glide_esite>
0

> <r_i_glide_emodel>
-66.9502090432697

> <r_i_glide_energy>
-46.4333720207214

> <r_i_glide_einternal>
4.6653528213501

> <i_i_glide_confnum>
42

> <i_i_glide_posenum>
10

> <r_i_glide_eff_state_penalty>
0

> <s_user_duplicate_titles>
CHEMBL2061_lig110,217046

> <i_f3d_flags>
0

> <s_m_subgroup_title>
dock_pv

> <s_m_subgroupid>
dock_pv

> <b_m_subgroup_collapsed>
1

$$$$
CHEMBL2061_lig336
                    3D
 Schrodinger Suite 2021-1.
 59 61  0  0  1  0            999 V2000
   62.9046   46.5100   29.8545 C   0  0  0  0  0  0
   63.2897   46.2730   31.2679 C   0  0  0  0  0  0
   61.5828   46.4508   29.3195 C   0  0  0  0  0  0
   64.3985   45.4934   31.6212 C   0  0  0  0  0  0
   63.8189   46.8057   28.8598 C   0  0  0  0  0  0
   64.7619   45.3825   32.9705 C   0  0  0  0  0  0
   63.1514   47.2688   27.3393 S   0  0  0  0  0  0
   62.4905   46.8203   32.2695 C   0  0  0  0  0  0
   63.9263   45.8997   33.9601 C   0  0  0  0  0  0
   60.3514   46.0846   29.9082 C   0  0  0  0  0  0
   59.1730   46.1314   29.1423 C   0  0  0  0  0  0
   62.7593   46.5668   33.6156 C   0  0  0  0  0  0
   59.2220   46.4889   27.8313 N   0  0  0  0  0  0
   57.8108   45.8549   29.7372 C   0  0  0  0  0  0
   56.6725   46.0777   29.0151 C   0  0  0  0  0  0
   61.5779   46.8402   27.9595 C   0  0  0  0  0  0
   55.3027   45.8882   29.4387 C   0  0  0  0  0  0
   60.3930   46.8529   27.2596 C   0  0  0  0  0  0
   54.8815   44.9739   30.1445 O   0  0  0  0  0  0
   66.0040   44.6229   33.3881 C   0  0  0  0  0  0
   61.8001   47.0000   34.7081 C   0  0  0  0  0  0
   65.1059   44.8146   30.6564 O   0  0  0  0  0  0
   54.5018   46.8736   28.9392 O   0  0  0  0  0  0
   57.7994   45.3528   31.1862 C   0  0  0  0  0  0
   65.5711   43.2770   33.9827 C   0  0  0  0  0  0
   66.9059   45.4338   34.3300 C   0  0  0  0  0  0
   64.6376   43.4865   30.4081 C   0  0  0  0  0  0
   60.3430   46.6626   34.3552 C   0  0  0  0  0  0
   62.0013   48.4770   35.0304 C   0  0  0  0  0  0
   63.6076   43.4684   29.2743 C   0  0  0  0  0  0
   64.8907   46.8539   28.9798 H   0  0  0  0  0  0
   61.6428   47.4280   31.9949 H   0  0  0  0  0  0
   64.1602   45.7452   35.0027 H   0  0  0  0  0  0
   60.3336   45.7794   30.9394 H   0  0  0  0  0  0
   56.7413   46.4485   28.0048 H   0  0  0  0  0  0
   60.4080   47.1481   26.2226 H   0  0  0  0  0  0
   66.6186   44.4770   32.5016 H   0  0  0  0  0  0
   62.0302   46.4403   35.6171 H   0  0  0  0  0  0
   55.0111   47.5293   28.4603 H   0  0  0  0  0  0
   58.3004   44.3872   31.2538 H   0  0  0  0  0  0
   58.3001   46.0700   31.8379 H   0  0  0  0  0  0
   56.8066   45.2295   31.6110 H   0  0  0  0  0  0
   64.8771   42.7397   33.3398 H   0  0  0  0  0  0
   66.4081   42.6144   34.1390 H   0  0  0  0  0  0
   65.0678   43.4132   34.9390 H   0  0  0  0  0  0
   67.2101   46.3658   33.8515 H   0  0  0  0  0  0
   66.4077   45.6891   35.2643 H   0  0  0  0  0  0
   67.8096   44.8771   34.5748 H   0  0  0  0  0  0
   65.5011   42.8820   30.1390 H   0  0  0  0  0  0
   64.2091   43.0091   31.2893 H   0  0  0  0  0  0
   60.1185   45.6118   34.5392 H   0  0  0  0  0  0
   59.6671   47.2768   34.9389 H   0  0  0  0  0  0
   60.0809   46.8652   33.3201 H   0  0  0  0  0  0
   63.0098   48.6641   35.4035 H   0  0  0  0  0  0
   61.8620   49.0899   34.1389 H   0  0  0  0  0  0
   61.3013   48.8169   35.7964 H   0  0  0  0  0  0
   63.4714   42.4770   28.8585 H   0  0  0  0  0  0
   62.6322   43.8079   29.6171 H   0  0  0  0  0  0
   63.9197   44.1210   28.4657 H   0  0  0  0  0  0
  1  2  1  0  0  0
  1  3  1  0  0  0
  1  5  2  0  0  0
  2  4  1  0  0  0
  2  8  2  0  0  0
  3 10  1  0  0  0
  3 16  2  0  0  0
  4  6  2  0  0  0
  4 22  1  0  0  0
  5  7  1  0  0  0
  5 31  1  0  0  0
  6 20  1  0  0  0
  6  9  1  0  0  0
  7 16  1  0  0  0
  8 12  1  0  0  0
  8 32  1  0  0  0
  9 12  2  0  0  0
  9 33  1  0  0  0
 10 11  2  0  0  0
 10 34  1  0  0  0
 11 14  1  0  0  0
 11 13  1  0  0  0
 12 21  1  0  0  0
 13 18  2  0  0  0
 14 15  2  0  0  0
 14 24  1  0  0  0
 15 17  1  0  0  0
 15 35  1  0  0  0
 16 18  1  0  0  0
 17 19  2  0  0  0
 17 23  1  0  0  0
 18 36  1  0  0  0
 20 25  1  0  0  0
 20 26  1  0  0  0
 20 37  1  0  0  0
 21 28  1  0  0  0
 21 29  1  0  0  0
 21 38  1  0  0  0
 22 27  1  0  0  0
 23 39  1  0  0  0
 24 40  1  0  0  0
 24 41  1  0  0  0
 24 42  1  0  0  0
 25 43  1  0  0  0
 25 44  1  0  0  0
 25 45  1  0  0  0
 26 46  1  0  0  0
 26 47  1  0  0  0
 26 48  1  0  0  0
 27 30  1  0  0  0
 27 49  1  0  0  0
 27 50  1  0  0  0
 28 51  1  0  0  0
 28 52  1  0  0  0
 28 53  1  0  0  0
 29 54  1  0  0  0
 29 55  1  0  0  0
 29 56  1  0  0  0
 30 57  1  0  0  0
 30 58  1  0  0  0
 30 59  1  0  0  0
M  END
> <s_m_entry_id>
30948

> <s_m_entry_name>
dock_pv.161

> <s_m_Source_Path>
/home/csk/Desktop/cluster/DUD-E-result/rxra

> <s_m_Source_File>
dock_pv.maegz

> <i_m_Source_File_Index>
161

> <chembl_id>
CHEMBL420808

> <chembl_pref_name>
None

> <i_lp_mmshare_version>
53161

> <r_lp_tautomer_probability>
1

> <s_lp_Force_Field>
OPLS_2005

> <r_lp_Energy>
22.699674

> <b_lp_Chiralities_Consistent>
1

> <s_lp_Variant>
CHEMBL2061_lig336-1

> <s_i_glide_gridfile>
glide-grid_1mv9

> <i_i_glide_lignum>
396

> <i_i_glide_rotatable_bonds>
8

> <r_i_docking_score>
-10.7177837811897

> <r_i_glide_ligand_efficiency>
-0.357259459372989

> <r_i_glide_ligand_efficiency_sa>
-1.11008820396471

> <r_i_glide_ligand_efficiency_ln>
-2.4351972546939

> <r_i_glide_gscore>
-10.7177837811897

> <r_i_glide_lipo>
-6.7122831672727

> <r_i_glide_hbond>
0

> <r_i_glide_metal>
0

> <r_i_glide_rewards>
-1.62300613410469

> <r_i_glide_evdw>
-48.7178764343262

> <r_i_glide_ecoul>
-2.59003567695618

> <r_i_glide_erotb>
0.441904693447468

> <r_i_glide_esite>
0

> <r_i_glide_emodel>
-53.8366655125931

> <r_i_glide_energy>
-51.3079121112823

> <r_i_glide_einternal>
4.5661416053772

> <i_i_glide_confnum>
55

> <i_i_glide_posenum>
19

> <r_i_glide_eff_state_penalty>
0

> <s_user_duplicate_titles>
CHEMBL2061_lig336

> <i_f3d_flags>
0

> <s_m_subgroup_title>
dock_pv

> <s_m_subgroupid>
dock_pv

> <b_m_subgroup_collapsed>
1

$$$$
CHEMBL2061_lig370
                    3D
 Schrodinger Suite 2021-1.
 55 57  0  0  1  0            999 V2000
   62.8856   46.4732   32.8713 C   0  0  0  0  0  0
   62.0380   46.2362   30.5656 C   0  0  0  0  0  0
   63.9776   45.6216   32.5467 C   0  0  0  0  0  0
   61.0168   46.5675   29.5304 C   0  0  0  0  0  0
   61.9906   46.8151   31.8396 C   0  0  0  0  0  0
   64.0191   45.0590   31.2619 C   0  0  0  0  0  0
   63.0484   45.3103   30.2900 C   0  0  0  0  0  0
   62.6427   47.0018   34.3127 C   0  0  0  0  0  0
   65.0762   45.2266   33.5655 C   0  0  0  0  0  0
   55.4417   45.0271   30.2857 C   0  0  0  0  0  0
   59.5987   46.0900   29.6951 C   0  0  0  0  0  0
   56.8983   45.3108   30.0565 C   0  0  0  0  0  0
   61.4311   47.2675   28.4524 C   0  0  0  0  0  0
   64.9784   46.0908   34.8476 C   0  0  0  0  0  0
   63.5400   46.2562   35.3377 C   0  0  0  0  0  0
   54.8655   45.2770   31.3390 O   0  0  0  0  0  0
   59.1112   45.6770   30.9390 C   0  0  0  0  0  0
   58.6926   46.0868   28.6233 C   0  0  0  0  0  0
   57.3616   45.7129   28.8012 C   0  0  0  0  0  0
   57.7934   45.2770   31.1237 C   0  0  0  0  0  0
   54.8080   44.4770   29.2254 O   0  0  0  0  0  0
   63.0537   44.6672   29.0678 O   0  0  0  0  0  0
   64.8896   43.7370   33.9469 C   0  0  0  0  0  0
   66.4760   45.5101   32.9698 C   0  0  0  0  0  0
   62.9823   48.5023   34.3828 C   0  0  0  0  0  0
   61.1795   46.7278   34.7444 C   0  0  0  0  0  0
   63.3735   43.2770   29.0650 C   0  0  0  0  0  0
   61.1984   47.5175   32.0490 H   0  0  0  0  0  0
   64.8201   44.3777   31.0268 H   0  0  0  0  0  0
   62.4630   47.5756   28.3597 H   0  0  0  0  0  0
   60.7731   47.5543   27.6476 H   0  0  0  0  0  0
   65.5930   45.6668   35.6432 H   0  0  0  0  0  0
   65.4003   47.0794   34.6663 H   0  0  0  0  0  0
   63.1325   45.2712   35.5625 H   0  0  0  0  0  0
   63.5466   46.7820   36.2939 H   0  0  0  0  0  0
   59.7392   45.6770   31.8135 H   0  0  0  0  0  0
   58.9992   46.3882   27.6341 H   0  0  0  0  0  0
   56.6962   45.7757   27.9515 H   0  0  0  0  0  0
   57.4756   45.0028   32.1183 H   0  0  0  0  0  0
   55.4241   44.1816   28.5502 H   0  0  0  0  0  0
   65.6079   43.4355   34.7085 H   0  0  0  0  0  0
   63.8916   43.5252   34.3303 H   0  0  0  0  0  0
   65.0458   43.0801   33.0908 H   0  0  0  0  0  0
   67.2590   45.3254   33.7068 H   0  0  0  0  0  0
   66.6993   44.8770   32.1118 H   0  0  0  0  0  0
   66.5736   46.5463   32.6419 H   0  0  0  0  0  0
   62.8175   48.8770   35.3929 H   0  0  0  0  0  0
   64.0209   48.7107   34.1390 H   0  0  0  0  0  0
   62.3621   49.0915   33.7068 H   0  0  0  0  0  0
   61.0105   47.0158   35.7828 H   0  0  0  0  0  0
   60.4564   47.2770   34.1476 H   0  0  0  0  0  0
   60.9183   45.6770   34.6516 H   0  0  0  0  0  0
   63.2080   42.8672   28.0723 H   0  0  0  0  0  0
   64.4080   43.0786   29.3390 H   0  0  0  0  0  0
   62.7369   42.7082   29.7390 H   0  0  0  0  0  0
  1  3  2  0  0  0
  1  5  1  0  0  0
  1  8  1  0  0  0
  2  5  2  0  0  0
  2  4  1  0  0  0
  2  7  1  0  0  0
  3  6  1  0  0  0
  3  9  1  0  0  0
  4 11  1  0  0  0
  4 13  2  0  0  0
  5 28  1  0  0  0
  6  7  2  0  0  0
  6 29  1  0  0  0
  7 22  1  0  0  0
  8 15  1  0  0  0
  8 25  1  0  0  0
  8 26  1  0  0  0
  9 23  1  0  0  0
  9 24  1  0  0  0
  9 14  1  0  0  0
 10 12  1  0  0  0
 10 16  2  0  0  0
 10 21  1  0  0  0
 11 17  1  0  0  0
 11 18  2  0  0  0
 12 19  2  0  0  0
 12 20  1  0  0  0
 13 30  1  0  0  0
 13 31  1  0  0  0
 14 15  1  0  0  0
 14 32  1  0  0  0
 14 33  1  0  0  0
 15 34  1  0  0  0
 15 35  1  0  0  0
 17 20  2  0  0  0
 17 36  1  0  0  0
 18 19  1  0  0  0
 18 37  1  0  0  0
 19 38  1  0  0  0
 20 39  1  0  0  0
 21 40  1  0  0  0
 22 27  1  0  0  0
 23 41  1  0  0  0
 23 42  1  0  0  0
 23 43  1  0  0  0
 24 44  1  0  0  0
 24 45  1  0  0  0
 24 46  1  0  0  0
 25 47  1  0  0  0
 25 48  1  0  0  0
 25 49  1  0  0  0
 26 50  1  0  0  0
 26 51  1  0  0  0
 26 52  1  0  0  0
 27 53  1  0  0  0
 27 54  1  0  0  0
 27 55  1  0  0  0
M  END
> <s_m_entry_id>
30949

> <s_m_entry_name>
dock_pv.162

> <s_m_Source_Path>
/home/csk/Desktop/cluster/DUD-E-result/rxra

> <s_m_Source_File>
dock_pv.maegz

> <i_m_Source_File_Index>
162

> <chembl_id>
CHEMBL101212

> <chembl_pref_name>
None

> <i_lp_mmshare_version>
53161

> <r_lp_tautomer_probability>
1

> <s_lp_Force_Field>
OPLS_2005

> <r_lp_Energy>
32.757523

> <b_lp_Chiralities_Consistent>
1

> <s_lp_Variant>
CHEMBL2061_lig370-1

> <s_i_glide_gridfile>
glide-grid_1mv9

> <i_i_glide_lignum>
430

> <i_i_glide_rotatable_bonds>
5

> <r_i_docking_score>
-10.7107576606177

> <r_i_glide_ligand_efficiency>
-0.396694728171025

> <r_i_glide_ligand_efficiency_sa>
-1.19008418320563

> <r_i_glide_ligand_efficiency_ln>
-2.49328780275123

> <r_i_glide_gscore>
-10.7107576606177

> <r_i_glide_lipo>
-6.29771554465108

> <r_i_glide_hbond>
-0.0106897001290587

> <r_i_glide_metal>
0

> <r_i_glide_rewards>
-2.13616908581769

> <r_i_glide_evdw>
-44.4038124084473

> <r_i_glide_ecoul>
-3.20103478431702

> <r_i_glide_erotb>
0.434162508050075

> <r_i_glide_esite>
0

> <r_i_glide_emodel>
-68.3843845537188

> <r_i_glide_energy>
-47.6048471927643

> <r_i_glide_einternal>
8.29149723052979

> <i_i_glide_confnum>
46

> <i_i_glide_posenum>
209

> <r_i_glide_eff_state_penalty>
0

> <s_user_duplicate_titles>
CHEMBL2061_lig370,163641

> <i_f3d_flags>
0

> <s_m_subgroup_title>
dock_pv

> <s_m_subgroupid>
dock_pv

> <b_m_subgroup_collapsed>
1

$$$$
CHEMBL2061_lig300
                    3D
 Schrodinger Suite 2021-1.
 55 58  0  0  1  0            999 V2000
   61.0129   46.5864   29.4980 C   0  0  1  0  0  0
   61.4564   46.7069   28.1618 O   0  0  0  0  0  0
   62.0730   46.1968   30.5442 C   0  0  0  0  0  0
   62.9207   46.4447   32.8492 C   0  0  0  0  0  0
   64.0093   45.5869   32.5277 C   0  0  0  0  0  0
   61.2039   47.9115   28.8137 C   0  0  0  0  0  0
   62.0309   46.7865   31.8136 C   0  0  0  0  0  0
   64.0585   45.0284   31.2399 C   0  0  0  0  0  0
   63.1014   45.2893   30.2635 C   0  0  0  0  0  0
   65.1036   45.1896   33.5502 C   0  0  0  0  0  0
   62.6752   46.9782   34.2901 C   0  0  0  0  0  0
   55.4344   45.0277   30.2859 C   0  0  0  0  0  0
   59.5694   46.0809   29.6883 C   0  0  0  0  0  0
   56.8887   45.3110   30.0553 C   0  0  0  0  0  0
   64.9997   46.0436   34.8395 C   0  0  0  0  0  0
   63.5592   46.2206   35.3185 C   0  0  0  0  0  0
   54.8565   45.2768   31.3390 O   0  0  0  0  0  0
   59.0994   45.6770   30.9391 C   0  0  0  0  0  0
   58.6773   46.0770   28.6116 C   0  0  0  0  0  0
   57.3477   45.7056   28.7945 C   0  0  0  0  0  0
   57.7822   45.2803   31.1250 C   0  0  0  0  0  0
   54.8080   44.4769   29.2233 O   0  0  0  0  0  0
   63.1907   44.5424   28.9397 C   0  0  0  0  0  0
   63.0269   48.4774   34.3617 C   0  0  0  0  0  0
   61.2072   46.7213   34.7190 C   0  0  0  0  0  0
   64.9208   43.6954   33.9167 C   0  0  0  0  0  0
   66.5047   45.4861   32.9639 C   0  0  0  0  0  0
   60.3485   48.4755   28.4435 H   0  0  0  0  0  0
   62.0806   48.5175   29.0321 H   0  0  0  0  0  0
   61.2369   47.4884   32.0191 H   0  0  0  0  0  0
   64.8503   44.3345   31.0004 H   0  0  0  0  0  0
   65.4327   47.0300   34.6745 H   0  0  0  0  0  0
   65.6023   45.6055   35.6367 H   0  0  0  0  0  0
   63.5623   46.7424   36.2769 H   0  0  0  0  0  0
   63.1443   45.2367   35.5349 H   0  0  0  0  0  0
   59.7386   45.6771   31.8057 H   0  0  0  0  0  0
   59.0045   46.3919   27.6316 H   0  0  0  0  0  0
   56.6804   45.7682   27.9463 H   0  0  0  0  0  0
   57.4632   45.0100   32.1202 H   0  0  0  0  0  0
   55.4274   44.1799   28.5519 H   0  0  0  0  0  0
   63.7998   43.6409   29.0210 H   0  0  0  0  0  0
   62.2019   44.2130   28.6185 H   0  0  0  0  0  0
   63.6077   45.1848   28.1639 H   0  0  0  0  0  0
   62.8469   48.8662   35.3644 H   0  0  0  0  0  0
   64.0727   48.6738   34.1390 H   0  0  0  0  0  0
   62.4235   49.0670   33.6705 H   0  0  0  0  0  0
   61.0405   47.0092   35.7578 H   0  0  0  0  0  0
   60.4892   47.2770   34.1242 H   0  0  0  0  0  0
   60.9329   45.6754   34.6239 H   0  0  0  0  0  0
   65.6571   43.3755   34.6535 H   0  0  0  0  0  0
   63.9318   43.4834   34.3231 H   0  0  0  0  0  0
   65.0514   43.0491   33.0484 H   0  0  0  0  0  0
   67.2852   45.2856   33.6995 H   0  0  0  0  0  0
   66.7314   44.8759   32.0906 H   0  0  0  0  0  0
   66.6028   46.5297   32.6605 H   0  0  0  0  0  0
  1  2  1  0  0  0
  1  3  1  0  0  0
  1  6  1  0  0  0
  1 13  1  0  0  0
  2  6  1  0  0  0
  3  7  2  0  0  0
  3  9  1  0  0  0
  4  7  1  0  0  0
  4 11  1  0  0  0
  4  5  2  0  0  0
  5  8  1  0  0  0
  5 10  1  0  0  0
  6 28  1  0  0  0
  6 29  1  0  0  0
  7 30  1  0  0  0
  8  9  2  0  0  0
  8 31  1  0  0  0
  9 23  1  0  0  0
 10 15  1  0  0  0
 10 26  1  0  0  0
 10 27  1  0  0  0
 11 16  1  0  0  0
 11 24  1  0  0  0
 11 25  1  0  0  0
 12 14  1  0  0  0
 12 17  2  0  0  0
 12 22  1  0  0  0
 13 18  2  0  0  0
 13 19  1  0  0  0
 14 20  1  0  0  0
 14 21  2  0  0  0
 15 16  1  0  0  0
 15 32  1  0  0  0
 15 33  1  0  0  0
 16 34  1  0  0  0
 16 35  1  0  0  0
 18 21  1  0  0  0
 18 36  1  0  0  0
 19 20  2  0  0  0
 19 37  1  0  0  0
 20 38  1  0  0  0
 21 39  1  0  0  0
 22 40  1  0  0  0
 23 41  1  0  0  0
 23 42  1  0  0  0
 23 43  1  0  0  0
 24 44  1  0  0  0
 24 45  1  0  0  0
 24 46  1  0  0  0
 25 47  1  0  0  0
 25 48  1  0  0  0
 25 49  1  0  0  0
 26 50  1  0  0  0
 26 51  1  0  0  0
 26 52  1  0  0  0
 27 53  1  0  0  0
 27 54  1  0  0  0
 27 55  1  0  0  0
M  END
> <s_m_entry_id>
30950

> <s_m_entry_name>
dock_pv.163

> <s_m_Source_Path>
/home/csk/Desktop/cluster/DUD-E-result/rxra

> <s_m_Source_File>
dock_pv.maegz

> <i_m_Source_File_Index>
163

> <chembl_id>
CHEMBL106817

> <chembl_pref_name>
None

> <i_lp_mmshare_version>
53161

> <r_lp_tautomer_probability>
1

> <s_lp_Force_Field>
OPLS_2005

> <r_lp_Energy>
33.61253

> <b_lp_Chiralities_Consistent>
1

> <s_lp_Variant>
CHEMBL2061_lig300-2

> <s_i_glide_gridfile>
glide-grid_1mv9

> <i_i_glide_lignum>
347

> <i_i_glide_rotatable_bonds>
4

> <r_i_docking_score>
-10.7104931538573

> <r_i_glide_ligand_efficiency>
-0.396684931624344

> <r_i_glide_ligand_efficiency_sa>
-1.19005479356562

> <r_i_glide_ligand_efficiency_ln>
-2.49322622993815

> <r_i_glide_gscore>
-10.7104931538573

> <r_i_glide_lipo>
-6.3014335510904

> <r_i_glide_hbond>
-0.0134710929348793

> <r_i_glide_metal>
0

> <r_i_glide_rewards>
-2.16955634672806

> <r_i_glide_evdw>
-44.1097221374512

> <r_i_glide_ecoul>
-3.03139042854309

> <r_i_glide_erotb>
0.434162508050075

> <r_i_glide_esite>
0

> <r_i_glide_emodel>
-67.5734111170556

> <r_i_glide_energy>
-47.1411125659943

> <r_i_glide_einternal>
4.14122819900513

> <i_i_glide_confnum>
15

> <i_i_glide_posenum>
95

> <r_i_glide_eff_state_penalty>
0

> <s_user_duplicate_titles>
CHEMBL2061_lig300

> <i_f3d_flags>
0

> <s_m_subgroup_title>
dock_pv

> <s_m_subgroupid>
dock_pv

> <b_m_subgroup_collapsed>
1

$$$$
CHEMBL2061_lig7
                    3D
 Schrodinger Suite 2021-1.
 52 54  0  0  1  0            999 V2000
   64.6244   45.6774   31.4085 C   0  0  0  0  0  0
   63.7668   45.9678   30.3476 C   0  0  0  0  0  0
   62.5092   46.5378   30.6132 C   0  0  0  0  0  0
   62.2189   46.8853   31.9336 C   0  0  0  0  0  0
   64.2991   45.9447   32.7456 C   0  0  0  0  0  0
   63.0476   46.5640   33.0168 C   0  0  0  0  0  0
   62.5836   46.9506   34.4445 C   0  0  0  0  0  0
   63.4510   46.2443   35.5153 C   0  0  0  0  0  0
   64.9348   46.2826   35.1665 C   0  0  0  0  0  0
   65.2807   45.5220   33.8679 C   0  0  0  0  0  0
   64.2466   45.6382   28.9398 C   0  0  0  0  0  0
   65.1322   44.0011   34.1016 C   0  0  0  0  0  0
   66.7456   45.9174   33.5342 C   0  0  0  0  0  0
   62.7513   48.4770   34.6045 C   0  0  0  0  0  0
   61.1175   46.5045   34.6884 C   0  0  0  0  0  0
   61.5090   46.8723   29.5384 C   0  0  0  0  0  0
   60.0758   46.3656   29.6080 C   0  0  0  0  0  0
   59.5425   45.7821   30.7654 C   0  0  0  0  0  0
   58.2145   45.3704   30.8592 C   0  0  0  0  0  0
   57.3490   45.5340   29.7803 C   0  0  0  0  0  0
   57.8698   46.0767   28.5998 C   0  0  0  0  0  0
   59.2071   46.4772   28.5107 C   0  0  0  0  0  0
   55.8821   45.2220   29.9344 C   0  0  0  0  0  0
   55.2986   45.2763   31.0156 O   0  0  0  0  0  0
   55.2555   44.8775   28.7809 O   0  0  0  0  0  0
   59.6394   46.9828   27.3390 F   0  0  0  0  0  0
   61.9026   47.4998   28.5533 O   0  0  0  0  0  0
   65.5714   45.2088   31.1876 H   0  0  0  0  0  0
   61.3043   47.4215   32.1396 H   0  0  0  0  0  0
   63.1413   45.2091   35.6549 H   0  0  0  0  0  0
   63.3110   46.7210   36.4856 H   0  0  0  0  0  0
   65.5240   45.9133   36.0062 H   0  0  0  0  0  0
   65.2080   47.3271   35.0377 H   0  0  0  0  0  0
   65.2747   45.2771   28.9367 H   0  0  0  0  0  0
   63.6048   44.8846   28.4834 H   0  0  0  0  0  0
   64.2289   46.5252   28.3065 H   0  0  0  0  0  0
   65.7462   43.6766   34.9389 H   0  0  0  0  0  0
   64.1039   43.7027   34.3057 H   0  0  0  0  0  0
   65.4583   43.4320   33.2319 H   0  0  0  0  0  0
   67.3920   45.8030   34.4057 H   0  0  0  0  0  0
   67.1923   45.2889   32.7661 H   0  0  0  0  0  0
   66.8231   46.9550   33.2056 H   0  0  0  0  0  0
   62.5271   48.7952   35.6232 H   0  0  0  0  0  0
   63.7579   48.8205   34.3695 H   0  0  0  0  0  0
   62.0791   49.0149   33.9362 H   0  0  0  0  0  0
   60.8487   46.5606   35.7442 H   0  0  0  0  0  0
   60.4068   47.1378   34.1616 H   0  0  0  0  0  0
   60.9332   45.4853   34.3518 H   0  0  0  0  0  0
   60.1273   45.6770   31.6598 H   0  0  0  0  0  0
   57.8595   44.9667   31.7979 H   0  0  0  0  0  0
   57.2372   46.2138   27.7393 H   0  0  0  0  0  0
   55.8849   44.6623   28.0916 H   0  0  0  0  0  0
  1  2  2  0  0  0
  1  5  1  0  0  0
  1 28  1  0  0  0
  2  3  1  0  0  0
  2 11  1  0  0  0
  3  4  2  0  0  0
  3 16  1  0  0  0
  4  6  1  0  0  0
  4 29  1  0  0  0
  5 10  1  0  0  0
  5  6  2  0  0  0
  6  7  1  0  0  0
  7 14  1  0  0  0
  7 15  1  0  0  0
  7  8  1  0  0  0
  8  9  1  0  0  0
  8 30  1  0  0  0
  8 31  1  0  0  0
  9 10  1  0  0  0
  9 32  1  0  0  0
  9 33  1  0  0  0
 10 13  1  0  0  0
 10 12  1  0  0  0
 11 34  1  0  0  0
 11 35  1  0  0  0
 11 36  1  0  0  0
 12 37  1  0  0  0
 12 38  1  0  0  0
 12 39  1  0  0  0
 13 40  1  0  0  0
 13 41  1  0  0  0
 13 42  1  0  0  0
 14 43  1  0  0  0
 14 44  1  0  0  0
 14 45  1  0  0  0
 15 46  1  0  0  0
 15 47  1  0  0  0
 15 48  1  0  0  0
 16 17  1  0  0  0
 16 27  2  0  0  0
 17 18  2  0  0  0
 17 22  1  0  0  0
 18 19  1  0  0  0
 18 49  1  0  0  0
 19 20  2  0  0  0
 19 50  1  0  0  0
 20 21  1  0  0  0
 20 23  1  0  0  0
 21 22  2  0  0  0
 21 51  1  0  0  0
 22 26  1  0  0  0
 23 24  2  0  0  0
 23 25  1  0  0  0
 25 52  1  0  0  0
M  END
> <s_m_entry_id>
30951

> <s_m_entry_name>
dock_pv.164

> <s_m_Source_Path>
/home/csk/Desktop/cluster/DUD-E-result/rxra

> <s_m_Source_File>
dock_pv.maegz

> <i_m_Source_File_Index>
164

> <chembl_id>
CHEMBL575740

> <chembl_pref_name>
None

> <i_lp_mmshare_version>
53161

> <r_lp_tautomer_probability>
1

> <s_lp_Force_Field>
OPLS_2005

> <r_lp_Energy>
31.967362

> <b_lp_Chiralities_Consistent>
1

> <s_lp_Variant>
CHEMBL2061_lig7-1

> <s_i_glide_gridfile>
glide-grid_1mv9

> <i_i_glide_lignum>
10

> <i_i_glide_rotatable_bonds>
4

> <r_i_docking_score>
-10.7078909148448

> <r_i_glide_ligand_efficiency>
-0.39658855240166

> <r_i_glide_ligand_efficiency_sa>
-1.18976565589789

> <r_i_glide_ligand_efficiency_ln>
-2.49262047159731

> <r_i_glide_gscore>
-10.7078909148448

> <r_i_glide_lipo>
-5.86899434112773

> <r_i_glide_hbond>
0

> <r_i_glide_metal>
0

> <r_i_glide_rewards>
-2.93317814626861

> <r_i_glide_evdw>
-42.4231986999512

> <r_i_glide_ecoul>
-1.40277171134949

> <r_i_glide_erotb>
0.425857264251486

> <r_i_glide_esite>
0

> <r_i_glide_emodel>
-66.2696111730723

> <r_i_glide_energy>
-43.8259704113007

> <r_i_glide_einternal>
7.7391037940979

> <i_i_glide_confnum>
21

> <i_i_glide_posenum>
264

> <r_i_glide_eff_state_penalty>
0

> <s_user_duplicate_titles>
CHEMBL2061_lig7

> <i_f3d_flags>
0

> <s_m_subgroup_title>
dock_pv

> <s_m_subgroupid>
dock_pv

> <b_m_subgroup_collapsed>
1

$$$$
CHEMBL2061_lig388
                    3D
 Schrodinger Suite 2021-1.
 54 56  0  0  1  0            999 V2000
   62.8070   46.4789   32.7176 C   0  0  0  0  0  0
   63.8977   45.6574   32.3222 C   0  0  0  0  0  0
   61.8635   46.3055   30.4347 C   0  0  0  0  0  0
   60.7807   46.6760   29.4714 C   0  0  0  0  0  0
   61.8622   46.8315   31.7348 C   0  0  0  0  0  0
   63.9123   45.1628   31.0078 C   0  0  0  0  0  0
   62.9115   45.4416   30.0800 C   0  0  0  0  0  0
   62.6176   46.9719   34.1825 C   0  0  0  0  0  0
   65.0199   45.2183   33.2974 C   0  0  0  0  0  0
   55.2884   44.9350   30.3122 C   0  0  0  0  0  0
   60.9760   47.4739   28.4803 N   0  0  0  0  0  0
   59.4035   46.1179   29.6516 C   0  0  0  0  0  0
   56.7270   45.2755   30.0520 C   0  0  0  0  0  0
   64.9747   46.0458   34.6083 C   0  0  0  0  0  0
   63.5551   46.2066   35.1561 C   0  0  0  0  0  0
   54.7139   45.2772   31.3390 O   0  0  0  0  0  0
   58.4785   46.0828   28.5924 C   0  0  0  0  0  0
   58.9515   45.6770   30.9025 C   0  0  0  0  0  0
   57.6379   45.2770   31.1072 C   0  0  0  0  0  0
   57.1578   45.6771   28.7871 C   0  0  0  0  0  0
   54.6769   44.2132   29.3390 O   0  0  0  0  0  0
   62.9757   44.7556   28.7160 C   0  0  0  0  0  0
   62.9508   48.4771   34.2818 C   0  0  0  0  0  0
   61.1715   46.6765   34.6599 C   0  0  0  0  0  0
   64.8148   43.7216   33.6430 C   0  0  0  0  0  0
   66.4080   45.4944   32.6690 C   0  0  0  0  0  0
   62.2721   48.0277   28.3760 O   0  0  0  0  0  0
   61.0661   47.5058   32.0125 H   0  0  0  0  0  0
   64.7072   44.4955   30.7096 H   0  0  0  0  0  0
   65.6099   45.5855   35.3673 H   0  0  0  0  0  0
   65.4067   47.0344   34.4504 H   0  0  0  0  0  0
   63.1589   45.2170   35.3788 H   0  0  0  0  0  0
   63.5931   46.7120   36.1232 H   0  0  0  0  0  0
   58.7738   46.4096   27.6052 H   0  0  0  0  0  0
   59.5929   45.6779   31.7686 H   0  0  0  0  0  0
   57.3377   45.0064   32.1077 H   0  0  0  0  0  0
   56.4759   45.7124   27.9485 H   0  0  0  0  0  0
   55.2775   43.8988   28.6565 H   0  0  0  0  0  0
   63.7125   43.9523   28.6896 H   0  0  0  0  0  0
   62.0137   44.3020   28.4743 H   0  0  0  0  0  0
   63.2080   45.4723   27.9287 H   0  0  0  0  0  0
   62.7075   48.8622   35.2718 H   0  0  0  0  0  0
   64.0083   48.6867   34.1389 H   0  0  0  0  0  0
   62.3921   49.0685   33.5557 H   0  0  0  0  0  0
   61.0504   46.8908   35.7229 H   0  0  0  0  0  0
   60.4299   47.2769   34.1396 H   0  0  0  0  0  0
   60.8939   45.6364   34.5023 H   0  0  0  0  0  0
   65.5651   43.3755   34.3542 H   0  0  0  0  0  0
   63.8343   43.5216   34.0751 H   0  0  0  0  0  0
   64.9000   43.0891   32.7595 H   0  0  0  0  0  0
   67.2080   45.2841   33.3794 H   0  0  0  0  0  0
   66.6004   44.8771   31.7924 H   0  0  0  0  0  0
   66.5076   46.5364   32.3619 H   0  0  0  0  0  0
   62.7275   47.6297   29.1242 H   0  0  0  0  0  0
  1  2  2  0  0  0
  1  5  1  0  0  0
  1  8  1  0  0  0
  2  6  1  0  0  0
  2  9  1  0  0  0
  3  5  2  0  0  0
  3  4  1  0  0  0
  3  7  1  0  0  0
  4 11  2  0  0  0
  4 12  1  0  0  0
  5 28  1  0  0  0
  6  7  2  0  0  0
  6 29  1  0  0  0
  7 22  1  0  0  0
  8 15  1  0  0  0
  8 23  1  0  0  0
  8 24  1  0  0  0
  9 25  1  0  0  0
  9 26  1  0  0  0
  9 14  1  0  0  0
 10 13  1  0  0  0
 10 16  2  0  0  0
 10 21  1  0  0  0
 11 27  1  0  0  0
 12 17  2  0  0  0
 12 18  1  0  0  0
 13 19  1  0  0  0
 13 20  2  0  0  0
 14 15  1  0  0  0
 14 30  1  0  0  0
 14 31  1  0  0  0
 15 32  1  0  0  0
 15 33  1  0  0  0
 17 20  1  0  0  0
 17 34  1  0  0  0
 18 19  2  0  0  0
 18 35  1  0  0  0
 19 36  1  0  0  0
 20 37  1  0  0  0
 21 38  1  0  0  0
 22 39  1  0  0  0
 22 40  1  0  0  0
 22 41  1  0  0  0
 23 42  1  0  0  0
 23 43  1  0  0  0
 23 44  1  0  0  0
 24 45  1  0  0  0
 24 46  1  0  0  0
 24 47  1  0  0  0
 25 48  1  0  0  0
 25 49  1  0  0  0
 25 50  1  0  0  0
 26 51  1  0  0  0
 26 52  1  0  0  0
 26 53  1  0  0  0
 27 54  1  0  0  0
M  END
> <s_m_entry_id>
30952

> <s_m_entry_name>
dock_pv.165

> <s_m_Source_Path>
/home/csk/Desktop/cluster/DUD-E-result/rxra

> <s_m_Source_File>
dock_pv.maegz

> <i_m_Source_File_Index>
165

> <chembl_id>
CHEMBL3350249

> <chembl_pref_name>
None

> <i_lp_mmshare_version>
53161

> <r_lp_tautomer_probability>
1

> <s_lp_Force_Field>
OPLS_2005

> <r_lp_Energy>
37.799115

> <b_lp_Chiralities_Consistent>
1

> <s_lp_Variant>
CHEMBL2061_lig388-1

> <s_i_glide_gridfile>
glide-grid_1mv9

> <i_i_glide_lignum>
448

> <i_i_glide_rotatable_bonds>
5

> <r_i_docking_score>
-10.6942423069026

> <r_i_glide_ligand_efficiency>
-0.396083048403801

> <r_i_glide_ligand_efficiency_sa>
-1.18824914390598

> <r_i_glide_ligand_efficiency_ln>
-2.48944330068326

> <r_i_glide_gscore>
-10.6942423069026

> <r_i_glide_lipo>
-5.81723417709601

> <r_i_glide_hbond>
-0.0568134443954229

> <r_i_glide_metal>
0

> <r_i_glide_rewards>
-2.43939454223369

> <r_i_glide_evdw>
-46.6729125976562

> <r_i_glide_ecoul>
-4.15498208999634

> <r_i_glide_erotb>
0.576092800204752

> <r_i_glide_esite>
0

> <r_i_glide_emodel>
-77.6728258487032

> <r_i_glide_energy>
-50.8278946876526

> <r_i_glide_einternal>
6.96828603744507

> <i_i_glide_confnum>
23

> <i_i_glide_posenum>
256

> <r_i_glide_eff_state_penalty>
0

> <s_user_duplicate_titles>
CHEMBL2061_lig388,CHEMBL2061_lig387,272455

> <i_f3d_flags>
0

> <s_m_subgroup_title>
dock_pv

> <s_m_subgroupid>
dock_pv

> <b_m_subgroup_collapsed>
1

$$$$
CHEMBL2061_lig131
                    3D
 Schrodinger Suite 2021-1.
 60 62  0  0  1  0            999 V2000
   63.0511   46.5448   33.0327 C   0  0  0  0  0  0
   64.1773   45.7684   32.6476 C   0  0  0  0  0  0
   62.1883   46.3899   30.7318 C   0  0  0  0  0  0
   60.9805   46.5304   29.8911 C   0  0  0  0  0  0
   62.1160   46.8725   32.0416 C   0  0  0  0  0  0
   64.2711   45.3470   31.3076 C   0  0  0  0  0  0
   63.2981   45.6324   30.3520 C   0  0  0  0  0  0
   59.9078   45.8453   30.3362 C   0  0  0  0  0  0
   65.2581   45.3307   33.6656 C   0  0  0  0  0  0
   62.8252   47.0503   34.4849 C   0  0  0  0  0  0
   54.4127   46.4567   29.0998 C   0  0  0  0  0  0
   55.8197   46.0244   29.3461 C   0  0  0  0  0  0
   63.7833   46.3488   35.4805 C   0  0  0  0  0  0
   65.2007   46.2297   34.9226 C   0  0  0  0  0  0
   53.5109   45.9495   29.7390 O   0  0  0  0  0  0
   58.5192   45.7256   29.8933 C   0  0  0  0  0  0
   56.2168   45.5727   30.6066 C   0  0  0  0  0  0
   56.7492   46.0770   28.3233 C   0  0  0  0  0  0
   54.2318   47.4122   28.1436 O   0  0  0  0  0  0
   58.1068   45.9983   28.5945 C   0  0  0  0  0  0
   57.5712   45.4066   30.8719 C   0  0  0  0  0  0
   61.0152   47.4481   28.6813 C   0  0  0  0  0  0
   63.4266   45.0159   28.9604 C   0  0  0  0  0  0
   63.1292   48.5589   34.5272 C   0  0  0  0  0  0
   64.9983   43.8599   34.0716 C   0  0  0  0  0  0
   66.6632   45.5303   33.0684 C   0  0  0  0  0  0
   61.3847   46.7314   34.9681 C   0  0  0  0  0  0
   62.6949   43.6696   28.8317 C   0  0  0  0  0  0
   61.2529   47.4597   32.3168 H   0  0  0  0  0  0
   65.0928   44.7189   31.0022 H   0  0  0  0  0  0
   60.1041   45.2772   31.2131 H   0  0  0  0  0  0
   63.4137   45.3539   35.7333 H   0  0  0  0  0  0
   63.8109   46.8837   36.4319 H   0  0  0  0  0  0
   65.8644   45.8628   35.7003 H   0  0  0  0  0  0
   65.5784   47.2234   34.6773 H   0  0  0  0  0  0
   55.5063   45.4457   31.4119 H   0  0  0  0  0  0
   56.4139   46.3247   27.3389 H   0  0  0  0  0  0
   55.0779   47.7604   27.8575 H   0  0  0  0  0  0
   58.8191   46.1761   27.8046 H   0  0  0  0  0  0
   57.8776   45.1574   31.8784 H   0  0  0  0  0  0
   61.1198   46.8701   27.7639 H   0  0  0  0  0  0
   60.1063   48.0459   28.6157 H   0  0  0  0  0  0
   61.8615   48.1327   28.7396 H   0  0  0  0  0  0
   63.0675   45.7142   28.2074 H   0  0  0  0  0  0
   64.4807   44.8771   28.7302 H   0  0  0  0  0  0
   63.0966   48.9257   35.5534 H   0  0  0  0  0  0
   64.1181   48.7934   34.1422 H   0  0  0  0  0  0
   62.4126   49.1268   33.9326 H   0  0  0  0  0  0
   65.6343   43.5705   34.9115 H   0  0  0  0  0  0
   63.9628   43.6805   34.3649 H   0  0  0  0  0  0
   65.2131   43.1771   33.2474 H   0  0  0  0  0  0
   67.4458   45.2971   33.7915 H   0  0  0  0  0  0
   66.8086   44.8759   32.2124 H   0  0  0  0  0  0
   66.8085   46.5575   32.7307 H   0  0  0  0  0  0
   61.2460   46.9907   36.0206 H   0  0  0  0  0  0
   60.6250   47.2779   34.4135 H   0  0  0  0  0  0
   61.1443   45.6770   34.8563 H   0  0  0  0  0  0
   62.7921   43.2564   27.8286 H   0  0  0  0  0  0
   63.0954   42.9309   29.5272 H   0  0  0  0  0  0
   61.6285   43.7724   29.0338 H   0  0  0  0  0  0
  1  2  2  0  0  0
  1  5  1  0  0  0
  1 10  1  0  0  0
  2  6  1  0  0  0
  2  9  1  0  0  0
  3  5  2  0  0  0
  3  4  1  0  0  0
  3  7  1  0  0  0
  4  8  2  0  0  0
  4 22  1  0  0  0
  5 29  1  0  0  0
  6  7  2  0  0  0
  6 30  1  0  0  0
  7 23  1  0  0  0
  8 16  1  0  0  0
  8 31  1  0  0  0
  9 25  1  0  0  0
  9 26  1  0  0  0
  9 14  1  0  0  0
 10 13  1  0  0  0
 10 24  1  0  0  0
 10 27  1  0  0  0
 11 12  1  0  0  0
 11 15  2  0  0  0
 11 19  1  0  0  0
 12 17  2  0  0  0
 12 18  1  0  0  0
 13 14  1  0  0  0
 13 32  1  0  0  0
 13 33  1  0  0  0
 14 34  1  0  0  0
 14 35  1  0  0  0
 16 20  1  0  0  0
 16 21  2  0  0  0
 17 21  1  0  0  0
 17 36  1  0  0  0
 18 20  2  0  0  0
 18 37  1  0  0  0
 19 38  1  0  0  0
 20 39  1  0  0  0
 21 40  1  0  0  0
 22 41  1  0  0  0
 22 42  1  0  0  0
 22 43  1  0  0  0
 23 28  1  0  0  0
 23 44  1  0  0  0
 23 45  1  0  0  0
 24 46  1  0  0  0
 24 47  1  0  0  0
 24 48  1  0  0  0
 25 49  1  0  0  0
 25 50  1  0  0  0
 25 51  1  0  0  0
 26 52  1  0  0  0
 26 53  1  0  0  0
 26 54  1  0  0  0
 27 55  1  0  0  0
 27 56  1  0  0  0
 27 57  1  0  0  0
 28 58  1  0  0  0
 28 59  1  0  0  0
 28 60  1  0  0  0
M  END
> <s_m_entry_id>
30953

> <s_m_entry_name>
dock_pv.166

> <s_m_Source_Path>
/home/csk/Desktop/cluster/DUD-E-result/rxra

> <s_m_Source_File>
dock_pv.maegz

> <i_m_Source_File_Index>
166

> <chembl_id>
CHEMBL284937

> <chembl_pref_name>
None

> <i_lp_mmshare_version>
53161

> <r_lp_tautomer_probability>
1

> <s_lp_Force_Field>
OPLS_2005

> <r_lp_Energy>
35.823808

> <b_lp_Chiralities_Consistent>
1

> <s_lp_Variant>
CHEMBL2061_lig131-1

> <s_i_glide_gridfile>
glide-grid_1mv9

> <i_i_glide_lignum>
170

> <i_i_glide_rotatable_bonds>
5

> <r_i_docking_score>
-10.6941660182191

> <r_i_glide_ligand_efficiency>
-0.381934500650681

> <r_i_glide_ligand_efficiency_sa>
-1.15977809136649

> <r_i_glide_ligand_efficiency_ln>
-2.46852751136316

> <r_i_glide_gscore>
-10.6941660182191

> <r_i_glide_lipo>
-6.88402171873297

> <r_i_glide_hbond>
-0.19695236492959

> <r_i_glide_metal>
0

> <r_i_glide_rewards>
-1.73433752350715

> <r_i_glide_evdw>
-37.6226081848145

> <r_i_glide_ecoul>
-2.63814568519592

> <r_i_glide_erotb>
0.40963332241923

> <r_i_glide_esite>
-0.011635471448474

> <r_i_glide_emodel>
-57.4735679038296

> <r_i_glide_energy>
-40.2607538700104

> <r_i_glide_einternal>
6.62035846710205

> <i_i_glide_confnum>
59

> <i_i_glide_posenum>
377

> <r_i_glide_eff_state_penalty>
0

> <s_user_duplicate_titles>
CHEMBL2061_lig131,48074

> <i_f3d_flags>
0

> <s_m_subgroup_title>
dock_pv

> <s_m_subgroupid>
dock_pv

> <b_m_subgroup_collapsed>
1

$$$$
CHEMBL2061_lig365
                    3D
 Schrodinger Suite 2021-1.
 52 54  0  0  1  0            999 V2000
   62.7606   46.4498   32.8205 C   0  0  0  0  0  0
   61.9009   46.3002   30.5097 C   0  0  0  0  0  0
   63.9019   45.6890   32.4413 C   0  0  0  0  0  0
   60.8551   46.6477   29.5027 C   0  0  0  0  0  0
   61.8172   46.7693   31.8245 C   0  0  0  0  0  0
   63.9956   45.2562   31.1088 C   0  0  0  0  0  0
   63.0196   45.5365   30.1620 C   0  0  0  0  0  0
   62.5138   46.9106   34.2831 C   0  0  0  0  0  0
   64.9963   45.2582   33.4506 C   0  0  0  0  0  0
   55.2356   45.2412   30.1040 C   0  0  0  0  0  0
   59.4499   46.1168   29.6329 C   0  0  0  0  0  0
   56.7134   45.4409   29.9112 C   0  0  0  0  0  0
   61.2363   47.4320   28.4697 C   0  0  0  0  0  0
   64.8896   46.0774   34.7606 C   0  0  0  0  0  0
   63.4548   46.1766   35.2752 C   0  0  0  0  0  0
   54.7633   44.4767   30.9401 O   0  0  0  0  0  0
   58.5806   46.1193   28.5327 C   0  0  0  0  0  0
   58.9249   45.6770   30.8555 C   0  0  0  0  0  0
   57.5892   45.3030   30.9891 C   0  0  0  0  0  0
   57.2310   45.8073   28.6679 C   0  0  0  0  0  0
   63.1763   45.0296   28.8975 O   0  0  0  0  0  0
   54.4728   46.0742   29.3425 O   0  0  0  0  0  0
   62.7966   48.4240   34.3952 C   0  0  0  0  0  0
   64.8040   43.7544   33.7703 C   0  0  0  0  0  0
   66.4022   45.5623   32.8842 C   0  0  0  0  0  0
   61.0672   46.5531   34.7067 C   0  0  0  0  0  0
   60.9729   47.3878   32.0859 H   0  0  0  0  0  0
   64.8314   44.6484   30.7989 H   0  0  0  0  0  0
   62.2529   47.7913   28.3924 H   0  0  0  0  0  0
   60.5628   47.7467   27.6876 H   0  0  0  0  0  0
   65.5268   45.6435   35.5332 H   0  0  0  0  0  0
   65.2796   47.0841   34.6094 H   0  0  0  0  0  0
   63.0930   45.1726   35.4898 H   0  0  0  0  0  0
   63.4568   46.6834   36.2403 H   0  0  0  0  0  0
   58.9273   46.4073   27.5527 H   0  0  0  0  0  0
   59.5261   45.6770   31.7488 H   0  0  0  0  0  0
   57.2272   45.0232   31.9661 H   0  0  0  0  0  0
   56.6010   45.8701   27.7914 H   0  0  0  0  0  0
   62.4254   45.2282   28.3350 H   0  0  0  0  0  0
   55.0471   46.6432   28.8270 H   0  0  0  0  0  0
   62.6315   48.7777   35.4143 H   0  0  0  0  0  0
   63.8221   48.6803   34.1370 H   0  0  0  0  0  0
   62.1431   49.0020   33.7401 H   0  0  0  0  0  0
   65.5119   43.4157   34.5271 H   0  0  0  0  0  0
   63.8004   43.5271   34.1307 H   0  0  0  0  0  0
   64.9645   43.1353   32.8868 H   0  0  0  0  0  0
   67.1813   45.3851   33.6280 H   0  0  0  0  0  0
   66.6463   44.9319   32.0295 H   0  0  0  0  0  0
   66.4893   46.6009   32.5598 H   0  0  0  0  0  0
   60.9053   46.6970   35.7761 H   0  0  0  0  0  0
   60.3344   47.1813   34.2073 H   0  0  0  0  0  0
   60.8071   45.5223   34.4693 H   0  0  0  0  0  0
  1  3  2  0  0  0
  1  5  1  0  0  0
  1  8  1  0  0  0
  2  5  2  0  0  0
  2  4  1  0  0  0
  2  7  1  0  0  0
  3  6  1  0  0  0
  3  9  1  0  0  0
  4 11  1  0  0  0
  4 13  2  0  0  0
  5 27  1  0  0  0
  6  7  2  0  0  0
  6 28  1  0  0  0
  7 21  1  0  0  0
  8 15  1  0  0  0
  8 23  1  0  0  0
  8 26  1  0  0  0
  9 24  1  0  0  0
  9 25  1  0  0  0
  9 14  1  0  0  0
 10 12  1  0  0  0
 10 16  2  0  0  0
 10 22  1  0  0  0
 11 17  2  0  0  0
 11 18  1  0  0  0
 12 19  1  0  0  0
 12 20  2  0  0  0
 13 29  1  0  0  0
 13 30  1  0  0  0
 14 15  1  0  0  0
 14 31  1  0  0  0
 14 32  1  0  0  0
 15 33  1  0  0  0
 15 34  1  0  0  0
 17 20  1  0  0  0
 17 35  1  0  0  0
 18 19  2  0  0  0
 18 36  1  0  0  0
 19 37  1  0  0  0
 20 38  1  0  0  0
 21 39  1  0  0  0
 22 40  1  0  0  0
 23 41  1  0  0  0
 23 42  1  0  0  0
 23 43  1  0  0  0
 24 44  1  0  0  0
 24 45  1  0  0  0
 24 46  1  0  0  0
 25 47  1  0  0  0
 25 48  1  0  0  0
 25 49  1  0  0  0
 26 50  1  0  0  0
 26 51  1  0  0  0
 26 52  1  0  0  0
M  END
> <s_m_entry_id>
30954

> <s_m_entry_name>
dock_pv.167

> <s_m_Source_Path>
/home/csk/Desktop/cluster/DUD-E-result/rxra

> <s_m_Source_File>
dock_pv.maegz

> <i_m_Source_File_Index>
167

> <chembl_id>
CHEMBL328419

> <chembl_pref_name>
None

> <i_lp_mmshare_version>
53161

> <r_lp_tautomer_probability>
1

> <s_lp_Force_Field>
OPLS_2005

> <r_lp_Energy>
29.375476

> <b_lp_Chiralities_Consistent>
1

> <s_lp_Variant>
CHEMBL2061_lig365-1

> <s_i_glide_gridfile>
glide-grid_1mv9

> <i_i_glide_lignum>
425

> <i_i_glide_rotatable_bonds>
5

> <r_i_docking_score>
-10.6917695055904

> <r_i_glide_ligand_efficiency>
-0.411221904061169

> <r_i_glide_ligand_efficiency_sa>
-1.21824327270116

> <r_i_glide_ligand_efficiency_ln>
-2.5109269858307

> <r_i_glide_gscore>
-10.6917695055904

> <r_i_glide_lipo>
-6.18582416007535

> <r_i_glide_hbond>
-0.13253722548969

> <r_i_glide_metal>
0

> <r_i_glide_rewards>
-2.14527801984093

> <r_i_glide_evdw>
-47.9055671691895

> <r_i_glide_ecoul>
-1.98967885971069

> <r_i_glide_erotb>
0.465600087231635

> <r_i_glide_esite>
0

> <r_i_glide_emodel>
-78.2551954079158

> <r_i_glide_energy>
-49.8952460289001

> <r_i_glide_einternal>
5.95710706710815

> <i_i_glide_confnum>
28

> <i_i_glide_posenum>
136

> <r_i_glide_eff_state_penalty>
0

> <s_user_duplicate_titles>
CHEMBL2061_lig365,163674

> <i_f3d_flags>
0

> <s_m_subgroup_title>
dock_pv

> <s_m_subgroupid>
dock_pv

> <b_m_subgroup_collapsed>
1

$$$$
CHEMBL2061_lig103
                    3D
 Schrodinger Suite 2021-1.
 59 60  0  0  1  0            999 V2000
   63.3005   45.8879   33.3029 C   0  0  0  0  0  0
   62.1969   46.6562   32.9303 C   0  0  0  0  0  0
   64.0641   45.3008   32.2993 C   0  0  0  0  0  0
   62.8977   46.5667   30.5880 C   0  0  0  0  0  0
   62.0464   47.0543   31.5913 C   0  0  0  0  0  0
   63.8718   45.6490   30.9682 C   0  0  0  0  0  0
   63.5343   45.6022   34.6291 O   0  0  0  0  0  0
   61.1342   46.8776   33.9248 C   0  0  0  0  0  0
   55.9666   45.3055   31.1551 C   0  0  0  0  0  0
   62.8082   46.9925   29.1604 C   0  0  0  0  0  0
   55.0959   45.0156   30.0491 C   0  0  0  0  0  0
   59.2868   45.8945   32.5300 C   0  0  0  0  0  0
   57.3190   45.2378   31.1678 C   0  0  0  0  0  0
   59.8638   46.4771   33.7251 C   0  0  0  0  0  0
   57.9685   45.6771   32.3956 C   0  0  0  0  0  0
   63.9379   46.9037   28.3244 C   0  0  0  0  0  0
   54.0081   44.4767   30.1932 O   0  0  0  0  0  0
   65.0459   44.2068   32.6168 C   0  0  0  0  0  0
   64.6333   46.2796   36.6526 C   0  0  0  0  0  0
   64.7829   46.0644   35.1561 C   0  0  0  0  0  0
   63.9487   47.4966   27.0696 C   0  0  0  0  0  0
   55.5561   45.4860   28.8561 O   0  0  0  0  0  0
   64.0079   47.4141   36.9281 F   0  0  0  0  0  0
   64.0080   45.2769   37.2471 F   0  0  0  0  0  0
   65.0820   47.5223   26.3329 F   0  0  0  0  0  0
   61.6382   47.5559   28.6306 C   0  0  0  0  0  0
   61.5047   47.6128   35.2041 C   0  0  0  0  0  0
   61.6239   48.0772   27.3390 C   0  0  0  0  0  0
   58.1514   44.7206   29.9936 C   0  0  0  0  0  0
   62.7925   48.0769   26.5802 C   0  0  0  0  0  0
   66.4649   44.7771   32.4483 C   0  0  0  0  0  0
   64.6699   42.9285   31.8425 C   0  0  0  0  0  0
   61.2303   47.7139   31.3388 H   0  0  0  0  0  0
   64.4958   45.1745   30.2273 H   0  0  0  0  0  0
   55.4279   45.6149   32.0395 H   0  0  0  0  0  0
   59.9319   45.6772   31.6953 H   0  0  0  0  0  0
   59.2080   46.6744   34.5390 H   0  0  0  0  0  0
   57.3457   45.8961   33.2527 H   0  0  0  0  0  0
   64.8733   46.4938   28.6702 H   0  0  0  0  0  0
   64.9249   43.8864   33.6491 H   0  0  0  0  0  0
   65.6022   46.3329   37.1363 H   0  0  0  0  0  0
   65.5676   45.3235   35.0247 H   0  0  0  0  0  0
   65.1257   46.9854   34.6782 H   0  0  0  0  0  0
   56.4206   45.8864   28.9574 H   0  0  0  0  0  0
   60.7338   47.6109   29.2169 H   0  0  0  0  0  0
   62.3403   48.2950   35.0425 H   0  0  0  0  0  0
   60.6672   48.1905   35.5965 H   0  0  0  0  0  0
   61.7861   46.8929   35.9704 H   0  0  0  0  0  0
   60.7175   48.5084   26.9397 H   0  0  0  0  0  0
   58.9391   44.0765   30.3728 H   0  0  0  0  0  0
   57.5965   44.0778   29.3128 H   0  0  0  0  0  0
   58.6477   45.5342   29.4633 H   0  0  0  0  0  0
   62.8075   48.4770   25.5815 H   0  0  0  0  0  0
   66.5672   45.7657   32.8981 H   0  0  0  0  0  0
   67.1974   44.1437   32.9387 H   0  0  0  0  0  0
   66.7415   44.8769   31.3974 H   0  0  0  0  0  0
   63.6116   42.6907   31.9641 H   0  0  0  0  0  0
   64.8648   42.9988   30.7716 H   0  0  0  0  0  0
   65.2078   42.0770   32.2365 H   0  0  0  0  0  0
  1  2  1  0  0  0
  1  3  2  0  0  0
  1  7  1  0  0  0
  2  5  2  0  0  0
  2  8  1  0  0  0
  3  6  1  0  0  0
  3 18  1  0  0  0
  4  6  2  0  0  0
  4 10  1  0  0  0
  4  5  1  0  0  0
  5 33  1  0  0  0
  6 34  1  0  0  0
  7 20  1  0  0  0
  8 14  2  0  0  0
  8 27  1  0  0  0
  9 13  2  0  0  0
  9 11  1  0  0  0
  9 35  1  0  0  0
 10 16  2  0  0  0
 10 26  1  0  0  0
 11 17  2  0  0  0
 11 22  1  0  0  0
 12 14  1  0  0  0
 12 15  2  0  0  0
 12 36  1  0  0  0
 13 15  1  0  0  0
 13 29  1  0  0  0
 14 37  1  0  0  0
 15 38  1  0  0  0
 16 21  1  0  0  0
 16 39  1  0  0  0
 18 31  1  0  0  0
 18 32  1  0  0  0
 18 40  1  0  0  0
 19 20  1  0  0  0
 19 23  1  0  0  0
 19 24  1  0  0  0
 19 41  1  0  0  0
 20 42  1  0  0  0
 20 43  1  0  0  0
 21 25  1  0  0  0
 21 30  2  0  0  0
 22 44  1  0  0  0
 26 28  2  0  0  0
 26 45  1  0  0  0
 27 46  1  0  0  0
 27 47  1  0  0  0
 27 48  1  0  0  0
 28 30  1  0  0  0
 28 49  1  0  0  0
 29 50  1  0  0  0
 29 51  1  0  0  0
 29 52  1  0  0  0
 30 53  1  0  0  0
 31 54  1  0  0  0
 31 55  1  0  0  0
 31 56  1  0  0  0
 32 57  1  0  0  0
 32 58  1  0  0  0
 32 59  1  0  0  0
M  END
> <s_m_entry_id>
30955

> <s_m_entry_name>
dock_pv.168

> <s_m_Source_Path>
/home/csk/Desktop/cluster/DUD-E-result/rxra

> <s_m_Source_File>
dock_pv.maegz

> <i_m_Source_File_Index>
168

> <chembl_id>
CHEMBL130232

> <chembl_pref_name>
None

> <i_lp_mmshare_version>
53161

> <r_lp_tautomer_probability>
1

> <s_lp_Force_Field>
OPLS_2005

> <r_lp_Energy>
33.326191

> <b_lp_Chiralities_Consistent>
1

> <s_lp_Variant>
CHEMBL2061_lig103-1

> <s_i_glide_gridfile>
glide-grid_1mv9

> <i_i_glide_lignum>
142

> <i_i_glide_rotatable_bonds>
10

> <r_i_docking_score>
-10.6882118785981

> <r_i_glide_ligand_efficiency>
-0.334006621206192

> <r_i_glide_ligand_efficiency_sa>
-1.06040492250908

> <r_i_glide_ligand_efficiency_ln>
-2.3933819892702

> <r_i_glide_gscore>
-10.6882118785981

> <r_i_glide_lipo>
-5.97421859026079

> <r_i_glide_hbond>
-0.32

> <r_i_glide_metal>
0

> <r_i_glide_rewards>
-2.76784218259654

> <r_i_glide_evdw>
-32.6188735961914

> <r_i_glide_ecoul>
-4.69224739074707

> <r_i_glide_erotb>
0.708629682680817

> <r_i_glide_esite>
0

> <r_i_glide_emodel>
-35.0135659633053

> <r_i_glide_energy>
-37.3111209869385

> <r_i_glide_einternal>
7.93341255187988

> <i_i_glide_confnum>
5

> <i_i_glide_posenum>
1

> <r_i_glide_eff_state_penalty>
0

> <s_user_duplicate_titles>
CHEMBL2061_lig103,217308

> <i_f3d_flags>
0

> <s_m_subgroup_title>
dock_pv

> <s_m_subgroupid>
dock_pv

> <b_m_subgroup_collapsed>
1

$$$$
CHEMBL2061_lig438
                    3D
 Schrodinger Suite 2021-1.
 62 64  0  0  1  0            999 V2000
   64.1140   46.8434   35.3777 C   0  0  0  0  0  0
   65.1744   45.7799   35.0596 C   0  0  0  0  0  0
   65.6690   45.7514   33.5864 C   0  0  0  0  0  0
   63.3723   47.2276   34.2946 N   0  0  0  0  0  0
   64.0078   47.2718   36.5292 O   0  0  0  0  0  0
   66.4935   44.4768   33.4413 C   0  0  0  0  0  0
   66.5561   46.9499   33.2212 C   0  0  0  0  0  0
   63.3399   46.5363   33.0389 C   0  0  0  0  0  0
   64.4604   45.7804   32.6496 C   0  0  0  0  0  0
   64.4608   45.1504   31.4005 C   0  0  0  0  0  0
   63.4056   45.2855   30.5070 C   0  0  0  0  0  0
   62.2984   46.0801   30.8580 C   0  0  0  0  0  0
   62.2692   46.6503   32.1344 C   0  0  0  0  0  0
   61.1546   46.3198   29.9320 C   0  0  0  0  0  0
   59.8593   45.9811   30.3383 C   0  0  0  0  0  0
   58.7750   46.0362   29.4630 C   0  0  0  0  0  0
   59.0055   46.4758   28.1593 C   0  0  0  0  0  0
   60.2642   46.9031   27.7590 C   0  0  0  0  0  0
   61.3453   46.8589   28.6484 C   0  0  0  0  0  0
   62.6010   47.3333   28.3251 O   0  0  0  0  0  0
   62.9595   47.4630   26.9538 C   0  0  0  0  0  0
   62.3794   48.2974   34.5761 C   0  0  0  0  0  0
   61.0332   47.7603   35.1055 C   0  0  0  0  0  0
   63.5237   44.5213   29.1909 C   0  0  0  0  0  0
   62.3379   49.4330   33.5265 C   0  0  0  0  0  0
   64.3670   48.0426   26.8483 C   0  0  0  0  0  0
   64.4492   49.2751   27.3386 F   0  0  0  0  0  0
   65.2078   47.2765   27.5069 F   0  0  0  0  0  0
   64.8058   48.0763   25.6019 F   0  0  0  0  0  0
   57.4295   45.6480   29.9405 C   0  0  0  0  0  0
   56.2714   46.0586   29.3822 C   0  0  0  0  0  0
   54.9728   45.6768   29.8730 C   0  0  0  0  0  0
   54.0093   46.4790   29.3402 O   0  0  0  0  0  0
   54.7391   44.7802   30.6812 O   0  0  0  0  0  0
   66.0073   45.9614   35.7348 H   0  0  0  0  0  0
   64.7328   44.8240   35.3462 H   0  0  0  0  0  0
   67.2922   44.4776   34.1839 H   0  0  0  0  0  0
   65.9039   43.5659   33.5561 H   0  0  0  0  0  0
   66.9771   44.4771   32.4696 H   0  0  0  0  0  0
   67.5098   46.9034   33.7390 H   0  0  0  0  0  0
   66.7997   46.8770   32.1612 H   0  0  0  0  0  0
   66.0848   47.9146   33.4117 H   0  0  0  0  0  0
   65.3106   44.5637   31.0880 H   0  0  0  0  0  0
   61.3941   47.2225   32.3944 H   0  0  0  0  0  0
   59.6974   45.6751   31.3599 H   0  0  0  0  0  0
   58.2082   46.4768   27.4417 H   0  0  0  0  0  0
   60.3772   47.2674   26.7517 H   0  0  0  0  0  0
   62.9430   46.4625   26.5241 H   0  0  0  0  0  0
   62.2758   48.0976   26.3956 H   0  0  0  0  0  0
   62.7284   48.8582   35.4493 H   0  0  0  0  0  0
   60.3583   48.5813   35.3380 H   0  0  0  0  0  0
   60.5254   47.0979   34.4066 H   0  0  0  0  0  0
   61.1743   47.2251   36.0458 H   0  0  0  0  0  0
   64.3667   44.9052   28.6094 H   0  0  0  0  0  0
   63.7336   43.4693   29.3959 H   0  0  0  0  0  0
   62.6223   44.5432   28.5801 H   0  0  0  0  0  0
   61.4652   50.0764   33.6186 H   0  0  0  0  0  0
   63.1784   50.0978   33.7386 H   0  0  0  0  0  0
   62.4071   49.1345   32.4851 H   0  0  0  0  0  0
   57.4047   44.9817   30.7940 H   0  0  0  0  0  0
   56.2813   46.7217   28.5331 H   0  0  0  0  0  0
   54.4026   47.1168   28.7405 H   0  0  0  0  0  0
  1  2  1  0  0  0
  1  4  1  0  0  0
  1  5  2  0  0  0
  2  3  1  0  0  0
  2 35  1  0  0  0
  2 36  1  0  0  0
  3  9  1  0  0  0
  3  6  1  0  0  0
  3  7  1  0  0  0
  4 22  1  0  0  0
  4  8  1  0  0  0
  6 37  1  0  0  0
  6 38  1  0  0  0
  6 39  1  0  0  0
  7 40  1  0  0  0
  7 41  1  0  0  0
  7 42  1  0  0  0
  8 13  1  0  0  0
  8  9  2  0  0  0
  9 10  1  0  0  0
 10 11  2  0  0  0
 10 43  1  0  0  0
 11 12  1  0  0  0
 11 24  1  0  0  0
 12 13  2  0  0  0
 12 14  1  0  0  0
 13 44  1  0  0  0
 14 15  2  0  0  0
 14 19  1  0  0  0
 15 16  1  0  0  0
 15 45  1  0  0  0
 16 17  2  0  0  0
 16 30  1  0  0  0
 17 18  1  0  0  0
 17 46  1  0  0  0
 18 19  2  0  0  0
 18 47  1  0  0  0
 19 20  1  0  0  0
 20 21  1  0  0  0
 21 26  1  0  0  0
 21 48  1  0  0  0
 21 49  1  0  0  0
 22 23  1  0  0  0
 22 25  1  0  0  0
 22 50  1  0  0  0
 23 51  1  0  0  0
 23 52  1  0  0  0
 23 53  1  0  0  0
 24 54  1  0  0  0
 24 55  1  0  0  0
 24 56  1  0  0  0
 25 57  1  0  0  0
 25 58  1  0  0  0
 25 59  1  0  0  0
 26 27  1  0  0  0
 26 28  1  0  0  0
 26 29  1  0  0  0
 30 31  2  0  0  0
 30 60  1  0  0  0
 31 32  1  0  0  0
 31 61  1  0  0  0
 32 33  1  0  0  0
 32 34  2  0  0  0
 33 62  1  0  0  0
M  END
> <s_m_entry_id>
30956

> <s_m_entry_name>
dock_pv.169

> <s_m_Source_Path>
/home/csk/Desktop/cluster/DUD-E-result/rxra

> <s_m_Source_File>
dock_pv.maegz

> <i_m_Source_File_Index>
169

> <chembl_id>
CHEMBL247819

> <chembl_pref_name>
None

> <i_lp_mmshare_version>
53161

> <r_lp_tautomer_probability>
1

> <s_lp_Force_Field>
OPLS_2005

> <r_lp_Energy>
43.559148

> <b_lp_Chiralities_Consistent>
1

> <s_lp_Variant>
CHEMBL2061_lig438-1

> <s_i_glide_gridfile>
glide-grid_1mv9

> <i_i_glide_lignum>
509

> <i_i_glide_rotatable_bonds>
8

> <r_i_docking_score>
-10.6658362905917

> <r_i_glide_ligand_efficiency>
-0.313701067370343

> <r_i_glide_ligand_efficiency_sa>
-1.01626967873173

> <r_i_glide_ligand_efficiency_ln>
-2.3563824031662

> <r_i_glide_gscore>
-10.6658362905917

> <r_i_glide_lipo>
-6.05400563173762

> <r_i_glide_hbond>
0

> <r_i_glide_metal>
0

> <r_i_glide_rewards>
-2.33758427915635

> <r_i_glide_evdw>
-44.360954284668

> <r_i_glide_ecoul>
-3.35900211334229

> <r_i_glide_erotb>
0.447651651537043

> <r_i_glide_esite>
0

> <r_i_glide_emodel>
-65.0912677487766

> <r_i_glide_energy>
-47.7199563980103

> <r_i_glide_einternal>
3.11508178710938

> <i_i_glide_confnum>
48

> <i_i_glide_posenum>
131

> <r_i_glide_eff_state_penalty>
0

> <s_user_duplicate_titles>
CHEMBL2061_lig438,414858

> <i_f3d_flags>
0

> <s_m_subgroup_title>
dock_pv

> <s_m_subgroupid>
dock_pv

> <b_m_subgroup_collapsed>
1

$$$$
CHEMBL2061_lig366
                    3D
 Schrodinger Suite 2021-1.
 50 52  0  0  1  0            999 V2000
   61.8891   46.2610   30.3866 C   0  0  0  0  0  0
   62.6994   46.4772   32.7125 C   0  0  0  0  0  0
   63.9110   45.8256   32.3570 C   0  0  0  0  0  0
   60.7890   46.4433   29.3625 C   0  0  0  0  0  0
   61.7488   46.7189   31.7019 C   0  0  0  0  0  0
   63.1171   45.6775   30.0426 C   0  0  0  0  0  0
   64.0889   45.4636   31.0127 C   0  0  0  0  0  0
   62.3950   46.9391   34.1610 C   0  0  0  0  0  0
   64.9963   45.4518   33.4012 C   0  0  0  0  0  0
   55.2207   44.9323   30.3122 C   0  0  0  0  0  0
   59.3421   46.0770   29.6432 C   0  0  0  0  0  0
   56.6587   45.2769   30.0529 C   0  0  0  0  0  0
   61.1137   46.7168   28.2026 O   0  0  0  0  0  0
   64.8129   46.2711   34.7020 C   0  0  0  0  0  0
   63.3644   46.2940   35.1850 C   0  0  0  0  0  0
   54.6445   45.2770   31.3389 O   0  0  0  0  0  0
   58.8838   45.6770   30.9056 C   0  0  0  0  0  0
   58.4128   46.0770   28.5892 C   0  0  0  0  0  0
   57.0881   45.6852   28.7889 C   0  0  0  0  0  0
   57.5695   45.2773   31.1087 C   0  0  0  0  0  0
   63.3967   45.2628   28.7663 O   0  0  0  0  0  0
   54.6151   44.2021   29.3390 O   0  0  0  0  0  0
   62.5706   48.4702   34.2420 C   0  0  0  0  0  0
   64.8615   43.9440   33.7293 C   0  0  0  0  0  0
   66.4074   45.8112   32.8819 C   0  0  0  0  0  0
   60.9749   46.4770   34.5757 C   0  0  0  0  0  0
   60.8636   47.2767   31.9667 H   0  0  0  0  0  0
   64.9958   44.9653   30.7063 H   0  0  0  0  0  0
   65.4523   45.8738   35.4926 H   0  0  0  0  0  0
   65.1561   47.2957   34.5544 H   0  0  0  0  0  0
   63.0593   45.2758   35.4170 H   0  0  0  0  0  0
   63.3105   46.8206   36.1389 H   0  0  0  0  0  0
   59.5149   45.6770   31.7756 H   0  0  0  0  0  0
   58.7128   46.3758   27.5945 H   0  0  0  0  0  0
   56.4059   45.7226   27.9507 H   0  0  0  0  0  0
   57.2656   45.0164   32.1103 H   0  0  0  0  0  0
   62.6861   45.4950   28.1604 H   0  0  0  0  0  0
   55.2179   43.8882   28.6580 H   0  0  0  0  0  0
   62.2295   48.8388   35.2082 H   0  0  0  0  0  0
   63.6076   48.7854   34.1390 H   0  0  0  0  0  0
   62.0081   48.9942   33.4708 H   0  0  0  0  0  0
   65.5550   43.6452   34.5163 H   0  0  0  0  0  0
   63.8570   43.6731   34.0547 H   0  0  0  0  0  0
   65.0852   43.3278   32.8585 H   0  0  0  0  0  0
   67.1649   45.6789   33.6566 H   0  0  0  0  0  0
   66.7125   45.1795   32.0482 H   0  0  0  0  0  0
   66.4622   46.8478   32.5453 H   0  0  0  0  0  0
   60.8081   46.6208   35.6441 H   0  0  0  0  0  0
   60.1869   47.0258   34.0692 H   0  0  0  0  0  0
   60.8078   45.4227   34.3566 H   0  0  0  0  0  0
  1  4  1  0  0  0
  1  5  2  0  0  0
  1  6  1  0  0  0
  2  5  1  0  0  0
  2  8  1  0  0  0
  2  3  2  0  0  0
  3  7  1  0  0  0
  3  9  1  0  0  0
  4 11  1  0  0  0
  4 13  2  0  0  0
  5 27  1  0  0  0
  6  7  2  0  0  0
  6 21  1  0  0  0
  7 28  1  0  0  0
  8 15  1  0  0  0
  8 23  1  0  0  0
  8 26  1  0  0  0
  9 14  1  0  0  0
  9 24  1  0  0  0
  9 25  1  0  0  0
 10 12  1  0  0  0
 10 16  2  0  0  0
 10 22  1  0  0  0
 11 17  2  0  0  0
 11 18  1  0  0  0
 12 19  1  0  0  0
 12 20  2  0  0  0
 14 15  1  0  0  0
 14 29  1  0  0  0
 14 30  1  0  0  0
 15 31  1  0  0  0
 15 32  1  0  0  0
 17 20  1  0  0  0
 17 33  1  0  0  0
 18 19  2  0  0  0
 18 34  1  0  0  0
 19 35  1  0  0  0
 20 36  1  0  0  0
 21 37  1  0  0  0
 22 38  1  0  0  0
 23 39  1  0  0  0
 23 40  1  0  0  0
 23 41  1  0  0  0
 24 42  1  0  0  0
 24 43  1  0  0  0
 24 44  1  0  0  0
 25 45  1  0  0  0
 25 46  1  0  0  0
 25 47  1  0  0  0
 26 48  1  0  0  0
 26 49  1  0  0  0
 26 50  1  0  0  0
M  END
> <s_m_entry_id>
30957

> <s_m_entry_name>
dock_pv.170

> <s_m_Source_Path>
/home/csk/Desktop/cluster/DUD-E-result/rxra

> <s_m_Source_File>
dock_pv.maegz

> <i_m_Source_File_Index>
170

> <chembl_id>
CHEMBL100986

> <chembl_pref_name>
None

> <i_lp_mmshare_version>
53161

> <r_lp_tautomer_probability>
1

> <s_lp_Force_Field>
OPLS_2005

> <r_lp_Energy>
31.45231

> <b_lp_Chiralities_Consistent>
1

> <s_lp_Variant>
CHEMBL2061_lig366-1

> <s_i_glide_gridfile>
glide-grid_1mv9

> <i_i_glide_lignum>
426

> <i_i_glide_rotatable_bonds>
5

> <r_i_docking_score>
-10.6650655910166

> <r_i_glide_ligand_efficiency>
-0.410194830423717

> <r_i_glide_ligand_efficiency_sa>
-1.21520057109154

> <r_i_glide_ligand_efficiency_ln>
-2.50465565911574

> <r_i_glide_gscore>
-10.6650655910166

> <r_i_glide_lipo>
-5.54496026286819

> <r_i_glide_hbond>
-0.0767224736247181

> <r_i_glide_metal>
0

> <r_i_glide_rewards>
-2.52700468606322

> <r_i_glide_evdw>
-46.6993942260742

> <r_i_glide_ecoul>
-4.282555103302

> <r_i_glide_erotb>
0.460974808338491

> <r_i_glide_esite>
0

> <r_i_glide_emodel>
-78.2955192764615

> <r_i_glide_energy>
-50.9819493293762

> <r_i_glide_einternal>
7.39357376098633

> <i_i_glide_confnum>
42

> <i_i_glide_posenum>
232

> <r_i_glide_eff_state_penalty>
0

> <s_user_duplicate_titles>
CHEMBL2061_lig366,163612

> <i_f3d_flags>
0

> <s_m_subgroup_title>
dock_pv

> <s_m_subgroupid>
dock_pv

> <b_m_subgroup_collapsed>
1

$$$$
CHEMBL2061_lig371
                    3D
 Schrodinger Suite 2021-1.
 64 66  0  0  1  0            999 V2000
   63.8992   45.8018   32.5678 C   0  0  0  0  0  0
   63.0469   46.6176   33.3577 C   0  0  0  0  0  0
   63.7110   45.8099   31.1677 C   0  0  0  0  0  0
   64.9812   44.8898   33.2008 C   0  0  0  0  0  0
   62.7717   46.6392   30.5314 C   0  0  0  0  0  0
   63.0840   46.6784   34.9025 C   0  0  0  0  0  0
   62.1283   47.4305   32.6989 C   0  0  0  0  0  0
   56.5370   45.8140   29.1455 C   0  0  0  0  0  0
   62.5030   46.5832   29.0111 C   0  0  0  0  0  0
   55.1965   45.7267   29.6773 C   0  0  0  0  0  0
   57.7060   45.6122   29.8112 C   0  0  0  0  0  0
   60.1823   45.4844   29.4950 C   0  0  0  0  0  0
   61.9737   47.4449   31.3300 C   0  0  0  0  0  0
   58.9368   45.6972   29.0224 C   0  0  0  0  0  0
   65.1691   45.2021   34.7156 C   0  0  0  0  0  0
   63.8502   45.4538   35.4606 C   0  0  0  0  0  0
   54.2816   46.4771   29.3403 O   0  0  0  0  0  0
   55.0216   44.6815   30.5342 O   0  0  0  0  0  0
   61.4661   45.4704   28.6710 C   0  0  0  0  0  0
   64.5418   43.4132   33.0538 C   0  0  0  0  0  0
   66.3507   45.1712   32.5322 C   0  0  0  0  0  0
   63.8136   47.9781   35.3289 C   0  0  0  0  0  0
   61.6303   46.6035   35.4595 C   0  0  0  0  0  0
   63.8054   46.3685   28.2103 C   0  0  0  0  0  0
   62.0070   47.9279   28.4091 C   0  0  0  0  0  0
   57.7831   45.3409   31.3186 C   0  0  0  0  0  0
   63.6079   46.9764   26.8246 C   0  0  0  0  0  0
   62.6051   48.1088   27.0119 C   0  0  0  0  0  0
   64.3116   45.1500   30.5621 H   0  0  0  0  0  0
   61.5173   48.0771   33.2816 H   0  0  0  0  0  0
   56.5458   46.0728   28.0958 H   0  0  0  0  0  0
   60.3325   45.2730   30.5399 H   0  0  0  0  0  0
   61.2122   48.0783   30.9042 H   0  0  0  0  0  0
   58.8505   45.9163   27.9662 H   0  0  0  0  0  0
   65.8067   46.0761   34.8498 H   0  0  0  0  0  0
   65.7166   44.3931   35.2002 H   0  0  0  0  0  0
   64.0507   45.5869   36.5255 H   0  0  0  0  0  0
   63.2217   44.5662   35.4011 H   0  0  0  0  0  0
   55.8431   44.1924   30.6215 H   0  0  0  0  0  0
   61.9225   44.4934   28.8378 H   0  0  0  0  0  0
   61.2143   45.4971   27.6094 H   0  0  0  0  0  0
   65.2917   42.7324   33.4584 H   0  0  0  0  0  0
   63.6080   43.2030   33.5726 H   0  0  0  0  0  0
   64.4000   43.1382   32.0088 H   0  0  0  0  0  0
   67.1470   44.6189   33.0310 H   0  0  0  0  0  0
   66.3675   44.8779   31.4826 H   0  0  0  0  0  0
   66.6099   46.2297   32.5750 H   0  0  0  0  0  0
   63.9562   48.0213   36.4095 H   0  0  0  0  0  0
   64.7953   48.0752   34.8621 H   0  0  0  0  0  0
   63.2449   48.8664   35.0487 H   0  0  0  0  0  0
   61.5973   46.5524   36.5387 H   0  0  0  0  0  0
   61.0385   47.4848   35.2203 H   0  0  0  0  0  0
   61.0927   45.7355   35.0748 H   0  0  0  0  0  0
   64.6460   46.8636   28.7008 H   0  0  0  0  0  0
   64.0654   45.3119   28.1620 H   0  0  0  0  0  0
   60.9204   48.0252   28.4200 H   0  0  0  0  0  0
   62.3549   48.7508   29.0217 H   0  0  0  0  0  0
   58.5923   45.9268   31.7545 H   0  0  0  0  0  0
   56.9016   45.6643   31.8710 H   0  0  0  0  0  0
   58.0082   44.2933   31.5206 H   0  0  0  0  0  0
   64.5476   47.3296   26.3962 H   0  0  0  0  0  0
   63.2081   46.2224   26.1452 H   0  0  0  0  0  0
   63.0992   49.0784   26.9381 H   0  0  0  0  0  0
   61.8282   48.0764   26.2490 H   0  0  0  0  0  0
  1  2  2  0  0  0
  1  3  1  0  0  0
  1  4  1  0  0  0
  2  6  1  0  0  0
  2  7  1  0  0  0
  3  5  2  0  0  0
  3 29  1  0  0  0
  4 15  1  0  0  0
  4 20  1  0  0  0
  4 21  1  0  0  0
  5  9  1  0  0  0
  5 13  1  0  0  0
  6 22  1  0  0  0
  6 23  1  0  0  0
  6 16  1  0  0  0
  7 13  2  0  0  0
  7 30  1  0  0  0
  8 11  2  0  0  0
  8 10  1  0  0  0
  8 31  1  0  0  0
  9 19  1  0  0  0
  9 24  1  0  0  0
  9 25  1  0  0  0
 10 17  2  0  0  0
 10 18  1  0  0  0
 11 14  1  0  0  0
 11 26  1  0  0  0
 12 19  1  0  0  0
 12 14  2  0  0  0
 12 32  1  0  0  0
 13 33  1  0  0  0
 14 34  1  0  0  0
 15 16  1  0  0  0
 15 35  1  0  0  0
 15 36  1  0  0  0
 16 37  1  0  0  0
 16 38  1  0  0  0
 18 39  1  0  0  0
 19 40  1  0  0  0
 19 41  1  0  0  0
 20 42  1  0  0  0
 20 43  1  0  0  0
 20 44  1  0  0  0
 21 45  1  0  0  0
 21 46  1  0  0  0
 21 47  1  0  0  0
 22 48  1  0  0  0
 22 49  1  0  0  0
 22 50  1  0  0  0
 23 51  1  0  0  0
 23 52  1  0  0  0
 23 53  1  0  0  0
 24 27  1  0  0  0
 24 54  1  0  0  0
 24 55  1  0  0  0
 25 28  1  0  0  0
 25 56  1  0  0  0
 25 57  1  0  0  0
 26 58  1  0  0  0
 26 59  1  0  0  0
 26 60  1  0  0  0
 27 28  1  0  0  0
 27 61  1  0  0  0
 27 62  1  0  0  0
 28 63  1  0  0  0
 28 64  1  0  0  0
M  END
> <s_m_entry_id>
30958

> <s_m_entry_name>
dock_pv.171

> <s_m_Source_Path>
/home/csk/Desktop/cluster/DUD-E-result/rxra

> <s_m_Source_File>
dock_pv.maegz

> <i_m_Source_File_Index>
171

> <chembl_id>
CHEMBL90674

> <chembl_pref_name>
None

> <i_lp_mmshare_version>
53161

> <r_lp_tautomer_probability>
1

> <s_lp_Force_Field>
OPLS_2005

> <r_lp_Energy>
46.032684

> <b_lp_Chiralities_Consistent>
1

> <s_lp_Variant>
CHEMBL2061_lig371-1

> <s_i_glide_gridfile>
glide-grid_1mv9

> <i_i_glide_lignum>
431

> <i_i_glide_rotatable_bonds>
6

> <r_i_docking_score>
-10.6569593438517

> <r_i_glide_ligand_efficiency>
-0.380605690851845

> <r_i_glide_ligand_efficiency_sa>
-1.15574304219011

> <r_i_glide_ligand_efficiency_ln>
-2.45993911848374

> <r_i_glide_gscore>
-10.6569593438517

> <r_i_glide_lipo>
-6.87783666849532

> <r_i_glide_hbond>
0

> <r_i_glide_metal>
0

> <r_i_glide_rewards>
-1.93231160615347

> <r_i_glide_evdw>
-44.0634498596191

> <r_i_glide_ecoul>
-2.08973836898804

> <r_i_glide_erotb>
0.669822179126283

> <r_i_glide_esite>
0

> <r_i_glide_emodel>
-72.5250455340152

> <r_i_glide_energy>
-46.1531882286072

> <r_i_glide_einternal>
1.49397552013397

> <i_i_glide_confnum>
302

> <i_i_glide_posenum>
260

> <r_i_glide_eff_state_penalty>
0

> <s_user_duplicate_titles>
CHEMBL2061_lig371,143487

> <i_f3d_flags>
0

> <s_m_subgroup_title>
dock_pv

> <s_m_subgroupid>
dock_pv

> <b_m_subgroup_collapsed>
1

$$$$
CHEMBL2061_lig514
                    3D
 Schrodinger Suite 2021-1.
 62 66  0  0  1  0            999 V2000
   64.1550   45.1522   35.6500 C   0  0  0  0  0  0
   64.0317   46.6626   35.6506 C   0  0  0  0  0  0
   62.9452   47.1557   34.6814 C   0  0  0  0  0  0
   64.6109   44.5847   34.2760 C   0  0  0  0  0  0
   63.9014   45.2914   33.1170 C   0  0  0  0  0  0
   63.1031   46.4576   33.3123 C   0  0  0  0  0  0
   62.3793   46.9490   32.2229 C   0  0  0  0  0  0
   64.0080   44.7242   31.8287 C   0  0  0  0  0  0
   66.1290   44.8384   34.0977 C   0  0  0  0  0  0
   64.1703   43.0975   34.2342 C   0  0  0  0  0  0
   61.5368   46.8504   35.2451 C   0  0  0  0  0  0
   63.2086   48.6636   34.5514 C   0  0  0  0  0  0
   63.2570   45.2388   30.7917 C   0  0  0  0  0  0
   62.4289   46.3199   30.9906 C   0  0  0  0  0  0
   63.2542   44.7952   29.4860 O   0  0  0  0  0  0
   60.2383   46.1719   29.6684 C   0  0  0  0  0  0
   59.4143   46.3080   28.5390 C   0  0  0  0  0  0
   58.0412   46.0727   28.6086 C   0  0  0  0  0  0
   57.4200   45.6734   29.7902 C   0  0  0  0  0  0
   58.2257   45.5405   30.9242 C   0  0  0  0  0  0
   59.5947   45.7713   30.8456 C   0  0  0  0  0  0
   55.9211   45.4798   29.8183 C   0  0  0  0  0  0
   55.4367   44.8775   30.9388 O   0  0  0  0  0  0
   55.1942   45.8622   28.9037 O   0  0  0  0  0  0
   62.8012   45.9592   28.8115 C   0  0  2  0  0  0
   61.7416   46.6237   29.7010 C   0  0  2  0  0  0
   61.8404   48.0982   29.3755 C   0  0  0  0  0  0
   61.6986   48.4760   27.8809 C   0  0  0  0  0  0
   62.5143   47.5598   26.9454 C   0  0  0  0  0  0
   62.4736   46.0404   27.3359 C   0  0  0  0  0  0
   57.6986   45.2770   32.1391 F   0  0  0  0  0  0
   63.2079   44.7208   35.9650 H   0  0  0  0  0  0
   64.8474   44.8770   36.4372 H   0  0  0  0  0  0
   64.9954   47.0649   35.3394 H   0  0  0  0  0  0
   63.8631   47.0364   36.6617 H   0  0  0  0  0  0
   61.7374   47.8077   32.3455 H   0  0  0  0  0  0
   64.6340   43.8625   31.6564 H   0  0  0  0  0  0
   66.7100   44.4765   34.9390 H   0  0  0  0  0  0
   66.5140   44.3398   33.2091 H   0  0  0  0  0  0
   66.3622   45.8978   33.9851 H   0  0  0  0  0  0
   64.0125   42.6678   35.2253 H   0  0  0  0  0  0
   63.2131   42.9397   33.7389 H   0  0  0  0  0  0
   64.8958   42.4795   33.7044 H   0  0  0  0  0  0
   61.3981   47.2832   36.2357 H   0  0  0  0  0  0
   60.7572   47.2704   34.6083 H   0  0  0  0  0  0
   61.3360   45.7824   35.3185 H   0  0  0  0  0  0
   63.2084   49.1456   35.5305 H   0  0  0  0  0  0
   64.1942   48.8622   34.1390 H   0  0  0  0  0  0
   62.4735   49.1732   33.9288 H   0  0  0  0  0  0
   59.7945   46.6226   27.5849 H   0  0  0  0  0  0
   57.4335   46.2064   27.7382 H   0  0  0  0  0  0
   60.1390   45.6901   31.7719 H   0  0  0  0  0  0
   56.1677   44.7285   31.5457 H   0  0  0  0  0  0
   63.7287   46.5537   28.8320 H   0  0  0  0  0  0
   62.8074   48.4769   29.7117 H   0  0  0  0  0  0
   61.1098   48.6080   29.9900 H   0  0  0  0  0  0
   62.0273   49.5060   27.7380 H   0  0  0  0  0  0
   60.6525   48.5040   27.5858 H   0  0  0  0  0  0
   63.5551   47.8928   26.9532 H   0  0  0  0  0  0
   62.1670   47.7637   25.9477 H   0  0  0  0  0  0
   61.5216   45.5738   27.1036 H   0  0  0  0  0  0
   63.2074   45.5014   26.7485 H   0  0  0  0  0  0
  1  2  1  0  0  0
  1  4  1  0  0  0
  1 32  1  0  0  0
  1 33  1  0  0  0
  2  3  1  0  0  0
  2 34  1  0  0  0
  2 35  1  0  0  0
  3  6  1  0  0  0
  3 11  1  0  0  0
  3 12  1  0  0  0
  4  5  1  0  0  0
  4  9  1  0  0  0
  4 10  1  0  0  0
  5  6  2  0  0  0
  5  8  1  0  0  0
  6  7  1  0  0  0
  7 14  2  0  0  0
  7 36  1  0  0  0
  8 13  2  0  0  0
  8 37  1  0  0  0
  9 38  1  0  0  0
  9 39  1  0  0  0
  9 40  1  0  0  0
 10 41  1  0  0  0
 10 42  1  0  0  0
 10 43  1  0  0  0
 11 44  1  0  0  0
 11 45  1  0  0  0
 11 46  1  0  0  0
 12 47  1  0  0  0
 12 48  1  0  0  0
 12 49  1  0  0  0
 13 14  1  0  0  0
 13 15  1  0  0  0
 14 26  1  0  0  0
 15 25  1  0  0  0
 16 26  1  0  0  0
 16 17  2  0  0  0
 16 21  1  0  0  0
 17 18  1  0  0  0
 17 50  1  0  0  0
 18 19  2  0  0  0
 18 51  1  0  0  0
 19 20  1  0  0  0
 19 22  1  0  0  0
 20 21  2  0  0  0
 20 31  1  0  0  0
 21 52  1  0  0  0
 22 23  1  0  0  0
 22 24  2  0  0  0
 23 53  1  0  0  0
 25 26  1  0  0  0
 25 30  1  0  0  0
 25 54  1  0  0  0
 26 27  1  0  0  0
 27 28  1  0  0  0
 27 55  1  0  0  0
 27 56  1  0  0  0
 28 29  1  0  0  0
 28 57  1  0  0  0
 28 58  1  0  0  0
 29 30  1  0  0  0
 29 59  1  0  0  0
 29 60  1  0  0  0
 30 61  1  0  0  0
 30 62  1  0  0  0
M  END
> <s_m_entry_id>
30959

> <s_m_entry_name>
dock_pv.172

> <s_m_Source_Path>
/home/csk/Desktop/cluster/DUD-E-result/rxra

> <s_m_Source_File>
dock_pv.maegz

> <i_m_Source_File_Index>
172

> <chembl_id>
CHEMBL3781998

> <chembl_pref_name>
None

> <i_lp_mmshare_version>
53161

> <r_lp_tautomer_probability>
1

> <s_lp_Force_Field>
OPLS_2005

> <r_lp_Energy>
57.208946

> <b_lp_Chiralities_Consistent>
1

> <s_lp_Variant>
CHEMBL2061_lig514-3

> <s_i_glide_gridfile>
glide-grid_1mv9

> <i_i_glide_lignum>
609

> <i_i_glide_rotatable_bonds>
3

> <r_i_docking_score>
-10.652004675739

> <r_i_glide_ligand_efficiency>
-0.343613054056096

> <r_i_glide_ligand_efficiency_sa>
-1.07941939868537

> <r_i_glide_ligand_efficiency_ln>
-2.40235349911792

> <r_i_glide_gscore>
-10.652004675739

> <r_i_glide_lipo>
-6.77915590885193

> <r_i_glide_hbond>
0

> <r_i_glide_metal>
0

> <r_i_glide_rewards>
-2.20232815540952

> <r_i_glide_evdw>
-37.751781463623

> <r_i_glide_ecoul>
-0.0324383042752743

> <r_i_glide_erotb>
0.221934207344913

> <r_i_glide_esite>
0

> <r_i_glide_emodel>
-37.7018748769864

> <r_i_glide_energy>
-37.7842197678983

> <r_i_glide_einternal>
9.07458209991455

> <i_i_glide_confnum>
7

> <i_i_glide_posenum>
322

> <r_i_glide_eff_state_penalty>
0

> <s_user_duplicate_titles>
CHEMBL2061_lig514

> <i_f3d_flags>
0

> <s_m_subgroup_title>
dock_pv

> <s_m_subgroupid>
dock_pv

> <b_m_subgroup_collapsed>
1

$$$$
CHEMBL2061_lig433
                    3D
 Schrodinger Suite 2021-1.
 56 58  0  0  1  0            999 V2000
   64.1580   46.8464   35.3911 C   0  0  0  0  0  0
   65.2318   45.7993   35.1141 C   0  0  0  0  0  0
   65.7106   45.6736   33.6445 C   0  0  0  0  0  0
   63.4234   47.1873   34.2922 N   0  0  0  0  0  0
   64.0081   47.2829   36.5366 O   0  0  0  0  0  0
   66.4107   44.3153   33.5878 C   0  0  0  0  0  0
   66.6355   46.8498   33.2663 C   0  0  0  0  0  0
   63.4341   46.5362   33.0248 C   0  0  0  0  0  0
   64.5267   45.7246   32.6843 C   0  0  0  0  0  0
   64.5280   45.0556   31.4547 C   0  0  0  0  0  0
   63.4883   45.1980   30.5457 C   0  0  0  0  0  0
   62.4330   46.0744   30.8378 C   0  0  0  0  0  0
   62.4190   46.7263   32.0714 C   0  0  0  0  0  0
   61.3132   46.2890   29.8908 C   0  0  0  0  0  0
   60.0096   45.9839   30.2967 C   0  0  0  0  0  0
   58.9302   46.0584   29.4189 C   0  0  0  0  0  0
   59.1878   46.4776   28.1136 C   0  0  0  0  0  0
   60.4617   46.8542   27.7067 C   0  0  0  0  0  0
   61.5360   46.7833   28.5964 C   0  0  0  0  0  0
   62.8101   47.1896   28.2484 O   0  0  0  0  0  0
   62.9524   48.3494   27.4301 C   0  0  0  0  0  0
   64.1552   48.8638   27.6376 F   0  0  0  0  0  0
   62.8671   48.0765   26.1400 F   0  0  0  0  0  0
   62.0519   49.2764   27.7386 F   0  0  0  0  0  0
   63.5190   44.3448   29.2844 C   0  0  0  0  0  0
   57.5743   45.7178   29.9091 C   0  0  0  0  0  0
   56.4127   45.9907   29.2764 C   0  0  0  0  0  0
   55.1240   45.6743   29.8400 C   0  0  0  0  0  0
   54.1529   46.4783   29.3196 O   0  0  0  0  0  0
   54.9063   44.8272   30.7046 O   0  0  0  0  0  0
   62.3517   48.1477   34.5815 C   0  0  0  0  0  0
   61.0880   47.4965   35.1602 C   0  0  0  0  0  0
   60.4080   48.4767   35.7384 F   0  0  0  0  0  0
   60.3589   46.8761   34.2348 F   0  0  0  0  0  0
   61.3021   46.5727   36.0840 F   0  0  0  0  0  0
   66.0747   46.0737   35.7393 H   0  0  0  0  0  0
   64.8259   44.8617   35.4965 H   0  0  0  0  0  0
   67.1141   44.2254   34.4131 H   0  0  0  0  0  0
   65.7178   43.4739   33.6433 H   0  0  0  0  0  0
   66.9942   44.2345   32.6786 H   0  0  0  0  0  0
   67.6079   46.7535   33.7384 H   0  0  0  0  0  0
   66.8066   46.8769   32.1910 H   0  0  0  0  0  0
   66.2142   47.8160   33.5443 H   0  0  0  0  0  0
   65.3565   44.4198   31.1852 H   0  0  0  0  0  0
   61.5865   47.3837   32.2606 H   0  0  0  0  0  0
   59.8395   45.6771   31.3182 H   0  0  0  0  0  0
   58.4070   46.5226   27.3839 H   0  0  0  0  0  0
   60.6072   47.1958   26.6933 H   0  0  0  0  0  0
   64.0174   43.3917   29.4662 H   0  0  0  0  0  0
   62.5169   44.0931   28.9357 H   0  0  0  0  0  0
   64.0501   44.8718   28.4950 H   0  0  0  0  0  0
   57.5408   45.2133   30.8672 H   0  0  0  0  0  0
   56.4025   46.4776   28.3142 H   0  0  0  0  0  0
   54.5232   47.0892   28.6792 H   0  0  0  0  0  0
   62.7161   48.8753   35.3073 H   0  0  0  0  0  0
   62.1177   48.7569   33.7096 H   0  0  0  0  0  0
  1  2  1  0  0  0
  1  4  1  0  0  0
  1  5  2  0  0  0
  2  3  1  0  0  0
  2 36  1  0  0  0
  2 37  1  0  0  0
  3  9  1  0  0  0
  3  6  1  0  0  0
  3  7  1  0  0  0
  4 31  1  0  0  0
  4  8  1  0  0  0
  6 38  1  0  0  0
  6 39  1  0  0  0
  6 40  1  0  0  0
  7 41  1  0  0  0
  7 42  1  0  0  0
  7 43  1  0  0  0
  8  9  2  0  0  0
  8 13  1  0  0  0
  9 10  1  0  0  0
 10 11  2  0  0  0
 10 44  1  0  0  0
 11 12  1  0  0  0
 11 25  1  0  0  0
 12 13  2  0  0  0
 12 14  1  0  0  0
 13 45  1  0  0  0
 14 15  2  0  0  0
 14 19  1  0  0  0
 15 16  1  0  0  0
 15 46  1  0  0  0
 16 17  2  0  0  0
 16 26  1  0  0  0
 17 18  1  0  0  0
 17 47  1  0  0  0
 18 19  2  0  0  0
 18 48  1  0  0  0
 19 20  1  0  0  0
 20 21  1  0  0  0
 21 22  1  0  0  0
 21 23  1  0  0  0
 21 24  1  0  0  0
 25 49  1  0  0  0
 25 50  1  0  0  0
 25 51  1  0  0  0
 26 27  2  0  0  0
 26 52  1  0  0  0
 27 28  1  0  0  0
 27 53  1  0  0  0
 28 29  1  0  0  0
 28 30  2  0  0  0
 29 54  1  0  0  0
 31 32  1  0  0  0
 31 55  1  0  0  0
 31 56  1  0  0  0
 32 33  1  0  0  0
 32 34  1  0  0  0
 32 35  1  0  0  0
M  END
> <s_m_entry_id>
30960

> <s_m_entry_name>
dock_pv.173

> <s_m_Source_Path>
/home/csk/Desktop/cluster/DUD-E-result/rxra

> <s_m_Source_File>
dock_pv.maegz

> <i_m_Source_File_Index>
173

> <chembl_id>
CHEMBL247005

> <chembl_pref_name>
None

> <i_lp_mmshare_version>
53161

> <r_lp_tautomer_probability>
1

> <s_lp_Force_Field>
OPLS_2005

> <r_lp_Energy>
37.462109

> <b_lp_Chiralities_Consistent>
1

> <s_lp_Variant>
CHEMBL2061_lig433-1

> <s_i_glide_gridfile>
glide-grid_1mv9

> <i_i_glide_lignum>
504

> <i_i_glide_rotatable_bonds>
8

> <r_i_docking_score>
-10.6463390231342

> <r_i_glide_ligand_efficiency>
-0.304181114946692

> <r_i_glide_ligand_efficiency_sa>
-0.994996596118542

> <r_i_glide_ligand_efficiency_ln>
-2.337107698342

> <r_i_glide_gscore>
-10.6463390231342

> <r_i_glide_lipo>
-5.81590132974429

> <r_i_glide_hbond>
0

> <r_i_glide_metal>
0

> <r_i_glide_rewards>
-2.7

> <r_i_glide_evdw>
-41.5590438842773

> <r_i_glide_ecoul>
-3.05802440643311

> <r_i_glide_erotb>
0.406218161788894

> <r_i_glide_esite>
0

> <r_i_glide_emodel>
-60.5937949266409

> <r_i_glide_energy>
-44.6170682907104

> <r_i_glide_einternal>
3.3280246257782

> <i_i_glide_confnum>
16

> <i_i_glide_posenum>
222

> <r_i_glide_eff_state_penalty>
0

> <s_user_duplicate_titles>
CHEMBL2061_lig433,414789

> <i_f3d_flags>
0

> <s_m_subgroup_title>
dock_pv

> <s_m_subgroupid>
dock_pv

> <b_m_subgroup_collapsed>
1

$$$$
CHEMBL2061_lig572
                    3D
 Schrodinger Suite 2021-1.
 51 53  0  0  1  0            999 V2000
   63.3128   46.4770   32.7059 C   0  0  0  0  0  0
   64.4980   45.6957   32.6036 C   0  0  0  0  0  0
   60.9184   46.6129   28.9440 C   0  0  0  0  0  0
   62.7096   46.9477   34.0598 C   0  0  0  0  0  0
   65.2746   45.2042   33.8449 C   0  0  0  0  0  0
   58.7834   45.9913   29.4292 C   0  0  0  0  0  0
   58.8046   46.4122   28.1392 O   0  0  0  0  0  0
   60.0710   46.0807   29.9300 C   0  0  0  0  0  0
   60.0747   46.7916   27.8585 C   0  0  0  0  0  0
   57.5333   45.5745   30.0326 C   0  0  0  0  0  0
   55.1968   44.8917   30.0868 C   0  0  0  0  0  0
   64.9384   45.3125   31.3234 C   0  0  0  0  0  0
   56.3952   45.2621   29.3838 C   0  0  0  0  0  0
   62.6886   46.8775   31.5159 C   0  0  0  0  0  0
   63.4063   46.2551   35.2614 C   0  0  0  0  0  0
   63.1310   46.4776   30.2579 C   0  0  0  0  0  0
   64.9119   46.0826   35.0675 C   0  0  0  0  0  0
   54.8824   45.2784   31.2108 O   0  0  0  0  0  0
   62.4034   46.9351   28.9977 C   0  0  0  0  0  0
   64.2675   45.6856   30.1677 C   0  0  0  0  0  0
   54.4083   44.0771   29.3392 O   0  0  0  0  0  0
   62.9269   48.4769   34.1843 C   0  0  0  0  0  0
   61.2102   46.5566   34.1517 C   0  0  0  0  0  0
   64.8876   43.7279   34.0895 C   0  0  0  0  0  0
   66.8053   45.3692   33.6591 C   0  0  0  0  0  0
   60.3615   45.7974   30.9300 H   0  0  0  0  0  0
   60.2435   47.1682   26.8601 H   0  0  0  0  0  0
   57.5830   45.5144   31.1123 H   0  0  0  0  0  0
   65.8175   44.6971   31.2116 H   0  0  0  0  0  0
   56.3466   45.2864   28.3056 H   0  0  0  0  0  0
   61.8248   47.5237   31.5675 H   0  0  0  0  0  0
   62.9731   45.2770   35.4560 H   0  0  0  0  0  0
   63.2206   46.8233   36.1726 H   0  0  0  0  0  0
   65.3500   45.6734   35.9778 H   0  0  0  0  0  0
   65.3513   47.0715   34.9388 H   0  0  0  0  0  0
   62.9063   46.5374   28.1157 H   0  0  0  0  0  0
   62.5205   48.0187   28.9404 H   0  0  0  0  0  0
   64.6451   45.3671   29.2054 H   0  0  0  0  0  0
   54.8227   43.7800   28.5201 H   0  0  0  0  0  0
   62.5463   48.8755   35.1255 H   0  0  0  0  0  0
   63.9836   48.7422   34.1392 H   0  0  0  0  0  0
   62.4149   49.0223   33.3895 H   0  0  0  0  0  0
   60.7672   46.9286   35.0759 H   0  0  0  0  0  0
   60.6161   46.9559   33.3334 H   0  0  0  0  0  0
   61.0639   45.4787   34.1389 H   0  0  0  0  0  0
   65.4290   43.3265   34.9390 H   0  0  0  0  0  0
   63.8222   43.5922   34.2687 H   0  0  0  0  0  0
   65.1495   43.1007   33.2356 H   0  0  0  0  0  0
   67.3471   45.1839   34.5873 H   0  0  0  0  0  0
   67.2006   44.6566   32.9387 H   0  0  0  0  0  0
   67.0724   46.3717   33.3233 H   0  0  0  0  0  0
  1  2  2  0  0  0
  1  4  1  0  0  0
  1 14  1  0  0  0
  2  5  1  0  0  0
  2 12  1  0  0  0
  3 19  1  0  0  0
  3  8  1  0  0  0
  3  9  2  0  0  0
  4 15  1  0  0  0
  4 22  1  0  0  0
  4 23  1  0  0  0
  5 24  1  0  0  0
  5 25  1  0  0  0
  5 17  1  0  0  0
  6  8  2  0  0  0
  6 10  1  0  0  0
  6  7  1  0  0  0
  7  9  1  0  0  0
  8 26  1  0  0  0
  9 27  1  0  0  0
 10 13  2  0  0  0
 10 28  1  0  0  0
 11 13  1  0  0  0
 11 18  2  0  0  0
 11 21  1  0  0  0
 12 20  2  0  0  0
 12 29  1  0  0  0
 13 30  1  0  0  0
 14 16  2  0  0  0
 14 31  1  0  0  0
 15 17  1  0  0  0
 15 32  1  0  0  0
 15 33  1  0  0  0
 16 19  1  0  0  0
 16 20  1  0  0  0
 17 34  1  0  0  0
 17 35  1  0  0  0
 19 36  1  0  0  0
 19 37  1  0  0  0
 20 38  1  0  0  0
 21 39  1  0  0  0
 22 40  1  0  0  0
 22 41  1  0  0  0
 22 42  1  0  0  0
 23 43  1  0  0  0
 23 44  1  0  0  0
 23 45  1  0  0  0
 24 46  1  0  0  0
 24 47  1  0  0  0
 24 48  1  0  0  0
 25 49  1  0  0  0
 25 50  1  0  0  0
 25 51  1  0  0  0
M  END
> <s_m_entry_id>
30961

> <s_m_entry_name>
dock_pv.174

> <s_m_Source_Path>
/home/csk/Desktop/cluster/DUD-E-result/rxra

> <s_m_Source_File>
dock_pv.maegz

> <i_m_Source_File_Index>
174

> <chembl_id>
CHEMBL63048

> <chembl_pref_name>
None

> <i_lp_mmshare_version>
53161

> <r_lp_tautomer_probability>
1

> <s_lp_Force_Field>
OPLS_2005

> <r_lp_Energy>
16.029286

> <b_lp_Chiralities_Consistent>
1

> <s_lp_Variant>
CHEMBL2061_lig572-1

> <s_i_glide_gridfile>
glide-grid_1mv9

> <i_i_glide_lignum>
703

> <i_i_glide_rotatable_bonds>
5

> <r_i_docking_score>
-10.6279119377227

> <r_i_glide_ligand_efficiency>
-0.42511647750891

> <r_i_glide_ligand_efficiency_sa>
-1.24304811970888

> <r_i_glide_ligand_efficiency_ln>
-2.51913362206027

> <r_i_glide_gscore>
-10.6279119377227

> <r_i_glide_lipo>
-5.92639924636082

> <r_i_glide_hbond>
-0.00338139292027119

> <r_i_glide_metal>
0

> <r_i_glide_rewards>
-2.35871367035964

> <r_i_glide_evdw>
-43.1081581115723

> <r_i_glide_ecoul>
-5.62967252731323

> <r_i_glide_erotb>
0.660441156593598

> <r_i_glide_esite>
0

> <r_i_glide_emodel>
-78.3898214690047

> <r_i_glide_energy>
-48.7378306388855

> <r_i_glide_einternal>
1.97016489505768

> <i_i_glide_confnum>
62

> <i_i_glide_posenum>
226

> <r_i_glide_eff_state_penalty>
0

> <s_user_duplicate_titles>
CHEMBL2061_lig572,96396

> <i_f3d_flags>
0

> <s_m_subgroup_title>
dock_pv

> <s_m_subgroupid>
dock_pv

> <b_m_subgroup_collapsed>
1

$$$$
CHEMBL2061_lig129
                    3D
 Schrodinger Suite 2021-1.
 63 65  0  0  1  0            999 V2000
   62.0651   46.5168   31.1066 C   0  0  0  0  0  0
   64.1875   45.8791   32.8466 C   0  0  0  0  0  0
   63.1171   46.6914   33.3106 C   0  0  0  0  0  0
   63.0880   45.6698   30.6685 C   0  0  0  0  0  0
   60.8350   46.6919   30.3228 C   0  0  0  0  0  0
   62.1139   47.0357   32.3973 C   0  0  0  0  0  0
   64.1507   45.4154   31.5285 C   0  0  0  0  0  0
   59.7651   46.0435   30.8159 C   0  0  0  0  0  0
   65.3560   45.4414   33.7504 C   0  0  0  0  0  0
   63.0463   47.2575   34.7515 C   0  0  0  0  0  0
   54.4079   46.3116   29.3360 C   0  0  0  0  0  0
   55.7976   45.8681   29.5724 C   0  0  0  0  0  0
   64.0989   46.5832   35.6638 C   0  0  0  0  0  0
   65.4375   46.4033   34.9425 C   0  0  0  0  0  0
   53.4568   45.6755   29.7390 O   0  0  0  0  0  0
   58.4431   45.7607   30.2605 C   0  0  0  0  0  0
   63.0176   44.9541   29.3130 C   0  0  0  0  0  0
   56.7577   46.0770   28.5896 C   0  0  0  0  0  0
   56.1452   45.3242   30.8084 C   0  0  0  0  0  0
   54.2905   47.4934   28.6678 O   0  0  0  0  0  0
   57.4847   45.2770   31.1525 C   0  0  0  0  0  0
   58.0953   46.0367   28.9383 C   0  0  0  0  0  0
   60.8719   47.5523   29.0693 C   0  0  0  0  0  0
   63.3832   48.7540   34.6616 C   0  0  0  0  0  0
   65.1102   43.9899   34.2261 C   0  0  0  0  0  0
   66.7073   45.5920   33.0171 C   0  0  0  0  0  0
   61.6548   47.0016   35.3875 C   0  0  0  0  0  0
   63.6076   43.5246   29.3280 C   0  0  0  0  0  0
   63.6078   45.8382   28.2052 C   0  0  0  0  0  0
   61.3062   47.6751   32.7169 H   0  0  0  0  0  0
   64.9456   44.7744   31.1912 H   0  0  0  0  0  0
   59.9007   45.6769   31.8172 H   0  0  0  0  0  0
   63.7461   45.6121   36.0111 H   0  0  0  0  0  0
   64.2455   47.1652   36.5756 H   0  0  0  0  0  0
   66.1919   46.0770   35.6519 H   0  0  0  0  0  0
   65.7781   47.3665   34.5576 H   0  0  0  0  0  0
   61.9657   44.7988   29.0717 H   0  0  0  0  0  0
   56.4716   46.3840   27.5942 H   0  0  0  0  0  0
   55.4022   45.0867   31.5573 H   0  0  0  0  0  0
   55.1530   47.8954   28.5409 H   0  0  0  0  0  0
   57.7554   45.0003   32.1608 H   0  0  0  0  0  0
   58.8277   46.2975   28.1928 H   0  0  0  0  0  0
   61.0594   46.9467   28.1838 H   0  0  0  0  0  0
   59.9296   48.0795   28.9288 H   0  0  0  0  0  0
   61.6557   48.3068   29.1434 H   0  0  0  0  0  0
   63.4664   49.2234   35.6431 H   0  0  0  0  0  0
   64.3236   48.9026   34.1390 H   0  0  0  0  0  0
   62.6195   49.2769   34.0906 H   0  0  0  0  0  0
   65.8722   43.6772   34.9390 H   0  0  0  0  0  0
   64.1358   43.8570   34.6968 H   0  0  0  0  0  0
   65.1528   43.2906   33.3902 H   0  0  0  0  0  0
   67.5463   45.4293   33.6977 H   0  0  0  0  0  0
   66.8080   44.8749   32.2058 H   0  0  0  0  0  0
   66.8088   46.5883   32.5839 H   0  0  0  0  0  0
   61.6104   47.3859   36.4069 H   0  0  0  0  0  0
   60.8489   47.4989   34.8500 H   0  0  0  0  0  0
   61.4139   45.9389   35.4230 H   0  0  0  0  0  0
   63.2080   42.9135   30.1331 H   0  0  0  0  0  0
   63.4228   42.9983   28.3917 H   0  0  0  0  0  0
   64.6758   43.5354   29.5067 H   0  0  0  0  0  0
   63.3650   46.8908   28.3368 H   0  0  0  0  0  0
   64.6954   45.7911   28.2023 H   0  0  0  0  0  0
   63.2080   45.5424   27.2333 H   0  0  0  0  0  0
  1  4  1  0  0  0
  1  5  1  0  0  0
  1  6  2  0  0  0
  2  3  2  0  0  0
  2  9  1  0  0  0
  2  7  1  0  0  0
  3  6  1  0  0  0
  3 10  1  0  0  0
  4  7  2  0  0  0
  4 17  1  0  0  0
  5  8  2  0  0  0
  5 23  1  0  0  0
  6 30  1  0  0  0
  7 31  1  0  0  0
  8 16  1  0  0  0
  8 32  1  0  0  0
  9 25  1  0  0  0
  9 26  1  0  0  0
  9 14  1  0  0  0
 10 13  1  0  0  0
 10 24  1  0  0  0
 10 27  1  0  0  0
 11 12  1  0  0  0
 11 15  2  0  0  0
 11 20  1  0  0  0
 12 18  1  0  0  0
 12 19  2  0  0  0
 13 14  1  0  0  0
 13 33  1  0  0  0
 13 34  1  0  0  0
 14 35  1  0  0  0
 14 36  1  0  0  0
 16 21  2  0  0  0
 16 22  1  0  0  0
 17 28  1  0  0  0
 17 29  1  0  0  0
 17 37  1  0  0  0
 18 22  2  0  0  0
 18 38  1  0  0  0
 19 21  1  0  0  0
 19 39  1  0  0  0
 20 40  1  0  0  0
 21 41  1  0  0  0
 22 42  1  0  0  0
 23 43  1  0  0  0
 23 44  1  0  0  0
 23 45  1  0  0  0
 24 46  1  0  0  0
 24 47  1  0  0  0
 24 48  1  0  0  0
 25 49  1  0  0  0
 25 50  1  0  0  0
 25 51  1  0  0  0
 26 52  1  0  0  0
 26 53  1  0  0  0
 26 54  1  0  0  0
 27 55  1  0  0  0
 27 56  1  0  0  0
 27 57  1  0  0  0
 28 58  1  0  0  0
 28 59  1  0  0  0
 28 60  1  0  0  0
 29 61  1  0  0  0
 29 62  1  0  0  0
 29 63  1  0  0  0
M  END
> <s_m_entry_id>
30962

> <s_m_entry_name>
dock_pv.175

> <s_m_Source_Path>
/home/csk/Desktop/cluster/DUD-E-result/rxra

> <s_m_Source_File>
dock_pv.maegz

> <i_m_Source_File_Index>
175

> <chembl_id>
CHEMBL424636

> <chembl_pref_name>
None

> <i_lp_mmshare_version>
53161

> <r_lp_tautomer_probability>
1

> <s_lp_Force_Field>
OPLS_2005

> <r_lp_Energy>
34.694901

> <b_lp_Chiralities_Consistent>
1

> <s_lp_Variant>
CHEMBL2061_lig129-1

> <s_i_glide_gridfile>
glide-grid_1mv9

> <i_i_glide_lignum>
168

> <i_i_glide_rotatable_bonds>
5

> <r_i_docking_score>
-10.6242854848577

> <r_i_glide_ligand_efficiency>
-0.366354671891644

> <r_i_glide_ligand_efficiency_sa>
-1.12555762135795

> <r_i_glide_ligand_efficiency_ln>
-2.43269196739772

> <r_i_glide_gscore>
-10.6242854848577

> <r_i_glide_lipo>
-6.83281724636368

> <r_i_glide_hbond>
-0.144536724408585

> <r_i_glide_metal>
0

> <r_i_glide_rewards>
-1.64619777272727

> <r_i_glide_evdw>
-39.8236999511719

> <r_i_glide_ecoul>
-2.37231206893921

> <r_i_glide_erotb>
0.383629607517394

> <r_i_glide_esite>
-0.0373315409760522

> <r_i_glide_emodel>
-49.6848351161689

> <r_i_glide_energy>
-42.1960120201111

> <r_i_glide_einternal>
5.93512725830078

> <i_i_glide_confnum>
38

> <i_i_glide_posenum>
24

> <r_i_glide_eff_state_penalty>
0

> <s_user_duplicate_titles>
CHEMBL2061_lig129,219793

> <i_f3d_flags>
0

> <s_m_subgroup_title>
dock_pv

> <s_m_subgroupid>
dock_pv

> <b_m_subgroup_collapsed>
1

$$$$
CHEMBL2061_lig424
                    3D
 Schrodinger Suite 2021-1.
 65 66  0  0  1  0            999 V2000
   64.4079   44.7984   31.9082 C   0  0  0  0  0  0
   63.6568   45.0689   30.7745 C   0  0  0  0  0  0
   62.6605   46.0520   30.8464 C   0  0  0  0  0  0
   62.4222   46.6796   32.0728 C   0  0  0  0  0  0
   64.1849   45.4151   33.1457 C   0  0  0  0  0  0
   63.1335   46.3630   33.2462 C   0  0  0  0  0  0
   62.7333   46.9980   34.6057 C   0  0  0  0  0  0
   63.8994   46.9006   35.6182 C   0  0  0  0  0  0
   64.4929   45.4993   35.6733 C   0  0  0  0  0  0
   65.1288   45.0811   34.3228 C   0  0  0  0  0  0
   61.8950   46.4495   29.7345 N   0  0  0  0  0  0
   60.9354   45.5321   29.1321 C   0  0  0  0  0  0
   59.5607   45.5411   29.7542 C   0  0  0  0  0  0
   58.4070   45.8115   29.1143 C   0  0  0  0  0  0
   57.0887   45.7603   29.7380 C   0  0  0  0  0  0
   56.0250   46.0826   28.9583 C   0  0  0  0  0  0
   56.9770   45.3838   31.2189 C   0  0  0  0  0  0
   54.6352   46.0770   29.3390 C   0  0  0  0  0  0
   54.2992   45.0200   30.1318 O   0  0  0  0  0  0
   53.8210   46.9075   28.9430 O   0  0  0  0  0  0
   62.2846   47.6782   29.0544 C   0  0  0  0  0  0
   63.4143   47.4562   28.0299 C   0  0  0  0  0  0
   62.4735   48.4966   34.4663 C   0  0  0  0  0  0
   61.4708   46.2969   35.1753 C   0  0  0  0  0  0
   65.3589   43.5654   34.4126 C   0  0  0  0  0  0
   66.4598   45.8373   34.1052 C   0  0  0  0  0  0
   63.6838   48.6701   27.1475 C   0  0  0  0  0  0
   64.0080   44.2904   29.5114 C   0  0  0  0  0  0
   65.2101   44.0849   31.8093 H   0  0  0  0  0  0
   61.6248   47.4050   32.1166 H   0  0  0  0  0  0
   64.6899   47.6009   35.3419 H   0  0  0  0  0  0
   63.5851   47.2146   36.6137 H   0  0  0  0  0  0
   65.2079   45.4587   36.4897 H   0  0  0  0  0  0
   63.7236   44.7848   35.9672 H   0  0  0  0  0  0
   61.2679   44.5055   29.2445 H   0  0  0  0  0  0
   60.8725   45.7136   28.0582 H   0  0  0  0  0  0
   59.5577   45.2801   30.7992 H   0  0  0  0  0  0
   58.4744   46.0699   28.0670 H   0  0  0  0  0  0
   56.1700   46.3932   27.9341 H   0  0  0  0  0  0
   57.7249   45.9323   31.7919 H   0  0  0  0  0  0
   56.0385   45.6527   31.7008 H   0  0  0  0  0  0
   57.2076   44.3263   31.3397 H   0  0  0  0  0  0
   55.0711   44.4609   30.2491 H   0  0  0  0  0  0
   61.4090   48.0938   28.5534 H   0  0  0  0  0  0
   62.5622   48.4711   29.7522 H   0  0  0  0  0  0
   64.3353   47.1783   28.5387 H   0  0  0  0  0  0
   63.1692   46.6067   27.3894 H   0  0  0  0  0  0
   62.2370   48.8770   35.4582 H   0  0  0  0  0  0
   63.3379   49.0459   34.0968 H   0  0  0  0  0  0
   61.6231   48.7198   33.8305 H   0  0  0  0  0  0
   60.9000   46.9698   35.8158 H   0  0  0  0  0  0
   60.7914   45.9623   34.3909 H   0  0  0  0  0  0
   61.7020   45.4478   35.8094 H   0  0  0  0  0  0
   66.0035   43.3558   35.2564 H   0  0  0  0  0  0
   64.4266   43.0124   34.5369 H   0  0  0  0  0  0
   65.8819   43.1492   33.5559 H   0  0  0  0  0  0
   67.1455   45.6784   34.9391 H   0  0  0  0  0  0
   66.9703   45.4816   33.2101 H   0  0  0  0  0  0
   66.3160   46.9097   33.9793 H   0  0  0  0  0  0
   64.5215   48.4837   26.4746 H   0  0  0  0  0  0
   62.8085   48.8766   26.5383 H   0  0  0  0  0  0
   63.9178   49.5565   27.7392 H   0  0  0  0  0  0
   64.7178   43.4942   29.7390 H   0  0  0  0  0  0
   63.1516   43.7951   29.0643 H   0  0  0  0  0  0
   64.4430   44.9438   28.7613 H   0  0  0  0  0  0
  1  2  1  0  0  0
  1  5  2  0  0  0
  1 29  1  0  0  0
  2  3  2  0  0  0
  2 28  1  0  0  0
  3  4  1  0  0  0
  3 11  1  0  0  0
  4  6  2  0  0  0
  4 30  1  0  0  0
  5 10  1  0  0  0
  5  6  1  0  0  0
  6  7  1  0  0  0
  7  8  1  0  0  0
  7 23  1  0  0  0
  7 24  1  0  0  0
  8  9  1  0  0  0
  8 31  1  0  0  0
  8 32  1  0  0  0
  9 10  1  0  0  0
  9 33  1  0  0  0
  9 34  1  0  0  0
 10 25  1  0  0  0
 10 26  1  0  0  0
 11 21  1  0  0  0
 11 12  1  0  0  0
 12 13  1  0  0  0
 12 35  1  0  0  0
 12 36  1  0  0  0
 13 14  2  0  0  0
 13 37  1  0  0  0
 14 15  1  0  0  0
 14 38  1  0  0  0
 15 16  2  0  0  0
 15 17  1  0  0  0
 16 18  1  0  0  0
 16 39  1  0  0  0
 17 40  1  0  0  0
 17 41  1  0  0  0
 17 42  1  0  0  0
 18 19  1  0  0  0
 18 20  2  0  0  0
 19 43  1  0  0  0
 21 22  1  0  0  0
 21 44  1  0  0  0
 21 45  1  0  0  0
 22 27  1  0  0  0
 22 46  1  0  0  0
 22 47  1  0  0  0
 23 48  1  0  0  0
 23 49  1  0  0  0
 23 50  1  0  0  0
 24 51  1  0  0  0
 24 52  1  0  0  0
 24 53  1  0  0  0
 25 54  1  0  0  0
 25 55  1  0  0  0
 25 56  1  0  0  0
 26 57  1  0  0  0
 26 58  1  0  0  0
 26 59  1  0  0  0
 27 60  1  0  0  0
 27 61  1  0  0  0
 27 62  1  0  0  0
 28 63  1  0  0  0
 28 64  1  0  0  0
 28 65  1  0  0  0
M  END
> <s_m_entry_id>
30963

> <s_m_entry_name>
dock_pv.176

> <s_m_Source_Path>
/home/csk/Desktop/cluster/DUD-E-result/rxra

> <s_m_Source_File>
dock_pv.maegz

> <i_m_Source_File_Index>
176

> <chembl_id>
CHEMBL205532

> <chembl_pref_name>
None

> <i_lp_mmshare_version>
53161

> <r_lp_tautomer_probability>
1

> <s_lp_Force_Field>
OPLS_2005

> <r_lp_Energy>
30.329619

> <b_lp_Chiralities_Consistent>
1

> <s_lp_Variant>
CHEMBL2061_lig424-1

> <s_i_glide_gridfile>
glide-grid_1mv9

> <i_i_glide_lignum>
495

> <i_i_glide_rotatable_bonds>
8

> <r_i_docking_score>
-10.6215552890572

> <r_i_glide_ligand_efficiency>
-0.379341260323471

> <r_i_glide_ligand_efficiency_sa>
-1.15190348639621

> <r_i_glide_ligand_efficiency_ln>
-2.45176682312895

> <r_i_glide_gscore>
-10.6215552890572

> <r_i_glide_lipo>
-6.59289770026958

> <r_i_glide_hbond>
-0.143995635175869

> <r_i_glide_metal>
0

> <r_i_glide_rewards>
-2.00758612482605

> <r_i_glide_evdw>
-44.2462615966797

> <r_i_glide_ecoul>
-3.01341032981873

> <r_i_glide_erotb>
0.792537626504182

> <r_i_glide_esite>
-0.00528882598306066

> <r_i_glide_emodel>
-68.9685654657628

> <r_i_glide_energy>
-47.2596719264984

> <r_i_glide_einternal>
13.2266159057617

> <i_i_glide_confnum>
81

> <i_i_glide_posenum>
186

> <r_i_glide_eff_state_penalty>
0

> <s_user_duplicate_titles>
CHEMBL2061_lig424,345436

> <i_f3d_flags>
0

> <s_m_subgroup_title>
dock_pv

> <s_m_subgroupid>
dock_pv

> <b_m_subgroup_collapsed>
1

$$$$
CHEMBL2061_lig326
                    3D
 Schrodinger Suite 2021-1.
 58 60  0  0  1  0            999 V2000
   61.9647   46.2938   29.0209 C   0  0  1  0  0  0
   60.4736   46.1586   28.6890 C   0  0  2  0  0  0
   61.1824   47.4445   28.3728 C   0  0  0  0  0  0
   63.7221   45.6510   32.4324 C   0  0  0  0  0  0
   62.4682   46.4875   30.4731 C   0  0  0  0  0  0
   63.1683   46.6977   33.2217 C   0  0  0  0  0  0
   63.3570   45.5830   31.0695 C   0  0  0  0  0  0
   59.4993   46.0452   29.8552 C   0  0  0  0  0  0
   64.7343   44.6381   33.0294 C   0  0  0  0  0  0
   63.4682   46.9114   34.7271 C   0  0  0  0  0  0
   62.3208   47.6159   32.5969 C   0  0  0  0  0  0
   56.0959   45.2805   31.0681 C   0  0  0  0  0  0
   58.2933   45.4505   29.8818 C   0  0  0  0  0  0
   57.4502   45.3797   31.0866 C   0  0  0  0  0  0
   62.0020   47.5377   31.2597 C   0  0  0  0  0  0
   64.5502   44.5705   34.5686 C   0  0  0  0  0  0
   64.5778   45.9481   35.2383 C   0  0  0  0  0  0
   62.9418   45.6152   28.0425 C   0  0  0  0  0  0
   64.5099   43.1864   32.5170 C   0  0  0  0  0  0
   66.1590   45.1380   32.6889 C   0  0  0  0  0  0
   64.0204   48.3381   34.8829 C   0  0  0  0  0  0
   62.1757   46.7237   35.5660 C   0  0  0  0  0  0
   58.0754   45.4497   32.4833 C   0  0  0  0  0  0
   55.1673   45.2011   29.9665 C   0  0  0  0  0  0
   55.6547   45.5584   28.7493 O   0  0  0  0  0  0
   54.0014   44.8629   30.1386 O   0  0  0  0  0  0
   60.1583   45.6748   27.7698 H   0  0  0  0  0  0
   61.3717   47.6860   27.3258 H   0  0  0  0  0  0
   60.8884   48.3445   28.9027 H   0  0  0  0  0  0
   63.7560   44.7867   30.4637 H   0  0  0  0  0  0
   59.8439   46.4777   30.7677 H   0  0  0  0  0  0
   61.9038   48.4344   33.1590 H   0  0  0  0  0  0
   55.5741   45.2463   32.0131 H   0  0  0  0  0  0
   57.9514   45.0043   28.9616 H   0  0  0  0  0  0
   61.3344   48.2908   30.8823 H   0  0  0  0  0  0
   65.3308   43.9433   35.0000 H   0  0  0  0  0  0
   63.6076   44.0814   34.8158 H   0  0  0  0  0  0
   65.5675   46.3739   35.0707 H   0  0  0  0  0  0
   64.5144   45.8346   36.3218 H   0  0  0  0  0  0
   62.6263   45.6762   27.0000 H   0  0  0  0  0  0
   63.9261   46.0797   28.1199 H   0  0  0  0  0  0
   63.0758   44.5627   28.2923 H   0  0  0  0  0  0
   65.2049   42.4826   32.9824 H   0  0  0  0  0  0
   63.5169   42.8114   32.7459 H   0  0  0  0  0  0
   64.6600   43.0911   31.4419 H   0  0  0  0  0  0
   66.9161   44.5509   33.2088 H   0  0  0  0  0  0
   66.3620   45.0512   31.6199 H   0  0  0  0  0  0
   66.3125   46.1847   32.9550 H   0  0  0  0  0  0
   64.4092   48.5109   35.8860 H   0  0  0  0  0  0
   64.8098   48.4772   34.1415 H   0  0  0  0  0  0
   63.2707   49.1083   34.7106 H   0  0  0  0  0  0
   62.2440   47.2761   36.5111 H   0  0  0  0  0  0
   61.2920   47.1191   35.0653 H   0  0  0  0  0  0
   61.9718   45.6770   35.7882 H   0  0  0  0  0  0
   58.4081   44.4630   32.7971 H   0  0  0  0  0  0
   58.9286   46.1170   32.5526 H   0  0  0  0  0  0
   57.3774   45.8416   33.2248 H   0  0  0  0  0  0
   54.9884   45.4311   28.0731 H   0  0  0  0  0  0
  1  2  1  0  0  0
  1  3  1  0  0  0
  1  5  1  0  0  0
  1 18  1  0  0  0
  2  8  1  0  0  0
  2  3  1  0  0  0
  2 27  1  0  0  0
  3 28  1  0  0  0
  3 29  1  0  0  0
  4  7  1  0  0  0
  4  9  1  0  0  0
  4  6  2  0  0  0
  5  7  2  0  0  0
  5 15  1  0  0  0
  6 11  1  0  0  0
  6 10  1  0  0  0
  7 30  1  0  0  0
  8 13  2  0  0  0
  8 31  1  0  0  0
  9 16  1  0  0  0
  9 19  1  0  0  0
  9 20  1  0  0  0
 10 17  1  0  0  0
 10 21  1  0  0  0
 10 22  1  0  0  0
 11 15  2  0  0  0
 11 32  1  0  0  0
 12 14  2  0  0  0
 12 24  1  0  0  0
 12 33  1  0  0  0
 13 14  1  0  0  0
 13 34  1  0  0  0
 14 23  1  0  0  0
 15 35  1  0  0  0
 16 17  1  0  0  0
 16 36  1  0  0  0
 16 37  1  0  0  0
 17 38  1  0  0  0
 17 39  1  0  0  0
 18 40  1  0  0  0
 18 41  1  0  0  0
 18 42  1  0  0  0
 19 43  1  0  0  0
 19 44  1  0  0  0
 19 45  1  0  0  0
 20 46  1  0  0  0
 20 47  1  0  0  0
 20 48  1  0  0  0
 21 49  1  0  0  0
 21 50  1  0  0  0
 21 51  1  0  0  0
 22 52  1  0  0  0
 22 53  1  0  0  0
 22 54  1  0  0  0
 23 55  1  0  0  0
 23 56  1  0  0  0
 23 57  1  0  0  0
 24 25  1  0  0  0
 24 26  2  0  0  0
 25 58  1  0  0  0
M  END
> <s_m_entry_id>
30964

> <s_m_entry_name>
dock_pv.177

> <s_m_Source_Path>
/home/csk/Desktop/cluster/DUD-E-result/rxra

> <s_m_Source_File>
dock_pv.maegz

> <i_m_Source_File_Index>
177

> <chembl_id>
CHEMBL2111535

> <chembl_pref_name>
None

> <i_lp_mmshare_version>
53161

> <r_lp_tautomer_probability>
1

> <s_lp_Force_Field>
OPLS_2005

> <r_lp_Energy>
30.31613

> <b_lp_Chiralities_Consistent>
1

> <s_lp_Variant>
CHEMBL2061_lig326-3

> <s_i_glide_gridfile>
glide-grid_1mv9

> <i_i_glide_lignum>
382

> <i_i_glide_rotatable_bonds>
5

> <r_i_docking_score>
-10.6134949661191

> <r_i_glide_ligand_efficiency>
-0.408211344850736

> <r_i_glide_ligand_efficiency_sa>
-1.20932450288623

> <r_i_glide_ligand_efficiency_ln>
-2.49254446707558

> <r_i_glide_gscore>
-10.6134949661191

> <r_i_glide_lipo>
-6.28329914157391

> <r_i_glide_hbond>
-0.226673287742349

> <r_i_glide_metal>
0

> <r_i_glide_rewards>
-2.25499050622552

> <r_i_glide_evdw>
-43.9751777648926

> <r_i_glide_ecoul>
-1.76092743873596

> <r_i_glide_erotb>
0.614365973477658

> <r_i_glide_esite>
0

> <r_i_glide_emodel>
-64.1935842014788

> <r_i_glide_energy>
-45.7361052036285

> <r_i_glide_einternal>
4.87892389297485

> <i_i_glide_confnum>
22

> <i_i_glide_posenum>
267

> <r_i_glide_eff_state_penalty>
0

> <s_user_duplicate_titles>
CHEMBL2061_lig326,CHEMBL2061_lig323,CHEMBL2061_lig324,119719

> <i_f3d_flags>
0

> <s_m_subgroup_title>
dock_pv

> <s_m_subgroupid>
dock_pv

> <b_m_subgroup_collapsed>
1

$$$$
CHEMBL2061_lig128
                    3D
 Schrodinger Suite 2021-1.
 57 59  0  0  1  0            999 V2000
   63.1488   46.5760   33.0572 C   0  0  0  0  0  0
   64.3014   45.8478   32.6540 C   0  0  0  0  0  0
   62.3056   46.4739   30.7523 C   0  0  0  0  0  0
   61.0820   46.5368   29.9228 C   0  0  0  0  0  0
   62.2201   46.9203   32.0726 C   0  0  0  0  0  0
   64.4349   45.5072   31.2974 C   0  0  0  0  0  0
   63.4546   45.7890   30.3513 C   0  0  0  0  0  0
   59.9776   45.9945   30.4864 C   0  0  0  0  0  0
   65.3518   45.3459   33.6671 C   0  0  0  0  0  0
   62.8881   47.0219   34.5205 C   0  0  0  0  0  0
   54.4444   46.0752   29.3395 C   0  0  0  0  0  0
   55.8874   45.7962   29.5281 C   0  0  0  0  0  0
   63.7943   46.2389   35.5002 C   0  0  0  0  0  0
   65.2254   46.1325   34.9851 C   0  0  0  0  0  0
   53.6081   45.2878   29.7454 O   0  0  0  0  0  0
   58.6014   45.7671   30.0341 C   0  0  0  0  0  0
   56.7804   46.0769   28.5055 C   0  0  0  0  0  0
   56.3437   45.2774   30.7388 C   0  0  0  0  0  0
   54.1556   47.2683   28.7440 O   0  0  0  0  0  0
   57.7062   45.2766   30.9913 C   0  0  0  0  0  0
   58.1436   46.0763   28.7551 C   0  0  0  0  0  0
   61.1612   47.2098   28.5607 C   0  0  0  0  0  0
   63.6205   45.2336   28.9444 C   0  0  0  0  0  0
   63.2254   48.5243   34.6124 C   0  0  0  0  0  0
   65.0970   43.8403   33.9233 C   0  0  0  0  0  0
   66.7862   45.6073   33.1572 C   0  0  0  0  0  0
   61.4297   46.7191   34.9582 C   0  0  0  0  0  0
   61.3426   47.4783   32.3605 H   0  0  0  0  0  0
   65.2870   44.9309   30.9757 H   0  0  0  0  0  0
   60.1160   45.6770   31.5051 H   0  0  0  0  0  0
   63.4044   45.2359   35.6746 H   0  0  0  0  0  0
   63.7964   46.7155   36.4817 H   0  0  0  0  0  0
   65.8496   45.6767   35.7393 H   0  0  0  0  0  0
   65.6099   47.1408   34.8502 H   0  0  0  0  0  0
   56.4154   46.3797   27.5342 H   0  0  0  0  0  0
   55.6603   44.9904   31.5253 H   0  0  0  0  0  0
   54.9608   47.7677   28.5872 H   0  0  0  0  0  0
   58.0452   44.9826   31.9739 H   0  0  0  0  0  0
   58.8095   46.3758   27.9636 H   0  0  0  0  0  0
   61.1637   46.4669   27.7635 H   0  0  0  0  0  0
   60.3281   47.8976   28.4126 H   0  0  0  0  0  0
   62.0751   47.7971   28.4714 H   0  0  0  0  0  0
   64.4068   44.4815   28.9079 H   0  0  0  0  0  0
   62.7081   44.7408   28.6094 H   0  0  0  0  0  0
   63.8582   46.0331   28.2422 H   0  0  0  0  0  0
   63.2285   48.8748   35.6452 H   0  0  0  0  0  0
   64.2000   48.7476   34.1821 H   0  0  0  0  0  0
   62.5002   49.1213   34.0586 H   0  0  0  0  0  0
   65.8080   43.4402   34.6455 H   0  0  0  0  0  0
   64.0922   43.6399   34.2964 H   0  0  0  0  0  0
   65.2097   43.2550   33.0099 H   0  0  0  0  0  0
   67.5431   45.3080   33.8875 H   0  0  0  0  0  0
   66.9705   45.0315   32.2556 H   0  0  0  0  0  0
   66.9475   46.6610   32.9263 H   0  0  0  0  0  0
   61.2766   46.9296   36.0181 H   0  0  0  0  0  0
   60.6943   47.3131   34.4216 H   0  0  0  0  0  0
   61.1666   45.6769   34.7922 H   0  0  0  0  0  0
  1  2  2  0  0  0
  1  5  1  0  0  0
  1 10  1  0  0  0
  2  6  1  0  0  0
  2  9  1  0  0  0
  3  5  2  0  0  0
  3  4  1  0  0  0
  3  7  1  0  0  0
  4  8  2  0  0  0
  4 22  1  0  0  0
  5 28  1  0  0  0
  6  7  2  0  0  0
  6 29  1  0  0  0
  7 23  1  0  0  0
  8 16  1  0  0  0
  8 30  1  0  0  0
  9 25  1  0  0  0
  9 26  1  0  0  0
  9 14  1  0  0  0
 10 13  1  0  0  0
 10 24  1  0  0  0
 10 27  1  0  0  0
 11 12  1  0  0  0
 11 15  2  0  0  0
 11 19  1  0  0  0
 12 17  2  0  0  0
 12 18  1  0  0  0
 13 14  1  0  0  0
 13 31  1  0  0  0
 13 32  1  0  0  0
 14 33  1  0  0  0
 14 34  1  0  0  0
 16 20  1  0  0  0
 16 21  2  0  0  0
 17 21  1  0  0  0
 17 35  1  0  0  0
 18 20  2  0  0  0
 18 36  1  0  0  0
 19 37  1  0  0  0
 20 38  1  0  0  0
 21 39  1  0  0  0
 22 40  1  0  0  0
 22 41  1  0  0  0
 22 42  1  0  0  0
 23 43  1  0  0  0
 23 44  1  0  0  0
 23 45  1  0  0  0
 24 46  1  0  0  0
 24 47  1  0  0  0
 24 48  1  0  0  0
 25 49  1  0  0  0
 25 50  1  0  0  0
 25 51  1  0  0  0
 26 52  1  0  0  0
 26 53  1  0  0  0
 26 54  1  0  0  0
 27 55  1  0  0  0
 27 56  1  0  0  0
 27 57  1  0  0  0
M  END
> <s_m_entry_id>
30965

> <s_m_entry_name>
dock_pv.178

> <s_m_Source_Path>
/home/csk/Desktop/cluster/DUD-E-result/rxra

> <s_m_Source_File>
dock_pv.maegz

> <i_m_Source_File_Index>
178

> <chembl_id>
CHEMBL32505

> <chembl_pref_name>
None

> <i_lp_mmshare_version>
53161

> <r_lp_tautomer_probability>
1

> <s_lp_Force_Field>
OPLS_2005

> <r_lp_Energy>
34.116182

> <b_lp_Chiralities_Consistent>
1

> <s_lp_Variant>
CHEMBL2061_lig128-1

> <s_i_glide_gridfile>
glide-grid_1mv9

> <i_i_glide_lignum>
167

> <i_i_glide_rotatable_bonds>
4

> <r_i_docking_score>
-10.6085641791281

> <r_i_glide_ligand_efficiency>
-0.392909784412152

> <r_i_glide_ligand_efficiency_sa>
-1.17872935194149

> <r_i_glide_ligand_efficiency_ln>
-2.46949884505168

> <r_i_glide_gscore>
-10.6085641791281

> <r_i_glide_lipo>
-6.7419875277427

> <r_i_glide_hbond>
-0.0799438139670864

> <r_i_glide_metal>
0

> <r_i_glide_rewards>
-1.74083921922025

> <r_i_glide_evdw>
-42.681957244873

> <r_i_glide_ecoul>
-2.16438913345337

> <r_i_glide_erotb>
0.438387310214999

> <r_i_glide_esite>
-0.0254246961514082

> <r_i_glide_emodel>
-55.0692144786103

> <r_i_glide_energy>
-44.8463463783264

> <r_i_glide_einternal>
5.37637519836426

> <i_i_glide_confnum>
35

> <i_i_glide_posenum>
98

> <r_i_glide_eff_state_penalty>
0

> <s_user_duplicate_titles>
CHEMBL2061_lig128,CHEMBL2061_lig286,48147

> <i_f3d_flags>
0

> <s_m_subgroup_title>
dock_pv

> <s_m_subgroupid>
dock_pv

> <b_m_subgroup_collapsed>
1

$$$$
CHEMBL2061_lig99
                    3D
 Schrodinger Suite 2021-1.
 64 64  0  0  1  0            999 V2000
   62.6445   46.9186   31.6522 C   0  0  0  0  0  0
   63.6711   45.9665   31.7420 C   0  0  0  0  0  0
   61.9009   47.2635   32.8859 C   0  0  0  0  0  0
   64.1493   45.3538   30.5815 C   0  0  0  0  0  0
   62.2585   47.4061   30.3944 C   0  0  0  0  0  0
   63.7284   45.8219   29.3351 C   0  0  0  0  0  0
   62.8019   46.8599   29.2226 C   0  0  0  0  0  0
   60.6775   46.7390   33.1370 C   0  0  0  0  0  0
   59.8637   46.0770   32.1196 C   0  0  0  0  0  0
   56.4013   45.2769   31.3253 C   0  0  0  0  0  0
   55.3592   44.9060   30.3876 C   0  0  0  0  0  0
   58.5776   45.6877   32.2649 C   0  0  0  0  0  0
   57.7496   45.1718   31.1737 C   0  0  0  0  0  0
   54.2029   44.6799   30.7301 O   0  0  0  0  0  0
   65.0755   44.1437   30.6696 C   0  0  0  0  0  0
   62.3933   47.3169   27.8168 C   0  0  0  0  0  0
   64.1205   45.5452   32.9707 O   0  0  0  0  0  0
   60.1723   46.8770   34.3821 F   0  0  0  0  0  0
   55.7441   44.8771   29.0826 O   0  0  0  0  0  0
   62.5735   48.2163   33.8664 C   0  0  0  0  0  0
   58.4081   44.5436   29.9443 C   0  0  0  0  0  0
   66.4668   44.5071   30.1390 C   0  0  0  0  0  0
   64.4471   42.8800   30.0476 C   0  0  0  0  0  0
   65.3877   46.0586   33.3832 C   0  0  0  0  0  0
   63.4321   48.2793   27.2133 C   0  0  0  0  0  0
   60.9644   47.8825   27.7050 C   0  0  0  0  0  0
   65.7063   45.6090   34.8202 C   0  0  0  0  0  0
   64.6385   45.9380   35.8853 C   0  0  0  0  0  0
   63.3694   45.0812   35.7580 C   0  0  0  0  0  0
   61.4913   48.1634   30.3355 H   0  0  0  0  0  0
   64.1168   45.3583   28.4421 H   0  0  0  0  0  0
   60.3102   45.9189   31.1518 H   0  0  0  0  0  0
   55.9998   45.6909   32.2392 H   0  0  0  0  0  0
   58.1187   45.8253   33.2351 H   0  0  0  0  0  0
   65.2080   43.8701   31.7149 H   0  0  0  0  0  0
   62.3918   46.4173   27.1977 H   0  0  0  0  0  0
   55.0374   44.5566   28.5190 H   0  0  0  0  0  0
   63.6412   48.0593   33.9425 H   0  0  0  0  0  0
   62.4215   49.2386   33.5189 H   0  0  0  0  0  0
   62.1545   48.1531   34.8707 H   0  0  0  0  0  0
   59.3998   44.1398   30.1390 H   0  0  0  0  0  0
   57.8404   43.6770   29.6095 H   0  0  0  0  0  0
   58.4577   45.2607   29.1242 H   0  0  0  0  0  0
   66.9234   45.2863   30.7382 H   0  0  0  0  0  0
   67.1630   43.6770   30.1329 H   0  0  0  0  0  0
   66.4079   44.8992   29.1329 H   0  0  0  0  0  0
   63.6313   42.5098   30.6698 H   0  0  0  0  0  0
   64.0249   43.0479   29.0550 H   0  0  0  0  0  0
   65.1843   42.0781   29.9765 H   0  0  0  0  0  0
   66.1810   45.6935   32.7369 H   0  0  0  0  0  0
   65.4327   47.1447   33.3066 H   0  0  0  0  0  0
   64.4396   47.8631   27.2601 H   0  0  0  0  0  0
   63.2137   48.4769   26.1637 H   0  0  0  0  0  0
   63.4448   49.2354   27.7382 H   0  0  0  0  0  0
   60.2355   47.2413   28.2027 H   0  0  0  0  0  0
   60.8972   48.8768   28.1390 H   0  0  0  0  0  0
   60.6614   47.9712   26.6611 H   0  0  0  0  0  0
   65.9013   44.5354   34.8248 H   0  0  0  0  0  0
   66.6466   46.0768   35.1090 H   0  0  0  0  0  0
   65.0664   45.7716   36.8749 H   0  0  0  0  0  0
   64.3845   46.9970   35.8545 H   0  0  0  0  0  0
   62.6503   45.2771   36.5390 H   0  0  0  0  0  0
   62.8170   45.2770   34.8439 H   0  0  0  0  0  0
   63.6081   44.0175   35.7871 H   0  0  0  0  0  0
  1  2  1  0  0  0
  1  3  1  0  0  0
  1  5  2  0  0  0
  2  4  2  0  0  0
  2 17  1  0  0  0
  3  8  2  0  0  0
  3 20  1  0  0  0
  4 15  1  0  0  0
  4  6  1  0  0  0
  5  7  1  0  0  0
  5 30  1  0  0  0
  6  7  2  0  0  0
  6 31  1  0  0  0
  7 16  1  0  0  0
  8  9  1  0  0  0
  8 18  1  0  0  0
  9 12  2  0  0  0
  9 32  1  0  0  0
 10 13  2  0  0  0
 10 11  1  0  0  0
 10 33  1  0  0  0
 11 14  2  0  0  0
 11 19  1  0  0  0
 12 13  1  0  0  0
 12 34  1  0  0  0
 13 21  1  0  0  0
 15 22  1  0  0  0
 15 23  1  0  0  0
 15 35  1  0  0  0
 16 25  1  0  0  0
 16 26  1  0  0  0
 16 36  1  0  0  0
 17 24  1  0  0  0
 19 37  1  0  0  0
 20 38  1  0  0  0
 20 39  1  0  0  0
 20 40  1  0  0  0
 21 41  1  0  0  0
 21 42  1  0  0  0
 21 43  1  0  0  0
 22 44  1  0  0  0
 22 45  1  0  0  0
 22 46  1  0  0  0
 23 47  1  0  0  0
 23 48  1  0  0  0
 23 49  1  0  0  0
 24 27  1  0  0  0
 24 50  1  0  0  0
 24 51  1  0  0  0
 25 52  1  0  0  0
 25 53  1  0  0  0
 25 54  1  0  0  0
 26 55  1  0  0  0
 26 56  1  0  0  0
 26 57  1  0  0  0
 27 28  1  0  0  0
 27 58  1  0  0  0
 27 59  1  0  0  0
 28 29  1  0  0  0
 28 60  1  0  0  0
 28 61  1  0  0  0
 29 62  1  0  0  0
 29 63  1  0  0  0
 29 64  1  0  0  0
M  END
> <s_m_entry_id>
30966

> <s_m_entry_name>
dock_pv.179

> <s_m_Source_Path>
/home/csk/Desktop/cluster/DUD-E-result/rxra

> <s_m_Source_File>
dock_pv.maegz

> <i_m_Source_File_Index>
179

> <chembl_id>
CHEMBL131826

> <chembl_pref_name>
None

> <i_lp_mmshare_version>
53161

> <r_lp_tautomer_probability>
1

> <s_lp_Force_Field>
OPLS_2005

> <r_lp_Energy>
26.774877

> <b_lp_Chiralities_Consistent>
1

> <s_lp_Variant>
CHEMBL2061_lig99-1

> <s_i_glide_gridfile>
glide-grid_1mv9

> <i_i_glide_lignum>
138

> <i_i_glide_rotatable_bonds>
11

> <r_i_docking_score>
-10.6031973193996

> <r_i_glide_ligand_efficiency>
-0.3656274937724

> <r_i_glide_ligand_efficiency_sa>
-1.12332349978944

> <r_i_glide_ligand_efficiency_ln>
-2.42786331225756

> <r_i_glide_gscore>
-10.6031973193996

> <r_i_glide_lipo>
-5.69854077310033

> <r_i_glide_hbond>
-0.33229241715608

> <r_i_glide_metal>
0

> <r_i_glide_rewards>
-2.55773105950826

> <r_i_glide_evdw>
-43.1561508178711

> <r_i_glide_ecoul>
-4.69733619689941

> <r_i_glide_erotb>
0.847774900793539

> <r_i_glide_esite>
0

> <r_i_glide_emodel>
-64.678810662354

> <r_i_glide_energy>
-47.8534870147705

> <r_i_glide_einternal>
6.67818641662598

> <i_i_glide_confnum>
49

> <i_i_glide_posenum>
149

> <r_i_glide_eff_state_penalty>
0

> <s_user_duplicate_titles>
CHEMBL2061_lig99,217069

> <i_f3d_flags>
0

> <s_m_subgroup_title>
dock_pv

> <s_m_subgroupid>
dock_pv

> <b_m_subgroup_collapsed>
1

$$$$
CHEMBL2061_lig515
                    3D
 Schrodinger Suite 2021-1.
 62 66  0  0  1  0            999 V2000
   64.1492   45.1441   35.6404 C   0  0  0  0  0  0
   64.0191   46.6526   35.6505 C   0  0  0  0  0  0
   62.9224   47.1490   34.6944 C   0  0  0  0  0  0
   64.5971   44.5846   34.2597 C   0  0  0  0  0  0
   63.8792   45.3040   33.1088 C   0  0  0  0  0  0
   63.0490   46.4452   33.3241 C   0  0  0  0  0  0
   62.2755   46.9113   32.2546 C   0  0  0  0  0  0
   64.0033   44.7691   31.8089 C   0  0  0  0  0  0
   66.1168   44.8370   34.0886 C   0  0  0  0  0  0
   64.1672   43.0898   34.2184 C   0  0  0  0  0  0
   61.5229   46.8633   35.2896 C   0  0  0  0  0  0
   63.2083   48.6523   34.5527 C   0  0  0  0  0  0
   63.2082   45.2645   30.7898 C   0  0  0  0  0  0
   62.3185   46.2955   31.0135 C   0  0  0  0  0  0
   63.2156   44.8453   29.4760 O   0  0  0  0  0  0
   60.1047   46.0795   29.6978 C   0  0  0  0  0  0
   59.4639   45.6781   30.8791 C   0  0  0  0  0  0
   58.1139   45.3497   30.9396 C   0  0  0  0  0  0
   57.3129   45.4944   29.8059 C   0  0  0  0  0  0
   57.9174   45.9213   28.6211 C   0  0  0  0  0  0
   59.2891   46.1733   28.5587 C   0  0  0  0  0  0
   55.8184   45.2912   29.8715 C   0  0  0  0  0  0
   55.3931   44.5175   30.9113 O   0  0  0  0  0  0
   55.0473   45.8041   29.0617 O   0  0  0  0  0  0
   62.6927   45.9951   28.8255 C   0  0  2  0  0  0
   61.5956   46.5905   29.7285 C   0  0  2  0  0  0
   61.6060   48.0765   29.4158 C   0  0  0  0  0  0
   61.4853   48.4711   27.9150 C   0  0  0  0  0  0
   62.3908   47.6297   26.9980 C   0  0  0  0  0  0
   62.4129   46.1020   27.3365 C   0  0  0  0  0  0
   63.2091   44.7041   35.9617 H   0  0  0  0  0  0
   64.8514   44.8770   36.4207 H   0  0  0  0  0  0
   64.9806   47.0572   35.3363 H   0  0  0  0  0  0
   63.8567   47.0200   36.6646 H   0  0  0  0  0  0
   61.6092   47.7469   32.4018 H   0  0  0  0  0  0
   64.6629   43.9351   31.6182 H   0  0  0  0  0  0
   66.6858   44.4747   34.9395 H   0  0  0  0  0  0
   66.5108   44.3358   33.2051 H   0  0  0  0  0  0
   66.3532   45.8953   33.9805 H   0  0  0  0  0  0
   64.0084   42.6672   35.2126 H   0  0  0  0  0  0
   63.2190   42.8918   33.7192 H   0  0  0  0  0  0
   64.9130   42.4765   33.7130 H   0  0  0  0  0  0
   61.4055   47.3225   36.2711 H   0  0  0  0  0  0
   60.7324   47.2715   34.6593 H   0  0  0  0  0  0
   61.3217   45.7974   35.3967 H   0  0  0  0  0  0
   63.2084   49.1457   35.5257 H   0  0  0  0  0  0
   64.1975   48.8339   34.1407 H   0  0  0  0  0  0
   62.4844   49.1635   33.9182 H   0  0  0  0  0  0
   59.9991   45.6791   31.8137 H   0  0  0  0  0  0
   57.7030   45.0816   31.9028 H   0  0  0  0  0  0
   57.3177   46.0739   27.7390 H   0  0  0  0  0  0
   59.6768   46.4913   27.6089 H   0  0  0  0  0  0
   56.1513   44.1272   31.3472 H   0  0  0  0  0  0
   63.5861   46.6380   28.8761 H   0  0  0  0  0  0
   62.5298   48.4958   29.8062 H   0  0  0  0  0  0
   60.8085   48.4897   30.0137 H   0  0  0  0  0  0
   61.7420   49.5205   27.7645 H   0  0  0  0  0  0
   60.4499   48.4165   27.5859 H   0  0  0  0  0  0
   63.4090   48.0177   27.0674 H   0  0  0  0  0  0
   62.0936   47.8410   25.9831 H   0  0  0  0  0  0
   61.4909   45.6003   27.0569 H   0  0  0  0  0  0
   63.2081   45.6286   26.7677 H   0  0  0  0  0  0
  1  2  1  0  0  0
  1  4  1  0  0  0
  1 31  1  0  0  0
  1 32  1  0  0  0
  2  3  1  0  0  0
  2 33  1  0  0  0
  2 34  1  0  0  0
  3  6  1  0  0  0
  3 11  1  0  0  0
  3 12  1  0  0  0
  4  5  1  0  0  0
  4  9  1  0  0  0
  4 10  1  0  0  0
  5  6  2  0  0  0
  5  8  1  0  0  0
  6  7  1  0  0  0
  7 14  2  0  0  0
  7 35  1  0  0  0
  8 13  2  0  0  0
  8 36  1  0  0  0
  9 37  1  0  0  0
  9 38  1  0  0  0
  9 39  1  0  0  0
 10 40  1  0  0  0
 10 41  1  0  0  0
 10 42  1  0  0  0
 11 43  1  0  0  0
 11 44  1  0  0  0
 11 45  1  0  0  0
 12 46  1  0  0  0
 12 47  1  0  0  0
 12 48  1  0  0  0
 13 14  1  0  0  0
 13 15  1  0  0  0
 14 26  1  0  0  0
 15 25  1  0  0  0
 16 26  1  0  0  0
 16 17  2  0  0  0
 16 21  1  0  0  0
 17 18  1  0  0  0
 17 49  1  0  0  0
 18 19  2  0  0  0
 18 50  1  0  0  0
 19 20  1  0  0  0
 19 22  1  0  0  0
 20 21  2  0  0  0
 20 51  1  0  0  0
 21 52  1  0  0  0
 22 23  1  0  0  0
 22 24  2  0  0  0
 23 53  1  0  0  0
 25 26  1  0  0  0
 25 30  1  0  0  0
 25 54  1  0  0  0
 26 27  1  0  0  0
 27 28  1  0  0  0
 27 55  1  0  0  0
 27 56  1  0  0  0
 28 29  1  0  0  0
 28 57  1  0  0  0
 28 58  1  0  0  0
 29 30  1  0  0  0
 29 59  1  0  0  0
 29 60  1  0  0  0
 30 61  1  0  0  0
 30 62  1  0  0  0
M  END
> <s_m_entry_id>
30967

> <s_m_entry_name>
dock_pv.180

> <s_m_Source_Path>
/home/csk/Desktop/cluster/DUD-E-result/rxra

> <s_m_Source_File>
dock_pv.maegz

> <i_m_Source_File_Index>
180

> <chembl_id>
CHEMBL3780004

> <chembl_pref_name>
None

> <i_lp_mmshare_version>
53161

> <r_lp_tautomer_probability>
1

> <s_lp_Force_Field>
OPLS_2005

> <r_lp_Energy>
55.736692

> <b_lp_Chiralities_Consistent>
1

> <s_lp_Variant>
CHEMBL2061_lig515-3

> <s_i_glide_gridfile>
glide-grid_1mv9

> <i_i_glide_lignum>
613

> <i_i_glide_rotatable_bonds>
3

> <r_i_docking_score>
-10.6028511250167

> <r_i_glide_ligand_efficiency>
-0.35342837083389

> <r_i_glide_ligand_efficiency_sa>
-1.09818412113633

> <r_i_glide_ligand_efficiency_ln>
-2.40908330291981

> <r_i_glide_gscore>
-10.6028511250167

> <r_i_glide_lipo>
-6.79507910324385

> <r_i_glide_hbond>
0

> <r_i_glide_metal>
0

> <r_i_glide_rewards>
-1.99417461613676

> <r_i_glide_evdw>
-40.4477500915527

> <r_i_glide_ecoul>
-0.208528369665146

> <r_i_glide_erotb>
0.240069354391321

> <r_i_glide_esite>
0

> <r_i_glide_emodel>
-40.8162980514456

> <r_i_glide_energy>
-40.6562784612179

> <r_i_glide_einternal>
9.07624053955078

> <i_i_glide_confnum>
5

> <i_i_glide_posenum>
375

> <r_i_glide_eff_state_penalty>
0

> <s_user_duplicate_titles>
CHEMBL2061_lig515

> <i_f3d_flags>
0

> <s_m_subgroup_title>
dock_pv

> <s_m_subgroupid>
dock_pv

> <b_m_subgroup_collapsed>
1

$$$$
CHEMBL2061_lig395
                    3D
 Schrodinger Suite 2021-1.
 54 56  0  0  1  0            999 V2000
   60.9755   45.9811   28.7606 C   0  0  0  0  0  0
   63.9636   45.7127   32.6639 C   0  0  0  0  0  0
   60.5580   46.8966   27.8100 C   0  0  0  0  0  0
   63.1444   46.6689   33.3266 C   0  0  0  0  0  0
   59.2082   46.9128   27.7469 O   0  0  0  0  0  0
   58.7137   46.0781   28.6949 C   0  0  0  0  0  0
   59.7915   45.4937   29.3373 C   0  0  0  0  0  0
   65.0889   44.9395   33.3788 C   0  0  0  0  0  0
   63.2972   47.0312   34.8209 C   0  0  0  0  0  0
   57.2731   45.9893   28.8458 C   0  0  0  0  0  0
   55.1538   45.3953   29.9738 C   0  0  0  0  0  0
   56.5949   45.3997   29.8553 C   0  0  0  0  0  0
   62.1955   47.3584   32.5653 C   0  0  0  0  0  0
   62.3984   45.6692   29.1675 C   0  0  0  0  0  0
   63.6971   45.4270   31.3140 C   0  0  0  0  0  0
   62.6988   46.0799   30.6012 C   0  0  0  0  0  0
   65.3966   45.5665   34.7615 C   0  0  0  0  0  0
   64.1429   45.9530   35.5510 C   0  0  0  0  0  0
   54.5268   44.5592   30.6211 O   0  0  0  0  0  0
   61.9818   47.0935   31.2279 C   0  0  0  0  0  0
   54.5507   46.4446   29.3377 O   0  0  0  0  0  0
   61.2746   47.8874   26.9278 C   0  0  0  0  0  0
   64.6271   43.4725   33.5687 C   0  0  0  0  0  0
   66.4033   45.0496   32.5695 C   0  0  0  0  0  0
   64.0061   48.4023   34.8992 C   0  0  0  0  0  0
   61.9141   47.0693   35.5227 C   0  0  0  0  0  0
   59.7329   44.7749   30.1392 H   0  0  0  0  0  0
   56.7422   46.4728   28.0401 H   0  0  0  0  0  0
   57.1167   44.8818   30.6472 H   0  0  0  0  0  0
   61.6086   48.1345   33.0163 H   0  0  0  0  0  0
   62.5945   44.6025   29.0497 H   0  0  0  0  0  0
   63.1239   46.1643   28.5215 H   0  0  0  0  0  0
   64.2620   44.6572   30.8100 H   0  0  0  0  0  0
   66.0080   46.4626   34.6513 H   0  0  0  0  0  0
   66.0069   44.8687   35.3288 H   0  0  0  0  0  0
   64.4270   46.3017   36.5458 H   0  0  0  0  0  0
   63.5509   45.0530   35.7228 H   0  0  0  0  0  0
   61.2256   47.6593   30.7038 H   0  0  0  0  0  0
   55.2002   47.0258   28.9377 H   0  0  0  0  0  0
   62.3129   47.6092   26.7500 H   0  0  0  0  0  0
   60.7971   47.9912   25.9560 H   0  0  0  0  0  0
   61.2821   48.8774   27.3820 H   0  0  0  0  0  0
   65.3875   42.8814   34.0770 H   0  0  0  0  0  0
   63.7063   43.3960   34.1462 H   0  0  0  0  0  0
   64.4417   42.9829   32.6123 H   0  0  0  0  0  0
   67.2039   44.5302   33.0916 H   0  0  0  0  0  0
   66.3279   44.6050   31.5784 H   0  0  0  0  0  0
   66.7102   46.0884   32.4345 H   0  0  0  0  0  0
   64.3297   48.6347   35.9147 H   0  0  0  0  0  0
   64.8688   48.4618   34.2359 H   0  0  0  0  0  0
   63.3380   49.2038   34.5850 H   0  0  0  0  0  0
   62.0196   47.4320   36.5389 H   0  0  0  0  0  0
   61.2108   47.7582   35.0595 H   0  0  0  0  0  0
   61.4354   46.0897   35.5532 H   0  0  0  0  0  0
  1  3  2  0  0  0
  1  7  1  0  0  0
  1 14  1  0  0  0
  2 15  1  0  0  0
  2  8  1  0  0  0
  2  4  2  0  0  0
  3  5  1  0  0  0
  3 22  1  0  0  0
  4 13  1  0  0  0
  4  9  1  0  0  0
  5  6  1  0  0  0
  6  7  2  0  0  0
  6 10  1  0  0  0
  7 27  1  0  0  0
  8 17  1  0  0  0
  8 23  1  0  0  0
  8 24  1  0  0  0
  9 18  1  0  0  0
  9 25  1  0  0  0
  9 26  1  0  0  0
 10 12  2  0  0  0
 10 28  1  0  0  0
 11 12  1  0  0  0
 11 19  2  0  0  0
 11 21  1  0  0  0
 12 29  1  0  0  0
 13 20  2  0  0  0
 13 30  1  0  0  0
 14 16  1  0  0  0
 14 31  1  0  0  0
 14 32  1  0  0  0
 15 16  2  0  0  0
 15 33  1  0  0  0
 16 20  1  0  0  0
 17 18  1  0  0  0
 17 34  1  0  0  0
 17 35  1  0  0  0
 18 36  1  0  0  0
 18 37  1  0  0  0
 20 38  1  0  0  0
 21 39  1  0  0  0
 22 40  1  0  0  0
 22 41  1  0  0  0
 22 42  1  0  0  0
 23 43  1  0  0  0
 23 44  1  0  0  0
 23 45  1  0  0  0
 24 46  1  0  0  0
 24 47  1  0  0  0
 24 48  1  0  0  0
 25 49  1  0  0  0
 25 50  1  0  0  0
 25 51  1  0  0  0
 26 52  1  0  0  0
 26 53  1  0  0  0
 26 54  1  0  0  0
M  END
> <s_m_entry_id>
30968

> <s_m_entry_name>
dock_pv.181

> <s_m_Source_Path>
/home/csk/Desktop/cluster/DUD-E-result/rxra

> <s_m_Source_File>
dock_pv.maegz

> <i_m_Source_File_Index>
181

> <chembl_id>
CHEMBL62258

> <chembl_pref_name>
None

> <i_lp_mmshare_version>
53161

> <r_lp_tautomer_probability>
1

> <s_lp_Force_Field>
OPLS_2005

> <r_lp_Energy>
15.046319

> <b_lp_Chiralities_Consistent>
1

> <s_lp_Variant>
CHEMBL2061_lig395-1

> <s_i_glide_gridfile>
glide-grid_1mv9

> <i_i_glide_lignum>
460

> <i_i_glide_rotatable_bonds>
5

> <r_i_docking_score>
-10.590879998031

> <r_i_glide_ligand_efficiency>
-0.407341538385808

> <r_i_glide_ligand_efficiency_sa>
-1.2067477046564

> <r_i_glide_ligand_efficiency_ln>
-2.48723341602585

> <r_i_glide_gscore>
-10.590879998031

> <r_i_glide_lipo>
-6.0415754011977

> <r_i_glide_hbond>
-0.20306037616446

> <r_i_glide_metal>
0

> <r_i_glide_rewards>
-2.22775815637228

> <r_i_glide_evdw>
-44.3232002258301

> <r_i_glide_ecoul>
-3.44550371170044

> <r_i_glide_erotb>
0.614499503750009

> <r_i_glide_esite>
0

> <r_i_glide_emodel>
-72.3409265250233

> <r_i_glide_energy>
-47.7687039375305

> <r_i_glide_einternal>
5.2334566116333

> <i_i_glide_confnum>
28

> <i_i_glide_posenum>
86

> <r_i_glide_eff_state_penalty>
0

> <s_user_duplicate_titles>
CHEMBL2061_lig395,96350

> <i_f3d_flags>
0

> <s_m_subgroup_title>
dock_pv

> <s_m_subgroupid>
dock_pv

> <b_m_subgroup_collapsed>
1

$$$$
CHEMBL2061_lig282
                    3D
 Schrodinger Suite 2021-1.
 54 56  0  0  1  0            999 V2000
   62.7977   46.4827   33.1452 C   0  0  0  0  0  0
   63.9580   45.7998   32.6862 C   0  0  0  0  0  0
   55.8773   45.4067   29.7692 C   0  0  0  0  0  0
   61.8295   46.3194   30.8897 C   0  0  0  0  0  0
   60.6255   46.4876   30.0492 C   0  0  0  0  0  0
   56.1562   46.0552   28.2070 S   0  0  0  0  0  0
   61.7779   46.7440   32.2171 C   0  0  0  0  0  0
   64.0235   45.4395   31.3295 C   0  0  0  0  0  0
   58.1834   45.7478   29.8254 C   0  0  0  0  0  0
   59.4988   45.8335   30.4171 C   0  0  0  0  0  0
   57.0499   45.2765   30.5079 C   0  0  0  0  0  0
   62.9875   45.6823   30.4319 C   0  0  0  0  0  0
   54.5357   45.1605   30.1352 C   0  0  0  0  0  0
   65.1019   45.3628   33.6342 C   0  0  0  0  0  0
   62.6403   46.9723   34.6080 C   0  0  0  0  0  0
   57.8556   46.0770   28.5240 C   0  0  0  0  0  0
   53.6081   45.8556   29.7390 O   0  0  0  0  0  0
   65.0063   46.0902   34.9985 C   0  0  0  0  0  0
   63.5851   46.1824   35.5451 C   0  0  0  0  0  0
   54.4083   44.0777   30.9390 O   0  0  0  0  0  0
   60.7439   47.4304   28.8586 C   0  0  0  0  0  0
   63.1202   45.1684   29.0032 C   0  0  0  0  0  0
   63.0089   48.4727   34.6483 C   0  0  0  0  0  0
   61.2085   46.7155   35.1444 C   0  0  0  0  0  0
   64.9748   43.8373   33.8716 C   0  0  0  0  0  0
   66.4754   45.7505   33.0371 C   0  0  0  0  0  0
   60.8916   47.2677   32.5384 H   0  0  0  0  0  0
   64.8864   44.9021   30.9676 H   0  0  0  0  0  0
   59.5327   45.2772   31.3328 H   0  0  0  0  0  0
   57.0846   44.9313   31.5305 H   0  0  0  0  0  0
   58.5204   46.4077   27.7409 H   0  0  0  0  0  0
   65.6258   45.5896   35.7383 H   0  0  0  0  0  0
   65.4103   47.0977   34.9184 H   0  0  0  0  0  0
   63.2093   45.1723   35.7111 H   0  0  0  0  0  0
   63.6113   46.6463   36.5327 H   0  0  0  0  0  0
   55.2568   43.6531   31.0814 H   0  0  0  0  0  0
   60.9907   46.8764   27.9543 H   0  0  0  0  0  0
   59.8203   47.9852   28.6913 H   0  0  0  0  0  0
   61.5325   48.1672   29.0236 H   0  0  0  0  0  0
   63.9248   44.4383   28.9048 H   0  0  0  0  0  0
   62.2043   44.6665   28.6884 H   0  0  0  0  0  0
   63.3081   45.9939   28.3164 H   0  0  0  0  0  0
   62.9793   48.8741   35.6627 H   0  0  0  0  0  0
   64.0040   48.6672   34.2512 H   0  0  0  0  0  0
   62.3130   49.0563   34.0455 H   0  0  0  0  0  0
   61.1403   46.9480   36.2074 H   0  0  0  0  0  0
   60.4570   47.3308   34.6545 H   0  0  0  0  0  0
   60.9044   45.6772   35.0157 H   0  0  0  0  0  0
   65.7535   43.4767   34.5437 H   0  0  0  0  0  0
   64.0113   43.5608   34.3011 H   0  0  0  0  0  0
   65.0804   43.2758   32.9435 H   0  0  0  0  0  0
   67.2822   45.5388   33.7404 H   0  0  0  0  0  0
   66.6987   45.1926   32.1283 H   0  0  0  0  0  0
   66.5261   46.8135   32.7923 H   0  0  0  0  0  0
  1  2  2  0  0  0
  1  7  1  0  0  0
  1 15  1  0  0  0
  2  8  1  0  0  0
  2 14  1  0  0  0
  3 11  2  0  0  0
  3 13  1  0  0  0
  3  6  1  0  0  0
  4  7  2  0  0  0
  4  5  1  0  0  0
  4 12  1  0  0  0
  5 10  2  0  0  0
  5 21  1  0  0  0
  6 16  1  0  0  0
  7 27  1  0  0  0
  8 12  2  0  0  0
  8 28  1  0  0  0
  9 10  1  0  0  0
  9 11  1  0  0  0
  9 16  2  0  0  0
 10 29  1  0  0  0
 11 30  1  0  0  0
 12 22  1  0  0  0
 13 17  2  0  0  0
 13 20  1  0  0  0
 14 25  1  0  0  0
 14 26  1  0  0  0
 14 18  1  0  0  0
 15 19  1  0  0  0
 15 23  1  0  0  0
 15 24  1  0  0  0
 16 31  1  0  0  0
 18 19  1  0  0  0
 18 32  1  0  0  0
 18 33  1  0  0  0
 19 34  1  0  0  0
 19 35  1  0  0  0
 20 36  1  0  0  0
 21 37  1  0  0  0
 21 38  1  0  0  0
 21 39  1  0  0  0
 22 40  1  0  0  0
 22 41  1  0  0  0
 22 42  1  0  0  0
 23 43  1  0  0  0
 23 44  1  0  0  0
 23 45  1  0  0  0
 24 46  1  0  0  0
 24 47  1  0  0  0
 24 48  1  0  0  0
 25 49  1  0  0  0
 25 50  1  0  0  0
 25 51  1  0  0  0
 26 52  1  0  0  0
 26 53  1  0  0  0
 26 54  1  0  0  0
M  END
> <s_m_entry_id>
30969

> <s_m_entry_name>
dock_pv.182

> <s_m_Source_Path>
/home/csk/Desktop/cluster/DUD-E-result/rxra

> <s_m_Source_File>
dock_pv.maegz

> <i_m_Source_File_Index>
182

> <chembl_id>
CHEMBL316336

> <chembl_pref_name>
None

> <i_lp_mmshare_version>
53161

> <r_lp_tautomer_probability>
1

> <s_lp_Force_Field>
OPLS_2005

> <r_lp_Energy>
27.822957

> <b_lp_Chiralities_Consistent>
1

> <s_lp_Variant>
CHEMBL2061_lig282-1

> <s_i_glide_gridfile>
glide-grid_1mv9

> <i_i_glide_lignum>
327

> <i_i_glide_rotatable_bonds>
4

> <r_i_docking_score>
-10.5847457686613

> <r_i_glide_ligand_efficiency>
-0.407105606486971

> <r_i_glide_ligand_efficiency_sa>
-1.20604875733444

> <r_i_glide_ligand_efficiency_ln>
-2.48579281238641

> <r_i_glide_gscore>
-10.5847457686613

> <r_i_glide_lipo>
-6.45209543318617

> <r_i_glide_hbond>
-0.168819859156843

> <r_i_glide_metal>
0

> <r_i_glide_rewards>
-1.68569501723198

> <r_i_glide_evdw>
-39.698616027832

> <r_i_glide_ecoul>
-4.75087070465088

> <r_i_glide_erotb>
0.425667319505131

> <r_i_glide_esite>
-0.00624137150215974

> <r_i_glide_emodel>
-62.7302934965792

> <r_i_glide_energy>
-44.4494867324829

> <r_i_glide_einternal>
4.54328632354736

> <i_i_glide_confnum>
47

> <i_i_glide_posenum>
292

> <r_i_glide_eff_state_penalty>
0

> <s_user_duplicate_titles>
CHEMBL2061_lig282,155587

> <i_f3d_flags>
0

> <s_m_subgroup_title>
dock_pv

> <s_m_subgroupid>
dock_pv

> <b_m_subgroup_collapsed>
1

$$$$
CHEMBL2061_lig377
                    3D
 Schrodinger Suite 2021-1.
 54 56  0  0  1  0            999 V2000
   62.9290   46.4746   32.7855 C   0  0  0  0  0  0
   64.0661   45.6822   32.4581 C   0  0  0  0  0  0
   62.0463   46.8259   31.7428 C   0  0  0  0  0  0
   62.1900   46.3730   30.4240 C   0  0  0  0  0  0
   61.2027   46.6885   29.3435 C   0  0  0  0  0  0
   62.6361   46.9518   34.2375 C   0  0  0  0  0  0
   65.0958   45.2002   33.5129 C   0  0  0  0  0  0
   55.5580   45.2771   29.9748 C   0  0  0  0  0  0
   64.2224   45.2665   31.1265 C   0  0  0  0  0  0
   61.5585   47.2351   28.2332 N   0  0  0  0  0  0
   59.7631   46.2812   29.4834 C   0  0  0  0  0  0
   57.0259   45.5531   29.7683 C   0  0  0  0  0  0
   63.3111   45.5958   30.1353 C   0  0  0  0  0  0
   63.4987   46.1748   35.2679 C   0  0  0  0  0  0
   64.9514   46.0036   34.8299 C   0  0  0  0  0  0
   55.1305   44.4776   30.8028 O   0  0  0  0  0  0
   57.9306   45.3272   30.8051 C   0  0  0  0  0  0
   57.5039   46.0764   28.5633 C   0  0  0  0  0  0
   59.2578   45.7189   30.6659 C   0  0  0  0  0  0
   58.8455   46.4301   28.4269 C   0  0  0  0  0  0
   54.7394   46.0763   29.2344 O   0  0  0  0  0  0
   62.9228   47.5822   28.1761 O   0  0  0  0  0  0
   62.9814   48.4529   34.3561 C   0  0  0  0  0  0
   61.1611   46.6594   34.6151 C   0  0  0  0  0  0
   64.8305   43.6965   33.7917 C   0  0  0  0  0  0
   66.5416   45.4646   33.0226 C   0  0  0  0  0  0
   63.1205   48.4798   27.1017 C   0  0  0  0  0  0
   61.2043   47.4597   31.9734 H   0  0  0  0  0  0
   65.0550   44.6408   30.8454 H   0  0  0  0  0  0
   63.4728   45.2203   29.1343 H   0  0  0  0  0  0
   63.0793   45.1879   35.4614 H   0  0  0  0  0  0
   63.4749   46.6801   36.2359 H   0  0  0  0  0  0
   65.5183   45.5259   35.6286 H   0  0  0  0  0  0
   65.3984   46.9916   34.7202 H   0  0  0  0  0  0
   57.5995   44.9287   31.7534 H   0  0  0  0  0  0
   56.8356   46.2177   27.7322 H   0  0  0  0  0  0
   59.8700   45.6770   31.5474 H   0  0  0  0  0  0
   59.1657   46.8382   27.4786 H   0  0  0  0  0  0
   55.2636   46.6920   28.7237 H   0  0  0  0  0  0
   62.7970   48.8199   35.3663 H   0  0  0  0  0  0
   64.0292   48.6519   34.1410 H   0  0  0  0  0  0
   62.3851   49.0614   33.6759 H   0  0  0  0  0  0
   60.9724   46.8491   35.6725 H   0  0  0  0  0  0
   60.4577   47.2770   34.0659 H   0  0  0  0  0  0
   60.8869   45.6253   34.4147 H   0  0  0  0  0  0
   65.5106   43.2858   34.5389 H   0  0  0  0  0  0
   63.8144   43.5130   34.1386 H   0  0  0  0  0  0
   64.9663   43.0958   32.8927 H   0  0  0  0  0  0
   67.2713   45.2079   33.7913 H   0  0  0  0  0  0
   66.8020   44.8766   32.1448 H   0  0  0  0  0  0
   66.6941   46.5148   32.7647 H   0  0  0  0  0  0
   64.1839   48.6967   27.0072 H   0  0  0  0  0  0
   62.7771   48.0796   26.1426 H   0  0  0  0  0  0
   62.6177   49.4246   27.3186 H   0  0  0  0  0  0
  1  2  2  0  0  0
  1  3  1  0  0  0
  1  6  1  0  0  0
  2  7  1  0  0  0
  2  9  1  0  0  0
  3  4  2  0  0  0
  3 28  1  0  0  0
  4  5  1  0  0  0
  4 13  1  0  0  0
  5 10  2  0  0  0
  5 11  1  0  0  0
  6 14  1  0  0  0
  6 23  1  0  0  0
  6 24  1  0  0  0
  7 25  1  0  0  0
  7 26  1  0  0  0
  7 15  1  0  0  0
  8 12  1  0  0  0
  8 16  2  0  0  0
  8 21  1  0  0  0
  9 13  2  0  0  0
  9 29  1  0  0  0
 10 22  1  0  0  0
 11 19  2  0  0  0
 11 20  1  0  0  0
 12 18  1  0  0  0
 12 17  2  0  0  0
 13 30  1  0  0  0
 14 15  1  0  0  0
 14 31  1  0  0  0
 14 32  1  0  0  0
 15 33  1  0  0  0
 15 34  1  0  0  0
 17 19  1  0  0  0
 17 35  1  0  0  0
 18 20  2  0  0  0
 18 36  1  0  0  0
 19 37  1  0  0  0
 20 38  1  0  0  0
 21 39  1  0  0  0
 22 27  1  0  0  0
 23 40  1  0  0  0
 23 41  1  0  0  0
 23 42  1  0  0  0
 24 43  1  0  0  0
 24 44  1  0  0  0
 24 45  1  0  0  0
 25 46  1  0  0  0
 25 47  1  0  0  0
 25 48  1  0  0  0
 26 49  1  0  0  0
 26 50  1  0  0  0
 26 51  1  0  0  0
 27 52  1  0  0  0
 27 53  1  0  0  0
 27 54  1  0  0  0
M  END
> <s_m_entry_id>
30971

> <s_m_entry_name>
dock_pv.184

> <s_m_Source_Path>
/home/csk/Desktop/cluster/DUD-E-result/rxra

> <s_m_Source_File>
dock_pv.maegz

> <i_m_Source_File_Index>
184

> <chembl_id>
CHEMBL164557

> <chembl_pref_name>
None

> <i_lp_mmshare_version>
53161

> <r_lp_tautomer_probability>
1

> <s_lp_Force_Field>
OPLS_2005

> <r_lp_Energy>
35.046433

> <b_lp_Chiralities_Consistent>
1

> <s_lp_Variant>
CHEMBL2061_lig377-1

> <s_i_glide_gridfile>
glide-grid_1mv9

> <i_i_glide_lignum>
437

> <i_i_glide_rotatable_bonds>
5

> <r_i_docking_score>
-10.5539713161307

> <r_i_glide_ligand_efficiency>
-0.390887826523361

> <r_i_glide_ligand_efficiency_sa>
-1.17266347828178

> <r_i_glide_ligand_efficiency_ln>
-2.45679052657958

> <r_i_glide_gscore>
-10.5539713161307

> <r_i_glide_lipo>
-5.91558064469044

> <r_i_glide_hbond>
0

> <r_i_glide_metal>
0

> <r_i_glide_rewards>
-2.53238614393585

> <r_i_glide_evdw>
-49.5453872680664

> <r_i_glide_ecoul>
-1.36551976203918

> <r_i_glide_erotb>
0.576092800204752

> <r_i_glide_esite>
0

> <r_i_glide_emodel>
-79.3260523112214

> <r_i_glide_energy>
-50.9109070301056

> <r_i_glide_einternal>
6.03212261199951

> <i_i_glide_confnum>
104

> <i_i_glide_posenum>
379

> <r_i_glide_eff_state_penalty>
0

> <s_user_duplicate_titles>
CHEMBL2061_lig377,272463

> <i_f3d_flags>
0

> <s_m_subgroup_title>
dock_pv

> <s_m_subgroupid>
dock_pv

> <b_m_subgroup_collapsed>
1

$$$$
CHEMBL2061_lig490
                    3D
 Schrodinger Suite 2021-1.
 56 58  0  0  1  0            999 V2000
   55.8239   45.4087   29.8733 C   0  0  0  0  0  0
   57.3217   45.5655   29.7160 C   0  0  0  0  0  0
   58.1686   45.3381   30.7991 C   0  0  0  0  0  0
   59.4951   45.7515   30.7367 C   0  0  0  0  0  0
   60.0346   46.3719   29.6044 C   0  0  0  0  0  0
   59.2097   46.4773   28.4790 C   0  0  0  0  0  0
   57.8794   46.0764   28.5400 C   0  0  0  0  0  0
   55.3309   44.8218   30.8419 O   0  0  0  0  0  0
   55.0959   46.0772   28.9596 N   0  0  0  0  0  0
   61.4120   46.9675   29.6188 C   0  0  0  0  0  0
   61.8207   47.8906   28.7203 C   0  0  0  0  0  0
   62.1885   46.9200   31.9856 C   0  0  0  0  0  0
   62.3798   46.5268   30.6591 C   0  0  0  0  0  0
   63.4798   45.7123   30.3628 C   0  0  0  0  0  0
   64.3279   45.3064   31.3888 C   0  0  0  0  0  0
   64.1342   45.6775   32.7264 C   0  0  0  0  0  0
   65.1034   45.1408   33.8066 C   0  0  0  0  0  0
   64.9972   45.9917   35.0920 C   0  0  0  0  0  0
   63.5541   46.2213   35.5341 C   0  0  0  0  0  0
   62.7093   46.9861   34.4800 C   0  0  0  0  0  0
   63.0129   46.4949   33.0405 C   0  0  0  0  0  0
   63.0867   48.4793   34.5492 C   0  0  0  0  0  0
   61.2249   46.7299   34.8510 C   0  0  0  0  0  0
   64.7111   43.6751   34.1139 C   0  0  0  0  0  0
   66.5778   45.2653   33.3509 C   0  0  0  0  0  0
   63.7907   45.2532   28.9462 C   0  0  0  0  0  0
   53.8304   46.5272   29.3390 O   0  0  0  0  0  0
   57.7860   44.9491   31.7350 H   0  0  0  0  0  0
   60.0724   45.6777   31.6413 H   0  0  0  0  0  0
   59.5711   46.9050   27.5551 H   0  0  0  0  0  0
   57.2566   46.2210   27.6845 H   0  0  0  0  0  0
   55.4693   46.5952   28.1775 H   0  0  0  0  0  0
   62.8222   48.2920   28.7585 H   0  0  0  0  0  0
   61.1813   48.2798   27.9421 H   0  0  0  0  0  0
   61.3550   47.5721   32.2019 H   0  0  0  0  0  0
   65.1539   44.6593   31.1371 H   0  0  0  0  0  0
   65.5557   45.5277   35.9033 H   0  0  0  0  0  0
   65.4704   46.9609   34.9385 H   0  0  0  0  0  0
   63.1062   45.2549   35.7650 H   0  0  0  0  0  0
   63.5618   46.7590   36.4841 H   0  0  0  0  0  0
   62.9679   48.8769   35.5581 H   0  0  0  0  0  0
   64.1227   48.6524   34.2556 H   0  0  0  0  0  0
   62.4607   49.0818   33.8905 H   0  0  0  0  0  0
   61.0184   47.0346   35.8780 H   0  0  0  0  0  0
   60.5297   47.2769   34.2188 H   0  0  0  0  0  0
   60.9633   45.6772   34.7639 H   0  0  0  0  0  0
   65.3004   43.2772   34.9391 H   0  0  0  0  0  0
   63.6594   43.5646   34.3754 H   0  0  0  0  0  0
   64.8884   43.0274   33.2532 H   0  0  0  0  0  0
   67.2685   45.0179   34.1593 H   0  0  0  0  0  0
   66.8079   44.5848   32.5333 H   0  0  0  0  0  0
   66.8115   46.2778   33.0168 H   0  0  0  0  0  0
   64.8102   44.8806   28.8943 H   0  0  0  0  0  0
   63.1005   44.4700   28.6356 H   0  0  0  0  0  0
   63.7264   46.0758   28.2363 H   0  0  0  0  0  0
   53.9983   47.4558   29.5242 H   0  0  0  0  0  0
  1  2  1  0  0  0
  1  8  2  0  0  0
  1  9  1  0  0  0
  2  3  1  0  0  0
  2  7  2  0  0  0
  3  4  2  0  0  0
  3 28  1  0  0  0
  4  5  1  0  0  0
  4 29  1  0  0  0
  5  6  2  0  0  0
  5 10  1  0  0  0
  6  7  1  0  0  0
  6 30  1  0  0  0
  7 31  1  0  0  0
  9 27  1  0  0  0
  9 32  1  0  0  0
 10 11  2  0  0  0
 10 13  1  0  0  0
 11 33  1  0  0  0
 11 34  1  0  0  0
 12 13  1  0  0  0
 12 21  2  0  0  0
 12 35  1  0  0  0
 13 14  2  0  0  0
 14 15  1  0  0  0
 14 26  1  0  0  0
 15 16  2  0  0  0
 15 36  1  0  0  0
 16 17  1  0  0  0
 16 21  1  0  0  0
 17 18  1  0  0  0
 17 24  1  0  0  0
 17 25  1  0  0  0
 18 19  1  0  0  0
 18 37  1  0  0  0
 18 38  1  0  0  0
 19 20  1  0  0  0
 19 39  1  0  0  0
 19 40  1  0  0  0
 20 21  1  0  0  0
 20 22  1  0  0  0
 20 23  1  0  0  0
 22 41  1  0  0  0
 22 42  1  0  0  0
 22 43  1  0  0  0
 23 44  1  0  0  0
 23 45  1  0  0  0
 23 46  1  0  0  0
 24 47  1  0  0  0
 24 48  1  0  0  0
 24 49  1  0  0  0
 25 50  1  0  0  0
 25 51  1  0  0  0
 25 52  1  0  0  0
 26 53  1  0  0  0
 26 54  1  0  0  0
 26 55  1  0  0  0
 27 56  1  0  0  0
M  END
> <s_m_entry_id>
30972

> <s_m_entry_name>
dock_pv.185

> <s_m_Source_Path>
/home/csk/Desktop/cluster/DUD-E-result/rxra

> <s_m_Source_File>
dock_pv.maegz

> <i_m_Source_File_Index>
185

> <chembl_id>
CHEMBL2398772

> <chembl_pref_name>
None

> <i_lp_mmshare_version>
53161

> <r_lp_tautomer_probability>
1

> <s_lp_Force_Field>
OPLS_2005

> <r_lp_Energy>
38.473935

> <b_lp_Chiralities_Consistent>
1

> <s_lp_Variant>
CHEMBL2061_lig490-1

> <s_i_glide_gridfile>
glide-grid_1mv9

> <i_i_glide_lignum>
579

> <i_i_glide_rotatable_bonds>
5

> <r_i_docking_score>
-10.5475683948131

> <r_i_glide_ligand_efficiency>
-0.390650681289372

> <r_i_glide_ligand_efficiency_sa>
-1.1719520425806

> <r_i_glide_ligand_efficiency_ln>
-2.45530003205723

> <r_i_glide_gscore>
-10.5475683948131

> <r_i_glide_lipo>
-6.51745765930525

> <r_i_glide_hbond>
0

> <r_i_glide_metal>
0

> <r_i_glide_rewards>
-2.1495033175775

> <r_i_glide_evdw>
-44.5290260314941

> <r_i_glide_ecoul>
-1.57227337360382

> <r_i_glide_erotb>
0.58168488968497

> <r_i_glide_esite>
0

> <r_i_glide_emodel>
-69.920260167885

> <r_i_glide_energy>
-46.101299405098

> <r_i_glide_einternal>
4.80262804031372

> <i_i_glide_confnum>
33

> <i_i_glide_posenum>
113

> <r_i_glide_eff_state_penalty>
0

> <s_user_duplicate_titles>
CHEMBL2061_lig490

> <i_f3d_flags>
0

> <s_m_subgroup_title>
dock_pv

> <s_m_subgroupid>
dock_pv

> <b_m_subgroup_collapsed>
1

$$$$
CHEMBL2061_lig457
                    3D
 Schrodinger Suite 2021-1.
 59 62  0  0  1  0            999 V2000
   63.6795   46.9669   35.4679 C   0  0  0  0  0  0
   64.7638   45.9079   35.1793 C   0  0  0  0  0  0
   65.2354   45.8422   33.6998 C   0  0  0  0  0  0
   62.7645   47.1008   34.4704 N   0  0  0  0  0  0
   63.6465   47.5735   36.5352 O   0  0  0  0  0  0
   66.0668   44.5401   33.5655 C   0  0  0  0  0  0
   66.0608   47.0969   33.3355 C   0  0  0  0  0  0
   62.8431   46.5270   33.1681 C   0  0  0  0  0  0
   64.0085   45.8319   32.7746 C   0  0  0  0  0  0
   64.0413   45.2206   31.5145 C   0  0  0  0  0  0
   62.9819   45.3154   30.6231 C   0  0  0  0  0  0
   61.8586   46.0816   30.9702 C   0  0  0  0  0  0
   61.8016   46.6780   32.2330 C   0  0  0  0  0  0
   60.7458   46.2767   30.0141 C   0  0  0  0  0  0
   59.5209   45.6060   30.1770 C   0  0  0  0  0  0
   58.5226   45.6818   29.2370 C   0  0  0  0  0  0
   58.7313   46.4772   28.1290 C   0  0  0  0  0  0
   59.9216   47.1587   27.9206 C   0  0  0  0  0  0
   60.9486   47.0547   28.8599 C   0  0  0  0  0  0
   57.3403   44.7226   29.3145 C   0  0  2  0  0  0
   62.1719   47.6586   28.6606 O   0  0  0  0  0  0
   61.5653   47.8886   34.8302 C   0  0  0  0  0  0
   63.0580   44.5243   29.3191 C   0  0  0  0  0  0
   55.9727   45.2918   28.9343 C   0  0  0  0  0  0
   56.1783   44.6537   30.2732 C   0  0  2  0  0  0
   56.3363   45.4609   31.5418 C   0  0  0  0  0  0
   55.1516   45.6746   32.1222 O   0  0  0  0  0  0
   57.3969   45.6770   32.1108 O   0  0  0  0  0  0
   62.6556   47.7163   27.3187 C   0  0  0  0  0  0
   64.1468   48.0333   27.3223 C   0  0  0  0  0  0
   64.6830   47.9421   26.1129 F   0  0  0  0  0  0
   64.3481   49.2769   27.7384 F   0  0  0  0  0  0
   64.8039   47.1868   28.1113 F   0  0  0  0  0  0
   65.6091   46.0770   35.8482 H   0  0  0  0  0  0
   64.3214   44.9577   35.4835 H   0  0  0  0  0  0
   66.8500   44.4963   34.3237 H   0  0  0  0  0  0
   65.4499   43.6478   33.6748 H   0  0  0  0  0  0
   66.5811   44.4806   32.6061 H   0  0  0  0  0  0
   67.0989   46.9956   33.6500 H   0  0  0  0  0  0
   66.0501   47.2508   32.2550 H   0  0  0  0  0  0
   65.6655   48.0103   33.7812 H   0  0  0  0  0  0
   64.9125   44.6680   31.2011 H   0  0  0  0  0  0
   60.9168   47.2497   32.4649 H   0  0  0  0  0  0
   59.2415   44.9086   30.9407 H   0  0  0  0  0  0
   57.9939   46.4758   27.3550 H   0  0  0  0  0  0
   60.0350   47.7157   26.9974 H   0  0  0  0  0  0
   57.6585   43.6807   29.3116 H   0  0  0  0  0  0
   61.4439   48.0508   35.9038 H   0  0  0  0  0  0
   61.5874   48.8731   34.3714 H   0  0  0  0  0  0
   60.6555   47.3709   34.5275 H   0  0  0  0  0  0
   63.6258   43.6033   29.4609 H   0  0  0  0  0  0
   62.0702   44.2138   28.9761 H   0  0  0  0  0  0
   63.5338   45.1058   28.5309 H   0  0  0  0  0  0
   55.3813   44.7739   28.1788 H   0  0  0  0  0  0
   55.8434   46.3739   28.8759 H   0  0  0  0  0  0
   55.7250   43.6788   30.4481 H   0  0  0  0  0  0
   55.3223   46.0953   32.9691 H   0  0  0  0  0  0
   62.5093   46.7512   26.8272 H   0  0  0  0  0  0
   62.1192   48.4718   26.7518 H   0  0  0  0  0  0
  1  5  2  0  0  0
  1  2  1  0  0  0
  1  4  1  0  0  0
  2  3  1  0  0  0
  2 34  1  0  0  0
  2 35  1  0  0  0
  3  9  1  0  0  0
  3  6  1  0  0  0
  3  7  1  0  0  0
  4  8  1  0  0  0
  4 22  1  0  0  0
  6 36  1  0  0  0
  6 37  1  0  0  0
  6 38  1  0  0  0
  7 39  1  0  0  0
  7 40  1  0  0  0
  7 41  1  0  0  0
  8  9  2  0  0  0
  8 13  1  0  0  0
  9 10  1  0  0  0
 10 11  2  0  0  0
 10 42  1  0  0  0
 11 23  1  0  0  0
 11 12  1  0  0  0
 12 14  1  0  0  0
 12 13  2  0  0  0
 13 43  1  0  0  0
 14 19  1  0  0  0
 14 15  2  0  0  0
 15 16  1  0  0  0
 15 44  1  0  0  0
 16 17  2  0  0  0
 16 20  1  0  0  0
 17 18  1  0  0  0
 17 45  1  0  0  0
 18 19  2  0  0  0
 18 46  1  0  0  0
 19 21  1  0  0  0
 20 24  1  0  0  0
 20 25  1  0  0  0
 20 47  1  0  0  0
 21 29  1  0  0  0
 22 48  1  0  0  0
 22 49  1  0  0  0
 22 50  1  0  0  0
 23 51  1  0  0  0
 23 52  1  0  0  0
 23 53  1  0  0  0
 24 25  1  0  0  0
 24 54  1  0  0  0
 24 55  1  0  0  0
 25 26  1  0  0  0
 25 56  1  0  0  0
 26 27  1  0  0  0
 26 28  2  0  0  0
 27 57  1  0  0  0
 29 30  1  0  0  0
 29 58  1  0  0  0
 29 59  1  0  0  0
 30 31  1  0  0  0
 30 32  1  0  0  0
 30 33  1  0  0  0
M  END
> <s_m_entry_id>
30973

> <s_m_entry_name>
dock_pv.186

> <s_m_Source_Path>
/home/csk/Desktop/cluster/DUD-E-result/rxra

> <s_m_Source_File>
dock_pv.maegz

> <i_m_Source_File_Index>
186

> <chembl_id>
CHEMBL247400

> <chembl_pref_name>
None

> <i_lp_mmshare_version>
53161

> <r_lp_tautomer_probability>
1

> <s_lp_Force_Field>
OPLS_2005

> <r_lp_Energy>
45.351029

> <b_lp_Chiralities_Consistent>
1

> <s_lp_Variant>
CHEMBL2061_lig457-3

> <s_i_glide_gridfile>
glide-grid_1mv9

> <i_i_glide_lignum>
535

> <i_i_glide_rotatable_bonds>
7

> <r_i_docking_score>
-10.5441630649355

> <r_i_glide_ligand_efficiency>
-0.319520092876833

> <r_i_glide_ligand_efficiency_sa>
-1.02487166583141

> <r_i_glide_ligand_efficiency_ln>
-2.34496727088715

> <r_i_glide_gscore>
-10.5441630649355

> <r_i_glide_lipo>
-6.49524049442551

> <r_i_glide_hbond>
0

> <r_i_glide_metal>
0

> <r_i_glide_rewards>
-2.85321927248653

> <r_i_glide_evdw>
-31.7582607269287

> <r_i_glide_ecoul>
-0.537142693996429

> <r_i_glide_erotb>
0.472781142422455

> <r_i_glide_esite>
0

> <r_i_glide_emodel>
-52.107810225543

> <r_i_glide_energy>
-32.2954034209251

> <r_i_glide_einternal>
12.55615234375

> <i_i_glide_confnum>
41

> <i_i_glide_posenum>
227

> <r_i_glide_eff_state_penalty>
0

> <s_user_duplicate_titles>
CHEMBL2061_lig457

> <i_f3d_flags>
0

> <s_m_subgroup_title>
dock_pv

> <s_m_subgroupid>
dock_pv

> <b_m_subgroup_collapsed>
1

$$$$
CHEMBL2061_lig229
                    3D
 Schrodinger Suite 2021-1.
 63 65  0  0  1  0            999 V2000
   65.6344   45.7763   33.8107 C   0  0  0  0  0  0
   65.6454   44.4765   32.9937 C   0  0  0  0  0  0
   64.8896   44.5834   31.6298 C   0  0  0  0  0  0
   64.1995   46.2113   34.1923 C   0  0  0  0  0  0
   63.3046   46.1966   32.9291 C   0  0  0  0  0  0
   63.6364   45.4872   31.7438 C   0  0  0  0  0  0
   62.7606   45.5676   30.6404 C   0  0  0  0  0  0
   61.5041   46.1833   30.6811 C   0  0  0  0  0  0
   61.2081   46.8290   31.8814 C   0  0  0  0  0  0
   62.0739   46.8543   32.9574 C   0  0  0  0  0  0
   64.2867   47.6385   34.7900 C   0  0  0  0  0  0
   63.6348   45.2247   35.2417 C   0  0  0  0  0  0
   64.4080   43.1525   31.2206 C   0  0  0  0  0  0
   60.5541   46.1147   29.6058 N   0  0  0  0  0  0
   59.1388   45.9998   29.8005 C   0  0  0  0  0  0
   58.5902   45.4972   30.9861 C   0  0  0  0  0  0
   57.2211   45.2771   31.0952 C   0  0  0  0  0  0
   56.3705   45.5682   30.0300 C   0  0  0  0  0  0
   56.9627   46.0770   28.8784 C   0  0  0  0  0  0
   58.2886   46.3280   28.7917 N   0  0  0  0  0  0
   54.8907   45.3464   30.1375 C   0  0  0  0  0  0
   54.4075   44.5519   30.9389 O   0  0  0  0  0  0
   54.1380   46.1608   29.3410 O   0  0  0  0  0  0
   65.8583   45.2330   30.6160 C   0  0  0  0  0  0
   61.1714   46.1783   27.8793 S   0  0  0  0  0  0
   61.7633   47.9515   27.6727 C   0  0  0  0  0  0
   62.2633   45.2183   27.7132 O   0  0  0  0  0  0
   60.0618   46.0770   26.9390 O   0  0  0  0  0  0
   63.1418   48.2194   28.2752 C   0  0  0  0  0  0
   64.3145   47.4710   27.6364 C   0  0  0  0  0  0
   64.5668   47.8856   26.1972 C   0  0  0  0  0  0
   66.1275   46.5600   33.2330 H   0  0  0  0  0  0
   66.2438   45.6522   34.7081 H   0  0  0  0  0  0
   66.6854   44.1845   32.8637 H   0  0  0  0  0  0
   65.2312   43.6703   33.5972 H   0  0  0  0  0  0
   63.0588   45.0242   29.7691 H   0  0  0  0  0  0
   60.2624   47.2770   32.0633 H   0  0  0  0  0  0
   61.7334   47.3515   33.8513 H   0  0  0  0  0  0
   64.8080   47.6093   35.7389 H   0  0  0  0  0  0
   64.8085   48.3363   34.1390 H   0  0  0  0  0  0
   63.3184   48.0747   35.0272 H   0  0  0  0  0  0
   64.2460   45.2193   36.1457 H   0  0  0  0  0  0
   62.6270   45.5062   35.5474 H   0  0  0  0  0  0
   63.6075   44.1983   34.8802 H   0  0  0  0  0  0
   65.2080   42.4798   30.9389 H   0  0  0  0  0  0
   63.8474   42.6708   32.0221 H   0  0  0  0  0  0
   63.7633   43.1429   30.3441 H   0  0  0  0  0  0
   59.1991   45.2772   31.8432 H   0  0  0  0  0  0
   56.8338   44.9304   32.0301 H   0  0  0  0  0  0
   56.3975   46.3053   27.9867 H   0  0  0  0  0  0
   54.6815   46.7688   28.8370 H   0  0  0  0  0  0
   66.7751   44.6530   30.5032 H   0  0  0  0  0  0
   65.4179   45.3151   29.6225 H   0  0  0  0  0  0
   66.1418   46.2355   30.9389 H   0  0  0  0  0  0
   61.7381   48.1502   26.6047 H   0  0  0  0  0  0
   61.0026   48.5810   28.1304 H   0  0  0  0  0  0
   63.3512   49.2770   28.1390 H   0  0  0  0  0  0
   63.1043   48.0303   29.3469 H   0  0  0  0  0  0
   65.2080   47.6769   28.1832 H   0  0  0  0  0  0
   64.2208   46.4019   27.7393 H   0  0  0  0  0  0
   65.3698   47.3081   25.7383 H   0  0  0  0  0  0
   63.6592   47.7476   25.6334 H   0  0  0  0  0  0
   64.8080   48.9425   26.1400 H   0  0  0  0  0  0
  1  2  1  0  0  0
  1  4  1  0  0  0
  1 32  1  0  0  0
  1 33  1  0  0  0
  2  3  1  0  0  0
  2 34  1  0  0  0
  2 35  1  0  0  0
  3  6  1  0  0  0
  3 24  1  0  0  0
  3 13  1  0  0  0
  4  5  1  0  0  0
  4 11  1  0  0  0
  4 12  1  0  0  0
  5 10  1  0  0  0
  5  6  2  0  0  0
  6  7  1  0  0  0
  7  8  2  0  0  0
  7 36  1  0  0  0
  8  9  1  0  0  0
  8 14  1  0  0  0
  9 10  2  0  0  0
  9 37  1  0  0  0
 10 38  1  0  0  0
 11 39  1  0  0  0
 11 40  1  0  0  0
 11 41  1  0  0  0
 12 42  1  0  0  0
 12 43  1  0  0  0
 12 44  1  0  0  0
 13 45  1  0  0  0
 13 46  1  0  0  0
 13 47  1  0  0  0
 14 15  1  0  0  0
 14 25  1  0  0  0
 15 16  2  0  0  0
 15 20  1  0  0  0
 16 17  1  0  0  0
 16 48  1  0  0  0
 17 18  2  0  0  0
 17 49  1  0  0  0
 18 19  1  0  0  0
 18 21  1  0  0  0
 19 20  2  0  0  0
 19 50  1  0  0  0
 21 22  2  0  0  0
 21 23  1  0  0  0
 23 51  1  0  0  0
 24 52  1  0  0  0
 24 53  1  0  0  0
 24 54  1  0  0  0
 25 26  1  0  0  0
 25 27  2  0  0  0
 25 28  2  0  0  0
 26 29  1  0  0  0
 26 55  1  0  0  0
 26 56  1  0  0  0
 29 30  1  0  0  0
 29 57  1  0  0  0
 29 58  1  0  0  0
 30 31  1  0  0  0
 30 59  1  0  0  0
 30 60  1  0  0  0
 31 61  1  0  0  0
 31 62  1  0  0  0
 31 63  1  0  0  0
M  END
> <s_m_entry_id>
30974

> <s_m_entry_name>
dock_pv.187

> <s_m_Source_Path>
/home/csk/Desktop/cluster/DUD-E-result/rxra

> <s_m_Source_File>
dock_pv.maegz

> <i_m_Source_File_Index>
187

> <chembl_id>
CHEMBL474610

> <chembl_pref_name>
None

> <i_lp_mmshare_version>
53161

> <r_lp_tautomer_probability>
1

> <s_lp_Force_Field>
OPLS_2005

> <r_lp_Energy>
29.494672

> <b_lp_Chiralities_Consistent>
1

> <s_lp_Variant>
CHEMBL2061_lig229-1

> <s_i_glide_gridfile>
glide-grid_1mv9

> <i_i_glide_lignum>
268

> <i_i_glide_rotatable_bonds>
8

> <r_i_docking_score>
-10.54006320526

> <r_i_glide_ligand_efficiency>
-0.340002038879354

> <r_i_glide_ligand_efficiency_sa>
-1.06807582548664

> <r_i_glide_ligand_efficiency_ln>
-2.37710726693083

> <r_i_glide_gscore>
-10.54006320526

> <r_i_glide_lipo>
-6.20105077104318

> <r_i_glide_hbond>
-0.32

> <r_i_glide_metal>
0

> <r_i_glide_rewards>
-2.04307781453482

> <r_i_glide_evdw>
-38.3563117980957

> <r_i_glide_ecoul>
-4.43508720397949

> <r_i_glide_erotb>
0.607144050819745

> <r_i_glide_esite>
0

> <r_i_glide_emodel>
-49.3860510627106

> <r_i_glide_energy>
-42.7913990020752

> <r_i_glide_einternal>
4.24309492111206

> <i_i_glide_confnum>
61

> <i_i_glide_posenum>
303

> <r_i_glide_eff_state_penalty>
0

> <s_user_duplicate_titles>
CHEMBL2061_lig229

> <i_f3d_flags>
0

> <s_m_subgroup_title>
dock_pv

> <s_m_subgroupid>
dock_pv

> <b_m_subgroup_collapsed>
1

$$$$
CHEMBL2061_lig307
                    3D
 Schrodinger Suite 2021-1.
 65 66  0  0  1  0            999 V2000
   62.7800   46.9619   32.1964 C   0  0  0  0  0  0
   63.6055   45.8743   28.2432 O   0  0  0  0  0  0
   63.8449   46.0726   31.9026 C   0  0  0  0  0  0
   53.6689   45.8448   29.7389 O   0  0  0  0  0  0
   62.0369   47.5036   31.1243 C   0  0  0  0  0  0
   54.9725   44.4817   30.9835 O   0  0  0  0  0  0
   62.4063   47.3396   33.6472 C   0  0  0  0  0  0
   64.1380   45.8312   30.5524 C   0  0  0  0  0  0
   64.6993   45.3827   32.9980 C   0  0  0  0  0  0
   63.3587   46.3203   29.5175 C   0  0  0  0  0  0
   62.3262   47.2128   29.7926 C   0  0  0  0  0  0
   63.5121   46.9258   34.6577 C   0  0  0  0  0  0
   64.0379   45.5204   34.4001 C   0  0  0  0  0  0
   61.5688   47.8163   28.6673 C   0  0  0  0  0  0
   62.2291   43.7751   28.4809 C   0  0  0  0  0  0
   62.2827   48.8745   33.7838 C   0  0  0  0  0  0
   61.0835   46.6150   34.0030 C   0  0  0  0  0  0
   64.7856   43.8655   32.7234 C   0  0  0  0  0  0
   66.0905   46.0683   33.0074 C   0  0  0  0  0  0
   60.2635   47.5761   28.4366 C   0  0  0  0  0  0
   62.3636   48.6718   27.7012 C   0  0  0  0  0  0
   59.4053   46.7319   29.2375 C   0  0  0  0  0  0
   58.2304   46.2784   28.7712 C   0  0  0  0  0  0
   57.2718   45.5437   29.5775 C   0  0  0  0  0  0
   55.9706   45.8301   29.3294 C   0  0  0  0  0  0
   57.7959   44.5344   30.5994 C   0  0  0  0  0  0
   54.7736   45.3858   30.0001 C   0  0  0  0  0  0
   62.5802   45.0493   27.6726 C   0  0  0  0  0  0
   63.3719   42.8773   28.9481 C   0  0  0  0  0  0
   61.2086   48.1637   31.3196 H   0  0  0  0  0  0
   55.9062   44.3080   31.0837 H   0  0  0  0  0  0
   64.9813   45.2105   30.2902 H   0  0  0  0  0  0
   63.1451   47.0031   35.6825 H   0  0  0  0  0  0
   64.3665   47.6058   34.6101 H   0  0  0  0  0  0
   63.2088   44.8183   34.5188 H   0  0  0  0  0  0
   64.7591   45.2516   35.1742 H   0  0  0  0  0  0
   61.6281   44.0632   29.3411 H   0  0  0  0  0  0
   61.6096   43.1516   27.8542 H   0  0  0  0  0  0
   61.5349   49.0840   34.5401 H   0  0  0  0  0  0
   63.2067   49.3662   34.0949 H   0  0  0  0  0  0
   61.9686   49.3972   32.8863 H   0  0  0  0  0  0
   60.7308   46.9038   34.9932 H   0  0  0  0  0  0
   60.2881   46.8561   33.2959 H   0  0  0  0  0  0
   61.1786   45.5353   34.0040 H   0  0  0  0  0  0
   65.4270   43.3568   33.4423 H   0  0  0  0  0  0
   63.8097   43.3856   32.7499 H   0  0  0  0  0  0
   65.2004   43.6780   31.7381 H   0  0  0  0  0  0
   66.7297   45.6707   33.7970 H   0  0  0  0  0  0
   66.6109   45.9014   32.0631 H   0  0  0  0  0  0
   66.0257   47.1497   33.1437 H   0  0  0  0  0  0
   59.8375   48.0485   27.5693 H   0  0  0  0  0  0
   62.0014   49.7024   27.7379 H   0  0  0  0  0  0
   63.4337   48.6755   27.9392 H   0  0  0  0  0  0
   62.2587   48.2895   26.6826 H   0  0  0  0  0  0
   59.7020   46.4809   30.2449 H   0  0  0  0  0  0
   57.9726   46.4770   27.7447 H   0  0  0  0  0  0
   55.7358   46.5317   28.5391 H   0  0  0  0  0  0
   58.8008   44.1981   30.3347 H   0  0  0  0  0  0
   57.7954   44.9452   31.6110 H   0  0  0  0  0  0
   57.2086   43.6227   30.5856 H   0  0  0  0  0  0
   61.6547   45.6030   27.5524 H   0  0  0  0  0  0
   62.8084   44.8952   26.6267 H   0  0  0  0  0  0
   62.9467   42.0913   29.5759 H   0  0  0  0  0  0
   63.8935   42.4018   28.1208 H   0  0  0  0  0  0
   64.1085   43.3939   29.5502 H   0  0  0  0  0  0
  1  3  2  0  0  0
  1  5  1  0  0  0
  1  7  1  0  0  0
  2 10  1  0  0  0
  2 28  1  0  0  0
  3  8  1  0  0  0
  3  9  1  0  0  0
  4 27  2  0  0  0
  5 11  2  0  0  0
  5 30  1  0  0  0
  6 27  1  0  0  0
  6 31  1  0  0  0
  7 12  1  0  0  0
  7 16  1  0  0  0
  7 17  1  0  0  0
  8 10  2  0  0  0
  8 32  1  0  0  0
  9 13  1  0  0  0
  9 18  1  0  0  0
  9 19  1  0  0  0
 10 11  1  0  0  0
 11 14  1  0  0  0
 12 13  1  0  0  0
 12 33  1  0  0  0
 12 34  1  0  0  0
 13 35  1  0  0  0
 13 36  1  0  0  0
 14 20  2  0  0  0
 14 21  1  0  0  0
 15 28  1  0  0  0
 15 29  1  0  0  0
 15 37  1  0  0  0
 15 38  1  0  0  0
 16 39  1  0  0  0
 16 40  1  0  0  0
 16 41  1  0  0  0
 17 42  1  0  0  0
 17 43  1  0  0  0
 17 44  1  0  0  0
 18 45  1  0  0  0
 18 46  1  0  0  0
 18 47  1  0  0  0
 19 48  1  0  0  0
 19 49  1  0  0  0
 19 50  1  0  0  0
 20 22  1  0  0  0
 20 51  1  0  0  0
 21 52  1  0  0  0
 21 53  1  0  0  0
 21 54  1  0  0  0
 22 23  2  0  0  0
 22 55  1  0  0  0
 23 24  1  0  0  0
 23 56  1  0  0  0
 24 25  2  0  0  0
 24 26  1  0  0  0
 25 27  1  0  0  0
 25 57  1  0  0  0
 26 58  1  0  0  0
 26 59  1  0  0  0
 26 60  1  0  0  0
 28 61  1  0  0  0
 28 62  1  0  0  0
 29 63  1  0  0  0
 29 64  1  0  0  0
 29 65  1  0  0  0
M  END
> <s_m_entry_id>
30977

> <s_m_entry_name>
dock_pv.190

> <s_m_Source_Path>
/home/csk/Desktop/cluster/DUD-E-result/rxra

> <s_m_Source_File>
dock_pv.maegz

> <i_m_Source_File_Index>
190

> <chembl_id>
CHEMBL109581

> <chembl_pref_name>
None

> <i_lp_mmshare_version>
53161

> <r_lp_tautomer_probability>
1

> <s_lp_Force_Field>
OPLS_2005

> <r_lp_Energy>
33.573567

> <b_lp_Chiralities_Consistent>
1

> <s_lp_Variant>
CHEMBL2061_lig307-1

> <s_i_glide_gridfile>
glide-grid_1mv9

> <i_i_glide_lignum>
355

> <i_i_glide_rotatable_bonds>
8

> <r_i_docking_score>
-10.5326805001661

> <r_i_glide_ligand_efficiency>
-0.363195879316072

> <r_i_glide_ligand_efficiency_sa>
-1.11585280979007

> <r_i_glide_ligand_efficiency_ln>
-2.41171674880534

> <r_i_glide_gscore>
-10.5326805001661

> <r_i_glide_lipo>
-6.68062762958227

> <r_i_glide_hbond>
-0.16006706027434

> <r_i_glide_metal>
0

> <r_i_glide_rewards>
-1.65007741718825

> <r_i_glide_evdw>
-43.9901123046875

> <r_i_glide_ecoul>
-3.92604684829712

> <r_i_glide_erotb>
0.7465042493577

> <r_i_glide_esite>
0

> <r_i_glide_emodel>
-57.4801269714544

> <r_i_glide_energy>
-47.9161591529846

> <r_i_glide_einternal>
11.9049634933472

> <i_i_glide_confnum>
164

> <i_i_glide_posenum>
26

> <r_i_glide_eff_state_penalty>
0

> <s_user_duplicate_titles>
CHEMBL2061_lig307,180945

> <i_f3d_flags>
0

> <s_m_subgroup_title>
dock_pv

> <s_m_subgroupid>
dock_pv

> <b_m_subgroup_collapsed>
1

$$$$
CHEMBL2061_lig362
                    3D
 Schrodinger Suite 2021-1.
 64 66  0  0  1  0            999 V2000
   62.9958   46.3487   32.8918 C   0  0  0  0  0  0
   64.0102   45.3660   32.7693 C   0  0  0  0  0  0
   62.3944   46.0339   30.5020 C   0  0  0  0  0  0
   62.2355   46.6587   31.7482 C   0  0  0  0  0  0
   64.1464   44.7169   31.5345 C   0  0  0  0  0  0
   63.3328   44.9853   30.4349 C   0  0  0  0  0  0
   61.4935   46.5117   29.3152 C   0  0  0  0  0  0
   64.9798   45.0135   33.9299 C   0  0  0  0  0  0
   62.6425   46.9929   34.2578 C   0  0  0  0  0  0
   60.1363   45.7933   29.4811 C   0  0  0  0  0  0
   56.4852   46.2553   29.2769 C   0  0  0  0  0  0
   55.1042   45.8241   29.3397 C   0  0  0  0  0  0
   58.8898   46.3063   29.3414 C   0  0  0  0  0  0
   57.6319   45.5914   29.5885 C   0  0  0  0  0  0
   64.4154   45.4747   35.2993 C   0  0  0  0  0  0
   63.8287   46.8780   35.2528 C   0  0  0  0  0  0
   54.1584   46.6105   29.3388 O   0  0  0  0  0  0
   54.9285   44.4777   29.3393 O   0  0  0  0  0  0
   63.4513   44.0283   29.2592 C   0  0  0  0  0  0
   65.1542   43.4857   34.0790 C   0  0  0  0  0  0
   62.4094   48.5024   34.1237 C   0  0  0  0  0  0
   61.3780   46.2893   34.8322 C   0  0  0  0  0  0
   66.3249   45.7341   33.6605 C   0  0  0  0  0  0
   62.0689   46.2966   27.8836 C   0  0  0  0  0  0
   61.3648   48.0687   29.2956 C   0  0  0  0  0  0
   57.6694   44.2038   30.2291 C   0  0  0  0  0  0
   61.5025   47.3883   26.9720 C   0  0  0  0  0  0
   61.3805   48.6032   27.8597 C   0  0  0  0  0  0
   61.4493   47.3909   31.8366 H   0  0  0  0  0  0
   64.8947   43.9488   31.4269 H   0  0  0  0  0  0
   60.2323   44.7486   29.7429 H   0  0  0  0  0  0
   56.5497   47.2745   28.9392 H   0  0  0  0  0  0
   58.8103   47.3347   29.0224 H   0  0  0  0  0  0
   65.1943   45.4318   36.0640 H   0  0  0  0  0  0
   63.6414   44.7898   35.6468 H   0  0  0  0  0  0
   64.6259   47.5733   34.9850 H   0  0  0  0  0  0
   63.5142   47.1767   36.2548 H   0  0  0  0  0  0
   55.7568   44.0231   29.1768 H   0  0  0  0  0  0
   63.9407   43.0933   29.5377 H   0  0  0  0  0  0
   62.4659   43.7390   28.8961 H   0  0  0  0  0  0
   64.0175   44.4819   28.4536 H   0  0  0  0  0  0
   65.8144   43.2770   34.9204 H   0  0  0  0  0  0
   64.2038   42.9805   34.2594 H   0  0  0  0  0  0
   65.6078   43.0149   33.2139 H   0  0  0  0  0  0
   62.1287   48.8769   35.1046 H   0  0  0  0  0  0
   63.2915   49.0408   33.7899 H   0  0  0  0  0  0
   61.6087   48.7512   33.4422 H   0  0  0  0  0  0
   60.6285   47.0123   35.1515 H   0  0  0  0  0  0
   60.8798   45.6529   34.1032 H   0  0  0  0  0  0
   61.5872   45.6785   35.7074 H   0  0  0  0  0  0
   67.0323   45.5893   34.4786 H   0  0  0  0  0  0
   66.8033   45.3499   32.7591 H   0  0  0  0  0  0
   66.1999   46.8084   33.5224 H   0  0  0  0  0  0
   63.1527   46.4243   27.8989 H   0  0  0  0  0  0
   61.8569   45.3108   27.4698 H   0  0  0  0  0  0
   60.4769   48.4287   29.7980 H   0  0  0  0  0  0
   62.2111   48.5051   29.8262 H   0  0  0  0  0  0
   58.4077   44.2143   31.0294 H   0  0  0  0  0  0
   56.7594   43.9007   30.7424 H   0  0  0  0  0  0
   58.0010   43.4531   29.5157 H   0  0  0  0  0  0
   62.1606   47.6324   26.1390 H   0  0  0  0  0  0
   60.5280   47.0959   26.5779 H   0  0  0  0  0  0
   62.2351   49.2683   27.7238 H   0  0  0  0  0  0
   60.4894   49.1836   27.6152 H   0  0  0  0  0  0
  1  2  2  0  0  0
  1  4  1  0  0  0
  1  9  1  0  0  0
  2  5  1  0  0  0
  2  8  1  0  0  0
  3  4  2  0  0  0
  3  6  1  0  0  0
  3  7  1  0  0  0
  4 29  1  0  0  0
  5  6  2  0  0  0
  5 30  1  0  0  0
  6 19  1  0  0  0
  7 10  1  0  0  0
  7 24  1  0  0  0
  7 25  1  0  0  0
  8 20  1  0  0  0
  8 23  1  0  0  0
  8 15  1  0  0  0
  9 16  1  0  0  0
  9 21  1  0  0  0
  9 22  1  0  0  0
 10 13  2  0  0  0
 10 31  1  0  0  0
 11 14  2  0  0  0
 11 12  1  0  0  0
 11 32  1  0  0  0
 12 17  2  0  0  0
 12 18  1  0  0  0
 13 14  1  0  0  0
 13 33  1  0  0  0
 14 26  1  0  0  0
 15 16  1  0  0  0
 15 34  1  0  0  0
 15 35  1  0  0  0
 16 36  1  0  0  0
 16 37  1  0  0  0
 18 38  1  0  0  0
 19 39  1  0  0  0
 19 40  1  0  0  0
 19 41  1  0  0  0
 20 42  1  0  0  0
 20 43  1  0  0  0
 20 44  1  0  0  0
 21 45  1  0  0  0
 21 46  1  0  0  0
 21 47  1  0  0  0
 22 48  1  0  0  0
 22 49  1  0  0  0
 22 50  1  0  0  0
 23 51  1  0  0  0
 23 52  1  0  0  0
 23 53  1  0  0  0
 24 27  1  0  0  0
 24 54  1  0  0  0
 24 55  1  0  0  0
 25 28  1  0  0  0
 25 56  1  0  0  0
 25 57  1  0  0  0
 26 58  1  0  0  0
 26 59  1  0  0  0
 26 60  1  0  0  0
 27 28  1  0  0  0
 27 61  1  0  0  0
 27 62  1  0  0  0
 28 63  1  0  0  0
 28 64  1  0  0  0
M  END
> <s_m_entry_id>
30978

> <s_m_entry_name>
dock_pv.191

> <s_m_Source_Path>
/home/csk/Desktop/cluster/DUD-E-result/rxra

> <s_m_Source_File>
dock_pv.maegz

> <i_m_Source_File_Index>
191

> <chembl_id>
CHEMBL92394

> <chembl_pref_name>
None

> <i_lp_mmshare_version>
53161

> <r_lp_tautomer_probability>
1

> <s_lp_Force_Field>
OPLS_2005

> <r_lp_Energy>
50.876226

> <b_lp_Chiralities_Consistent>
1

> <s_lp_Variant>
CHEMBL2061_lig362-1

> <s_i_glide_gridfile>
glide-grid_1mv9

> <i_i_glide_lignum>
422

> <i_i_glide_rotatable_bonds>
5

> <r_i_docking_score>
-10.5294850834441

> <r_i_glide_ligand_efficiency>
-0.376053038694433

> <r_i_glide_ligand_efficiency_sa>
-1.14191850887148

> <r_i_glide_ligand_efficiency_ln>
-2.43051431637476

> <r_i_glide_gscore>
-10.5294850834441

> <r_i_glide_lipo>
-6.62579680872098

> <r_i_glide_hbond>
-0.00524401978904162

> <r_i_glide_metal>
0

> <r_i_glide_rewards>
-1.88928197822705

> <r_i_glide_evdw>
-42.002742767334

> <r_i_glide_ecoul>
-2.96588587760925

> <r_i_glide_erotb>
0.535857743301027

> <r_i_glide_esite>
0

> <r_i_glide_emodel>
-58.9715926133502

> <r_i_glide_energy>
-44.9686286449432

> <r_i_glide_einternal>
10.1333408355713

> <i_i_glide_confnum>
264

> <i_i_glide_posenum>
97

> <r_i_glide_eff_state_penalty>
0

> <s_user_duplicate_titles>
CHEMBL2061_lig362

> <i_f3d_flags>
0

> <s_m_subgroup_title>
dock_pv

> <s_m_subgroupid>
dock_pv

> <b_m_subgroup_collapsed>
1

$$$$
CHEMBL2061_lig101
                    3D
 Schrodinger Suite 2021-1.
 58 58  0  0  1  0            999 V2000
   64.0185   45.8225   32.3719 C   0  0  0  0  0  0
   65.2389   44.9365   32.6837 C   0  0  0  0  0  0
   63.6211   46.1418   31.0625 C   0  0  0  0  0  0
   65.9645   45.3335   34.0017 C   0  0  0  0  0  0
   62.5727   47.0500   30.8186 C   0  0  0  0  0  0
   63.3219   46.3934   33.4288 C   0  0  0  0  0  0
   62.0069   47.7131   31.9196 C   0  0  0  0  0  0
   62.4075   47.4098   33.2288 C   0  0  0  0  0  0
   62.0697   47.2963   29.4290 C   0  0  0  0  0  0
   56.1575   45.8296   29.5173 C   0  0  0  0  0  0
   54.8637   45.4835   30.0528 C   0  0  0  0  0  0
   59.7458   46.4767   29.8411 C   0  0  0  0  0  0
   57.3622   45.8000   30.1456 C   0  0  0  0  0  0
   60.7974   47.0619   29.0353 C   0  0  0  0  0  0
   58.4948   46.3039   29.3745 C   0  0  0  0  0  0
   64.8081   43.6730   32.7228 F   0  0  0  0  0  0
   66.1202   45.0376   31.6860 F   0  0  0  0  0  0
   53.8376   46.0768   29.7390 O   0  0  0  0  0  0
   67.2081   44.8770   34.0735 F   0  0  0  0  0  0
   66.0233   46.6572   34.1389 F   0  0  0  0  0  0
   65.3288   44.8604   35.0725 F   0  0  0  0  0  0
   64.2332   45.5235   30.0094 O   0  0  0  0  0  0
   61.9583   48.2028   34.4555 C   0  0  0  0  0  0
   54.8785   44.4406   30.9230 O   0  0  0  0  0  0
   63.0554   47.8192   28.3926 C   0  0  0  0  0  0
   57.5598   45.3848   31.6070 C   0  0  0  0  0  0
   63.7622   44.2109   29.7859 C   0  0  0  0  0  0
   63.1323   48.5076   35.4204 C   0  0  0  0  0  0
   60.8169   47.5055   35.2074 C   0  0  0  0  0  0
   62.8583   44.2594   28.5589 C   0  0  0  0  0  0
   62.4488   42.8769   28.1389 C   0  0  0  0  0  0
   63.5594   46.1312   34.4440 H   0  0  0  0  0  0
   61.2607   48.4743   31.7477 H   0  0  0  0  0  0
   56.0877   46.1844   28.4982 H   0  0  0  0  0  0
   59.9881   46.1843   30.8513 H   0  0  0  0  0  0
   60.5417   47.3080   28.0135 H   0  0  0  0  0  0
   58.3175   46.5837   28.3450 H   0  0  0  0  0  0
   61.6081   49.1688   34.0966 H   0  0  0  0  0  0
   55.7692   44.0925   31.0035 H   0  0  0  0  0  0
   63.2138   48.8770   28.5390 H   0  0  0  0  0  0
   64.0162   47.3076   28.4256 H   0  0  0  0  0  0
   62.6746   47.7073   27.3766 H   0  0  0  0  0  0
   58.2405   46.0747   32.1041 H   0  0  0  0  0  0
   56.6582   45.4735   32.2079 H   0  0  0  0  0  0
   58.0075   44.3935   31.6837 H   0  0  0  0  0  0
   64.6219   43.5569   29.6599 H   0  0  0  0  0  0
   63.2098   43.7907   30.6251 H   0  0  0  0  0  0
   64.0031   48.8696   34.8736 H   0  0  0  0  0  0
   62.8699   49.2768   36.1391 H   0  0  0  0  0  0
   63.4421   47.6387   36.0019 H   0  0  0  0  0  0
   60.0060   47.2254   34.5380 H   0  0  0  0  0  0
   61.1574   46.5941   35.7012 H   0  0  0  0  0  0
   60.4087   48.1655   35.9726 H   0  0  0  0  0  0
   61.9409   44.7826   28.7983 H   0  0  0  0  0  0
   63.3222   44.8098   27.7428 H   0  0  0  0  0  0
   62.0080   42.8827   27.1464 H   0  0  0  0  0  0
   63.3046   42.2048   28.1272 H   0  0  0  0  0  0
   61.7365   42.4797   28.8629 H   0  0  0  0  0  0
  1  2  1  0  0  0
  1  3  2  0  0  0
  1  6  1  0  0  0
  2  4  1  0  0  0
  2 16  1  0  0  0
  2 17  1  0  0  0
  3  5  1  0  0  0
  3 22  1  0  0  0
  4 19  1  0  0  0
  4 20  1  0  0  0
  4 21  1  0  0  0
  5  9  1  0  0  0
  5  7  2  0  0  0
  6  8  2  0  0  0
  6 32  1  0  0  0
  7  8  1  0  0  0
  7 33  1  0  0  0
  8 23  1  0  0  0
  9 14  2  0  0  0
  9 25  1  0  0  0
 10 13  2  0  0  0
 10 11  1  0  0  0
 10 34  1  0  0  0
 11 18  2  0  0  0
 11 24  1  0  0  0
 12 14  1  0  0  0
 12 15  2  0  0  0
 12 35  1  0  0  0
 13 15  1  0  0  0
 13 26  1  0  0  0
 14 36  1  0  0  0
 15 37  1  0  0  0
 22 27  1  0  0  0
 23 28  1  0  0  0
 23 29  1  0  0  0
 23 38  1  0  0  0
 24 39  1  0  0  0
 25 40  1  0  0  0
 25 41  1  0  0  0
 25 42  1  0  0  0
 26 43  1  0  0  0
 26 44  1  0  0  0
 26 45  1  0  0  0
 27 30  1  0  0  0
 27 46  1  0  0  0
 27 47  1  0  0  0
 28 48  1  0  0  0
 28 49  1  0  0  0
 28 50  1  0  0  0
 29 51  1  0  0  0
 29 52  1  0  0  0
 29 53  1  0  0  0
 30 31  1  0  0  0
 30 54  1  0  0  0
 30 55  1  0  0  0
 31 56  1  0  0  0
 31 57  1  0  0  0
 31 58  1  0  0  0
M  END
> <s_m_entry_id>
30979

> <s_m_entry_name>
dock_pv.192

> <s_m_Source_Path>
/home/csk/Desktop/cluster/DUD-E-result/rxra

> <s_m_Source_File>
dock_pv.maegz

> <i_m_Source_File_Index>
192

> <chembl_id>
CHEMBL131122

> <chembl_pref_name>
None

> <i_lp_mmshare_version>
53161

> <r_lp_tautomer_probability>
1

> <s_lp_Force_Field>
OPLS_2005

> <r_lp_Energy>
23.145987

> <b_lp_Chiralities_Consistent>
1

> <s_lp_Variant>
CHEMBL2061_lig101-1

> <s_i_glide_gridfile>
glide-grid_1mv9

> <i_i_glide_lignum>
140

> <i_i_glide_rotatable_bonds>
11

> <r_i_docking_score>
-10.5226029607585

> <r_i_glide_ligand_efficiency>
-0.339438805185758

> <r_i_glide_ligand_efficiency_sa>
-1.06630649406083

> <r_i_glide_ligand_efficiency_ln>
-2.37316944670352

> <r_i_glide_gscore>
-10.5226029607585

> <r_i_glide_lipo>
-5.58479926421781

> <r_i_glide_hbond>
-0.173319546794198

> <r_i_glide_metal>
0

> <r_i_glide_rewards>
-2.84130409674022

> <r_i_glide_evdw>
-40.0936622619629

> <r_i_glide_ecoul>
-4.14314365386963

> <r_i_glide_erotb>
0.702974608172316

> <r_i_glide_esite>
0

> <r_i_glide_emodel>
-64.0203523936913

> <r_i_glide_energy>
-44.2368059158325

> <r_i_glide_einternal>
13.1435661315918

> <i_i_glide_confnum>
82

> <i_i_glide_posenum>
20

> <r_i_glide_eff_state_penalty>
0

> <s_user_duplicate_titles>
CHEMBL2061_lig101,217408

> <i_f3d_flags>
0

> <s_m_subgroup_title>
dock_pv

> <s_m_subgroupid>
dock_pv

> <b_m_subgroup_collapsed>
1

$$$$
CHEMBL2061_lig385
                    3D
 Schrodinger Suite 2021-1.
 51 53  0  0  1  0            999 V2000
   62.7650   46.4426   32.7920 C   0  0  0  0  0  0
   63.9161   45.7000   32.4075 C   0  0  0  0  0  0
   61.8326   46.7751   31.7932 C   0  0  0  0  0  0
   61.9257   46.3311   30.4684 C   0  0  0  0  0  0
   60.8892   46.6722   29.4651 C   0  0  0  0  0  0
   62.4927   46.8773   34.2592 C   0  0  0  0  0  0
   64.9951   45.2536   33.4246 C   0  0  0  0  0  0
   55.3528   44.9503   30.3052 C   0  0  0  0  0  0
   64.0373   45.3147   31.0608 C   0  0  0  0  0  0
   61.3486   47.4105   28.5174 N   0  0  0  0  0  0
   59.4742   46.1448   29.6222 C   0  0  0  0  0  0
   56.7913   45.2789   30.0311 C   0  0  0  0  0  0
   63.0703   45.6194   30.1108 C   0  0  0  0  0  0
   63.4511   46.1635   35.2500 C   0  0  0  0  0  0
   64.8844   46.0768   34.7313 C   0  0  0  0  0  0
   54.7917   45.2947   31.3384 O   0  0  0  0  0  0
   57.2228   45.6770   28.7655 C   0  0  0  0  0  0
   57.7060   45.2755   31.0788 C   0  0  0  0  0  0
   58.5453   46.0770   28.5636 C   0  0  0  0  0  0
   59.0159   45.6771   30.8661 C   0  0  0  0  0  0
   54.7250   44.2361   29.3390 O   0  0  0  0  0  0
   60.4121   48.0752   27.7113 O   0  0  0  0  0  0
   62.7136   48.3974   34.3946 C   0  0  0  0  0  0
   61.0537   46.4772   34.6702 C   0  0  0  0  0  0
   64.7869   43.7515   33.7403 C   0  0  0  0  0  0
   66.4080   45.5416   32.8740 C   0  0  0  0  0  0
   60.9872   47.3854   32.0710 H   0  0  0  0  0  0
   64.8885   44.7366   30.7357 H   0  0  0  0  0  0
   63.2118   45.2836   29.0926 H   0  0  0  0  0  0
   63.1053   45.1564   35.4760 H   0  0  0  0  0  0
   63.4502   46.6750   36.2130 H   0  0  0  0  0  0
   65.5287   45.6528   35.5035 H   0  0  0  0  0  0
   65.2592   47.0893   34.5721 H   0  0  0  0  0  0
   56.5432   45.6918   27.9241 H   0  0  0  0  0  0
   57.4135   44.9960   32.0800 H   0  0  0  0  0  0
   58.8198   46.3171   27.5483 H   0  0  0  0  0  0
   59.6397   45.6781   31.7414 H   0  0  0  0  0  0
   55.3169   43.9140   28.6526 H   0  0  0  0  0  0
   59.5809   47.8649   28.1430 H   0  0  0  0  0  0
   62.5411   48.7216   35.4217 H   0  0  0  0  0  0
   63.7274   48.7006   34.1382 H   0  0  0  0  0  0
   62.0208   48.9572   33.7614 H   0  0  0  0  0  0
   60.8972   46.5872   35.7441 H   0  0  0  0  0  0
   60.3040   47.1010   34.1899 H   0  0  0  0  0  0
   60.8143   45.4467   34.4052 H   0  0  0  0  0  0
   65.4848   43.4066   34.5037 H   0  0  0  0  0  0
   63.7787   43.5307   34.0911 H   0  0  0  0  0  0
   64.9507   43.1332   32.8574 H   0  0  0  0  0  0
   67.1742   45.3647   33.6308 H   0  0  0  0  0  0
   66.6609   44.8988   32.0314 H   0  0  0  0  0  0
   66.5113   46.5756   32.5414 H   0  0  0  0  0  0
  1  2  2  0  0  0
  1  3  1  0  0  0
  1  6  1  0  0  0
  2  7  1  0  0  0
  2  9  1  0  0  0
  3  4  2  0  0  0
  3 27  1  0  0  0
  4  5  1  0  0  0
  4 13  1  0  0  0
  5 10  2  0  0  0
  5 11  1  0  0  0
  6 14  1  0  0  0
  6 23  1  0  0  0
  6 24  1  0  0  0
  7 25  1  0  0  0
  7 26  1  0  0  0
  7 15  1  0  0  0
  8 12  1  0  0  0
  8 16  2  0  0  0
  8 21  1  0  0  0
  9 13  2  0  0  0
  9 28  1  0  0  0
 10 22  1  0  0  0
 11 19  2  0  0  0
 11 20  1  0  0  0
 12 18  1  0  0  0
 12 17  2  0  0  0
 13 29  1  0  0  0
 14 15  1  0  0  0
 14 30  1  0  0  0
 14 31  1  0  0  0
 15 32  1  0  0  0
 15 33  1  0  0  0
 17 19  1  0  0  0
 17 34  1  0  0  0
 18 20  2  0  0  0
 18 35  1  0  0  0
 19 36  1  0  0  0
 20 37  1  0  0  0
 21 38  1  0  0  0
 22 39  1  0  0  0
 23 40  1  0  0  0
 23 41  1  0  0  0
 23 42  1  0  0  0
 24 43  1  0  0  0
 24 44  1  0  0  0
 24 45  1  0  0  0
 25 46  1  0  0  0
 25 47  1  0  0  0
 25 48  1  0  0  0
 26 49  1  0  0  0
 26 50  1  0  0  0
 26 51  1  0  0  0
M  END
> <s_m_entry_id>
30980

> <s_m_entry_name>
dock_pv.193

> <s_m_Source_Path>
/home/csk/Desktop/cluster/DUD-E-result/rxra

> <s_m_Source_File>
dock_pv.maegz

> <i_m_Source_File_Index>
193

> <chembl_id>
CHEMBL163625

> <chembl_pref_name>
None

> <i_lp_mmshare_version>
53161

> <r_lp_tautomer_probability>
1

> <s_lp_Force_Field>
OPLS_2005

> <r_lp_Energy>
36.230442

> <b_lp_Chiralities_Consistent>
1

> <s_lp_Variant>
CHEMBL2061_lig385-1

> <s_i_glide_gridfile>
glide-grid_1mv9

> <i_i_glide_lignum>
445

> <i_i_glide_rotatable_bonds>
5

> <r_i_docking_score>
-10.5215374974608

> <r_i_glide_ligand_efficiency>
-0.404674519133109

> <r_i_glide_ligand_efficiency_sa>
-1.19884667061449

> <r_i_glide_ligand_efficiency_ln>
-2.47094855729825

> <r_i_glide_gscore>
-10.5215374974608

> <r_i_glide_lipo>
-5.55589970516436

> <r_i_glide_hbond>
-0.0370658360873181

> <r_i_glide_metal>
0

> <r_i_glide_rewards>
-2.58070630074445

> <r_i_glide_evdw>
-48.5623092651367

> <r_i_glide_ecoul>
-3.58300018310547

> <r_i_glide_erotb>
0.617699835257951

> <r_i_glide_esite>
0

> <r_i_glide_emodel>
-65.0330262565743

> <r_i_glide_energy>
-52.1453094482422

> <r_i_glide_einternal>
22.9439697265625

> <i_i_glide_confnum>
57

> <i_i_glide_posenum>
355

> <r_i_glide_eff_state_penalty>
0

> <s_user_duplicate_titles>
CHEMBL2061_lig385

> <i_f3d_flags>
0

> <s_m_subgroup_title>
dock_pv

> <s_m_subgroupid>
dock_pv

> <b_m_subgroup_collapsed>
1

$$$$
CHEMBL2061_lig263
                    3D
 Schrodinger Suite 2021-1.
 58 59  0  0  1  0            999 V2000
   62.8251   46.4775   32.5855 C   0  0  0  0  0  0
   61.3630   47.0077   29.1020 C   0  0  0  0  0  0
   64.0081   45.7409   32.2989 C   0  0  0  0  0  0
   59.9249   46.7801   29.2754 C   0  0  0  0  0  0
   62.0082   46.8604   31.5075 C   0  0  0  0  0  0
   62.2847   46.5340   30.1775 C   0  0  0  0  0  0
   62.4110   46.8963   34.0227 C   0  0  0  0  0  0
   64.9921   45.2923   33.4079 C   0  0  0  0  0  0
   59.3851   45.6939   29.8603 C   0  0  0  0  0  0
   64.2548   45.3806   30.9615 C   0  0  0  0  0  0
   57.0364   45.8739   29.1956 C   0  0  0  0  0  0
   61.7895   47.6378   27.9700 C   0  0  0  0  0  0
   55.5993   45.7400   29.3270 C   0  0  0  0  0  0
   57.9658   45.4792   30.1057 C   0  0  0  0  0  0
   63.4135   45.7597   29.9218 C   0  0  0  0  0  0
   63.3180   46.2437   35.1021 C   0  0  0  0  0  0
   64.7867   46.1514   34.6831 C   0  0  0  0  0  0
   55.0057   44.9343   30.0430 O   0  0  0  0  0  0
   54.9511   46.6388   28.5368 O   0  0  0  0  0  0
   62.5534   48.4297   34.1686 C   0  0  0  0  0  0
   60.9657   46.4075   34.3048 C   0  0  0  0  0  0
   64.7233   43.8017   33.7323 C   0  0  0  0  0  0
   66.4576   45.5365   32.9699 C   0  0  0  0  0  0
   63.2356   47.9922   27.6368 C   0  0  0  0  0  0
   60.8296   48.0591   26.8637 C   0  0  0  0  0  0
   57.6182   44.8771   31.4524 C   0  0  0  0  0  0
   59.2507   47.5549   28.9384 H   0  0  0  0  0  0
   61.1319   47.4559   31.7113 H   0  0  0  0  0  0
   60.0608   44.9135   30.1798 H   0  0  0  0  0  0
   65.1174   44.7834   30.7095 H   0  0  0  0  0  0
   57.3646   46.3226   28.2703 H   0  0  0  0  0  0
   63.6471   45.4486   28.9137 H   0  0  0  0  0  0
   62.9684   45.2460   35.3514 H   0  0  0  0  0  0
   63.2436   46.7903   36.0443 H   0  0  0  0  0  0
   65.3746   45.7475   35.5092 H   0  0  0  0  0  0
   65.1700   47.1609   34.5250 H   0  0  0  0  0  0
   55.5662   47.1950   28.0570 H   0  0  0  0  0  0
   62.1581   48.7518   35.1312 H   0  0  0  0  0  0
   63.5921   48.7583   34.1333 H   0  0  0  0  0  0
   62.0083   48.9732   33.3964 H   0  0  0  0  0  0
   60.6732   46.6123   35.3344 H   0  0  0  0  0  0
   60.2241   46.8773   33.6641 H   0  0  0  0  0  0
   60.8612   45.3376   34.1396 H   0  0  0  0  0  0
   65.3483   43.4576   34.5565 H   0  0  0  0  0  0
   63.6850   43.6102   34.0026 H   0  0  0  0  0  0
   64.9463   43.1629   32.8777 H   0  0  0  0  0  0
   67.1562   45.3478   33.7871 H   0  0  0  0  0  0
   66.7581   44.8789   32.1556 H   0  0  0  0  0  0
   66.6144   46.5643   32.6382 H   0  0  0  0  0  0
   63.3372   49.0722   27.5273 H   0  0  0  0  0  0
   63.9541   47.6770   28.3862 H   0  0  0  0  0  0
   63.5324   47.5242   26.6969 H   0  0  0  0  0  0
   61.3157   48.0766   25.8901 H   0  0  0  0  0  0
   60.0079   47.3556   26.7801 H   0  0  0  0  0  0
   60.4111   49.0443   27.0736 H   0  0  0  0  0  0
   58.3708   45.1318   32.2006 H   0  0  0  0  0  0
   56.6872   45.2771   31.8525 H   0  0  0  0  0  0
   57.5575   43.7934   31.3433 H   0  0  0  0  0  0
  1  3  2  0  0  0
  1  5  1  0  0  0
  1  7  1  0  0  0
  2  6  1  0  0  0
  2  4  1  0  0  0
  2 12  2  0  0  0
  3  8  1  0  0  0
  3 10  1  0  0  0
  4  9  2  0  0  0
  4 27  1  0  0  0
  5  6  2  0  0  0
  5 28  1  0  0  0
  6 15  1  0  0  0
  7 16  1  0  0  0
  7 20  1  0  0  0
  7 21  1  0  0  0
  8 22  1  0  0  0
  8 23  1  0  0  0
  8 17  1  0  0  0
  9 14  1  0  0  0
  9 29  1  0  0  0
 10 15  2  0  0  0
 10 30  1  0  0  0
 11 14  2  0  0  0
 11 13  1  0  0  0
 11 31  1  0  0  0
 12 24  1  0  0  0
 12 25  1  0  0  0
 13 18  2  0  0  0
 13 19  1  0  0  0
 14 26  1  0  0  0
 15 32  1  0  0  0
 16 17  1  0  0  0
 16 33  1  0  0  0
 16 34  1  0  0  0
 17 35  1  0  0  0
 17 36  1  0  0  0
 19 37  1  0  0  0
 20 38  1  0  0  0
 20 39  1  0  0  0
 20 40  1  0  0  0
 21 41  1  0  0  0
 21 42  1  0  0  0
 21 43  1  0  0  0
 22 44  1  0  0  0
 22 45  1  0  0  0
 22 46  1  0  0  0
 23 47  1  0  0  0
 23 48  1  0  0  0
 23 49  1  0  0  0
 24 50  1  0  0  0
 24 51  1  0  0  0
 24 52  1  0  0  0
 25 53  1  0  0  0
 25 54  1  0  0  0
 25 55  1  0  0  0
 26 56  1  0  0  0
 26 57  1  0  0  0
 26 58  1  0  0  0
M  END
> <s_m_entry_id>
30981

> <s_m_entry_name>
dock_pv.194

> <s_m_Source_Path>
/home/csk/Desktop/cluster/DUD-E-result/rxra

> <s_m_Source_File>
dock_pv.maegz

> <i_m_Source_File_Index>
194

> <chembl_id>
CHEMBL414233

> <chembl_pref_name>
None

> <i_lp_mmshare_version>
53161

> <r_lp_tautomer_probability>
1

> <s_lp_Force_Field>
OPLS_2005

> <r_lp_Energy>
40.530603

> <b_lp_Chiralities_Consistent>
1

> <s_lp_Variant>
CHEMBL2061_lig263-1

> <s_i_glide_gridfile>
glide-grid_1mv9

> <i_i_glide_lignum>
306

> <i_i_glide_rotatable_bonds>
5

> <r_i_docking_score>
-10.5199179949188

> <r_i_glide_ligand_efficiency>
-0.404612230573802

> <r_i_glide_ligand_efficiency_sa>
-1.19866214100264

> <r_i_glide_ligand_efficiency_ln>
-2.47056822244028

> <r_i_glide_gscore>
-10.5199179949188

> <r_i_glide_lipo>
-6.3621836982251

> <r_i_glide_hbond>
0

> <r_i_glide_metal>
0

> <r_i_glide_rewards>
-2.2559437993958

> <r_i_glide_evdw>
-47.0613136291504

> <r_i_glide_ecoul>
-1.08727192878723

> <r_i_glide_erotb>
0.614365973477658

> <r_i_glide_esite>
0

> <r_i_glide_emodel>
-76.9850261953376

> <r_i_glide_energy>
-48.1485855579376

> <r_i_glide_einternal>
3.62754416465759

> <i_i_glide_confnum>
57

> <i_i_glide_posenum>
236

> <r_i_glide_eff_state_penalty>
0

> <s_user_duplicate_titles>
CHEMBL2061_lig263,187838

> <i_f3d_flags>
0

> <s_m_subgroup_title>
dock_pv

> <s_m_subgroupid>
dock_pv

> <b_m_subgroup_collapsed>
1

$$$$
CHEMBL2061_lig107
                    3D
 Schrodinger Suite 2021-1.
 58 60  0  0  1  0            999 V2000
   62.4536   46.3997   28.6190 C   0  0  2  0  0  0
   61.0594   46.0587   28.1185 C   0  0  1  0  0  0
   62.2069   45.0720   27.9399 C   0  0  0  0  0  0
   63.8045   45.7289   32.1647 C   0  0  0  0  0  0
   62.6899   46.5118   30.1213 C   0  0  0  0  0  0
   63.0228   46.6435   32.9244 C   0  0  0  0  0  0
   63.5787   45.6607   30.7763 C   0  0  0  0  0  0
   59.9337   45.6780   29.0690 C   0  0  0  0  0  0
   64.8860   44.8211   32.8050 C   0  0  0  0  0  0
   63.1004   46.7450   34.4670 C   0  0  0  0  0  0
   62.1611   47.5107   32.2352 C   0  0  0  0  0  0
   56.2755   45.8223   29.2626 C   0  0  0  0  0  0
   58.6361   45.9629   28.8480 C   0  0  0  0  0  0
   55.0187   45.5632   29.9265 C   0  0  0  0  0  0
   57.5322   45.6332   29.7462 C   0  0  0  0  0  0
   62.0073   47.4663   30.8591 C   0  0  0  0  0  0
   65.1757   45.2426   34.2730 C   0  0  0  0  0  0
   63.9035   45.5584   35.0640 C   0  0  0  0  0  0
   54.0080   46.2317   29.7387 O   0  0  0  0  0  0
   63.0499   47.5626   27.7988 C   0  0  0  0  0  0
   55.0438   44.4773   30.7439 O   0  0  0  0  0  0
   64.4143   43.3454   32.7923 C   0  0  0  0  0  0
   66.2150   45.0147   32.0422 C   0  0  0  0  0  0
   63.8195   48.0622   34.8431 C   0  0  0  0  0  0
   61.6682   46.6525   35.0561 C   0  0  0  0  0  0
   57.8336   45.1619   31.1717 C   0  0  0  0  0  0
   60.7240   46.5472   27.2014 H   0  0  0  0  0  0
   62.2195   44.1584   28.5347 H   0  0  0  0  0  0
   62.5996   44.9076   26.9375 H   0  0  0  0  0  0
   64.1213   44.9406   30.1823 H   0  0  0  0  0  0
   60.2360   45.1534   29.9630 H   0  0  0  0  0  0
   61.6113   48.2584   32.7803 H   0  0  0  0  0  0
   56.1314   46.2181   28.2668 H   0  0  0  0  0  0
   58.4048   46.4747   27.9238 H   0  0  0  0  0  0
   61.3289   48.1505   30.3707 H   0  0  0  0  0  0
   65.8222   46.1206   34.3018 H   0  0  0  0  0  0
   65.7433   44.4640   34.7863 H   0  0  0  0  0  0
   64.1576   45.7567   36.1077 H   0  0  0  0  0  0
   63.2884   44.6623   35.0954 H   0  0  0  0  0  0
   62.8616   47.4756   26.7278 H   0  0  0  0  0  0
   62.6663   48.5246   28.1409 H   0  0  0  0  0  0
   64.1302   47.6017   27.9376 H   0  0  0  0  0  0
   55.9163   44.0779   30.7234 H   0  0  0  0  0  0
   65.2082   42.6701   33.1082 H   0  0  0  0  0  0
   63.5911   43.1631   33.4734 H   0  0  0  0  0  0
   64.1032   43.0253   31.7975 H   0  0  0  0  0  0
   67.0160   44.4782   32.5481 H   0  0  0  0  0  0
   66.1716   44.6346   31.0202 H   0  0  0  0  0  0
   66.4965   46.0680   31.9896 H   0  0  0  0  0  0
   63.9503   48.1601   35.9224 H   0  0  0  0  0  0
   64.8069   48.1238   34.3855 H   0  0  0  0  0  0
   63.2571   48.9346   34.5077 H   0  0  0  0  0  0
   61.6899   46.5847   36.1389 H   0  0  0  0  0  0
   61.0638   47.5278   34.8190 H   0  0  0  0  0  0
   61.1348   45.7739   34.6867 H   0  0  0  0  0  0
   58.6999   45.6990   31.5611 H   0  0  0  0  0  0
   57.0440   45.4041   31.8812 H   0  0  0  0  0  0
   58.0633   44.0947   31.1954 H   0  0  0  0  0  0
  1  2  1  0  0  0
  1  3  1  0  0  0
  1  5  1  0  0  0
  1 20  1  0  0  0
  2  8  1  0  0  0
  2 27  1  0  0  0
  2  3  1  0  0  0
  3 28  1  0  0  0
  3 29  1  0  0  0
  4  7  1  0  0  0
  4  9  1  0  0  0
  4  6  2  0  0  0
  5  7  2  0  0  0
  5 16  1  0  0  0
  6 11  1  0  0  0
  6 10  1  0  0  0
  7 30  1  0  0  0
  8 13  2  0  0  0
  8 31  1  0  0  0
  9 17  1  0  0  0
  9 22  1  0  0  0
  9 23  1  0  0  0
 10 18  1  0  0  0
 10 24  1  0  0  0
 10 25  1  0  0  0
 11 16  2  0  0  0
 11 32  1  0  0  0
 12 15  2  0  0  0
 12 14  1  0  0  0
 12 33  1  0  0  0
 13 15  1  0  0  0
 13 34  1  0  0  0
 14 19  2  0  0  0
 14 21  1  0  0  0
 15 26  1  0  0  0
 16 35  1  0  0  0
 17 18  1  0  0  0
 17 36  1  0  0  0
 17 37  1  0  0  0
 18 38  1  0  0  0
 18 39  1  0  0  0
 20 40  1  0  0  0
 20 41  1  0  0  0
 20 42  1  0  0  0
 21 43  1  0  0  0
 22 44  1  0  0  0
 22 45  1  0  0  0
 22 46  1  0  0  0
 23 47  1  0  0  0
 23 48  1  0  0  0
 23 49  1  0  0  0
 24 50  1  0  0  0
 24 51  1  0  0  0
 24 52  1  0  0  0
 25 53  1  0  0  0
 25 54  1  0  0  0
 25 55  1  0  0  0
 26 56  1  0  0  0
 26 57  1  0  0  0
 26 58  1  0  0  0
M  END
> <s_m_entry_id>
30982

> <s_m_entry_name>
dock_pv.195

> <s_m_Source_Path>
/home/csk/Desktop/cluster/DUD-E-result/rxra

> <s_m_Source_File>
dock_pv.maegz

> <i_m_Source_File_Index>
195

> <chembl_id>
CHEMBL75133

> <chembl_pref_name>
IRX-4204

> <i_lp_mmshare_version>
53161

> <r_lp_tautomer_probability>
1

> <s_lp_Force_Field>
OPLS_2005

> <r_lp_Energy>
29.614954

> <b_lp_Chiralities_Consistent>
1

> <s_lp_Variant>
CHEMBL2061_lig107-1

> <s_i_glide_gridfile>
glide-grid_1mv9

> <i_i_glide_lignum>
146

> <i_i_glide_rotatable_bonds>
5

> <r_i_docking_score>
-10.5166493006935

> <r_i_glide_ligand_efficiency>
-0.404486511565134

> <r_i_glide_ligand_efficiency_sa>
-1.19828969893414

> <r_i_glide_ligand_efficiency_ln>
-2.46980058032692

> <r_i_glide_gscore>
-10.5166493006935

> <r_i_glide_lipo>
-6.19606784779621

> <r_i_glide_hbond>
-0.155728667407839

> <r_i_glide_metal>
0

> <r_i_glide_rewards>
-2.00736181917446

> <r_i_glide_evdw>
-45.0050888061523

> <r_i_glide_ecoul>
-3.47734999656677

> <r_i_glide_erotb>
0.614365973477658

> <r_i_glide_esite>
0

> <r_i_glide_emodel>
-79.6379668794345

> <r_i_glide_energy>
-48.4824388027191

> <r_i_glide_einternal>
1.74269890785217

> <i_i_glide_confnum>
72

> <i_i_glide_posenum>
148

> <r_i_glide_eff_state_penalty>
0

> <s_user_duplicate_titles>
CHEMBL2061_lig107,CHEMBL2061_lig324,CHEMBL2061_lig326,119754

> <i_f3d_flags>
0

> <s_m_subgroup_title>
dock_pv

> <s_m_subgroupid>
dock_pv

> <b_m_subgroup_collapsed>
1

$$$$
CHEMBL2061_lig587
                    3D
 Schrodinger Suite 2021-1.
 70 72  0  0  1  0            999 V2000
   64.3026   45.0329   31.5985 C   0  0  0  0  0  0
   63.5264   45.3691   30.4974 C   0  0  0  0  0  0
   62.4997   46.3087   30.6263 C   0  0  0  0  0  0
   62.3261   46.9153   31.8797 C   0  0  0  0  0  0
   61.5915   46.6796   29.4276 C   0  0  1  0  0  0
   60.0931   46.3055   29.5650 C   0  0  0  0  0  0
   59.2321   46.3955   28.4684 C   0  0  0  0  0  0
   57.8892   46.0533   28.5905 C   0  0  0  0  0  0
   57.3699   45.5551   29.7857 C   0  0  0  0  0  0
   58.2304   45.4089   30.8705 C   0  0  0  0  0  0
   59.5631   45.7921   30.7544 C   0  0  0  0  0  0
   55.9102   45.1887   29.8983 C   0  0  0  0  0  0
   55.3763   44.8326   30.9456 O   0  0  0  0  0  0
   55.2128   45.2870   28.7384 O   0  0  0  0  0  0
   64.0853   45.5670   32.8733 C   0  0  0  0  0  0
   63.0745   46.5553   33.0202 C   0  0  0  0  0  0
   62.7659   47.2161   34.3899 C   0  0  0  0  0  0
   63.8832   46.9274   35.4319 C   0  0  0  0  0  0
   64.3726   45.4910   35.4034 C   0  0  0  0  0  0
   64.9958   45.1103   34.0376 C   0  0  0  0  0  0
   62.7499   48.7369   34.2612 C   0  0  0  0  0  0
   61.4082   46.7215   34.9268 C   0  0  0  0  0  0
   65.1184   43.5730   34.0780 C   0  0  0  0  0  0
   66.3718   45.8010   33.8668 C   0  0  0  0  0  0
   63.8085   44.7662   29.2991 O   0  0  0  0  0  0
   63.3622   43.4226   29.1848 C   0  0  0  0  0  0
   62.1089   43.4179   28.3208 C   0  0  0  0  0  0
   61.7831   48.0766   29.1591 O   0  0  0  0  0  0
   61.6615   48.5798   27.8146 C   0  0  0  0  0  0
   62.8363   48.3267   26.8400 C   0  0  0  0  0  0
   63.9067   47.3115   27.2558 C   0  0  0  0  0  0
   65.2471   47.6193   26.5955 C   0  0  0  0  0  0
   65.1006   44.3235   31.4423 H   0  0  0  0  0  0
   61.5543   47.6623   31.9776 H   0  0  0  0  0  0
   61.9324   46.1251   28.5601 H   0  0  0  0  0  0
   59.5846   46.6870   27.4946 H   0  0  0  0  0  0
   57.2421   46.1417   27.7422 H   0  0  0  0  0  0
   57.8790   45.0233   31.8186 H   0  0  0  0  0  0
   60.1730   45.6791   31.6317 H   0  0  0  0  0  0
   54.3261   44.9541   28.8694 H   0  0  0  0  0  0
   63.5484   47.1752   36.4387 H   0  0  0  0  0  0
   64.7427   47.5766   35.2557 H   0  0  0  0  0  0
   63.5352   44.8346   35.6429 H   0  0  0  0  0  0
   65.0975   45.3427   36.2059 H   0  0  0  0  0  0
   62.8200   49.1620   35.2573 H   0  0  0  0  0  0
   63.6085   49.0995   33.7393 H   0  0  0  0  0  0
   61.8720   49.1256   33.7511 H   0  0  0  0  0  0
   61.1205   47.2648   35.8254 H   0  0  0  0  0  0
   60.6071   46.8682   34.2012 H   0  0  0  0  0  0
   61.4265   45.6770   35.1925 H   0  0  0  0  0  0
   65.7255   43.2809   34.9322 H   0  0  0  0  0  0
   64.1493   43.0796   34.1664 H   0  0  0  0  0  0
   65.6095   43.1644   33.2000 H   0  0  0  0  0  0
   67.0308   45.6019   34.7137 H   0  0  0  0  0  0
   66.8737   45.4390   32.9711 H   0  0  0  0  0  0
   66.2881   46.8821   33.7566 H   0  0  0  0  0  0
   64.1179   42.8236   28.6960 H   0  0  0  0  0  0
   63.2131   42.9173   30.1360 H   0  0  0  0  0  0
   62.0073   42.4789   27.7949 H   0  0  0  0  0  0
   61.2276   43.5879   28.9456 H   0  0  0  0  0  0
   62.1467   44.1739   27.5337 H   0  0  0  0  0  0
   60.7147   48.3344   27.3477 H   0  0  0  0  0  0
   61.6099   49.6626   27.9021 H   0  0  0  0  0  0
   62.4665   48.0772   25.8401 H   0  0  0  0  0  0
   63.3372   49.2753   26.6821 H   0  0  0  0  0  0
   64.0626   47.3194   28.3327 H   0  0  0  0  0  0
   63.5731   46.3080   27.0026 H   0  0  0  0  0  0
   66.0014   46.8738   26.8549 H   0  0  0  0  0  0
   65.1697   47.6640   25.5085 H   0  0  0  0  0  0
   65.6070   48.5894   26.9400 H   0  0  0  0  0  0
  1 15  1  0  0  0
  1  2  2  0  0  0
  1 33  1  0  0  0
  2  3  1  0  0  0
  2 25  1  0  0  0
  3  4  2  0  0  0
  3  5  1  0  0  0
  4 16  1  0  0  0
  4 34  1  0  0  0
  5  6  1  0  0  0
  5 28  1  0  0  0
  5 35  1  0  0  0
  6  7  2  0  0  0
  6 11  1  0  0  0
  7  8  1  0  0  0
  7 36  1  0  0  0
  8  9  2  0  0  0
  8 37  1  0  0  0
  9 10  1  0  0  0
  9 12  1  0  0  0
 10 11  2  0  0  0
 10 38  1  0  0  0
 11 39  1  0  0  0
 12 13  2  0  0  0
 12 14  1  0  0  0
 14 40  1  0  0  0
 15 16  2  0  0  0
 15 20  1  0  0  0
 16 17  1  0  0  0
 17 18  1  0  0  0
 17 21  1  0  0  0
 17 22  1  0  0  0
 18 19  1  0  0  0
 18 41  1  0  0  0
 18 42  1  0  0  0
 19 20  1  0  0  0
 19 43  1  0  0  0
 19 44  1  0  0  0
 20 23  1  0  0  0
 20 24  1  0  0  0
 21 45  1  0  0  0
 21 46  1  0  0  0
 21 47  1  0  0  0
 22 48  1  0  0  0
 22 49  1  0  0  0
 22 50  1  0  0  0
 23 51  1  0  0  0
 23 52  1  0  0  0
 23 53  1  0  0  0
 24 54  1  0  0  0
 24 55  1  0  0  0
 24 56  1  0  0  0
 25 26  1  0  0  0
 26 27  1  0  0  0
 26 57  1  0  0  0
 26 58  1  0  0  0
 27 59  1  0  0  0
 27 60  1  0  0  0
 27 61  1  0  0  0
 28 29  1  0  0  0
 29 30  1  0  0  0
 29 62  1  0  0  0
 29 63  1  0  0  0
 30 31  1  0  0  0
 30 64  1  0  0  0
 30 65  1  0  0  0
 31 32  1  0  0  0
 31 66  1  0  0  0
 31 67  1  0  0  0
 32 68  1  0  0  0
 32 69  1  0  0  0
 32 70  1  0  0  0
M  END
> <s_m_entry_id>
30984

> <s_m_entry_name>
dock_pv.197

> <s_m_Source_Path>
/home/csk/Desktop/cluster/DUD-E-result/rxra

> <s_m_Source_File>
dock_pv.maegz

> <i_m_Source_File_Index>
197

> <chembl_id>
CHEMBL3718230

> <chembl_pref_name>
None

> <i_lp_mmshare_version>
53161

> <r_lp_tautomer_probability>
1

> <s_lp_Force_Field>
OPLS_2005

> <r_lp_Energy>
31.109964

> <b_lp_Chiralities_Consistent>
1

> <s_lp_Variant>
CHEMBL2061_lig587-2

> <s_i_glide_gridfile>
glide-grid_1mv9

> <i_i_glide_lignum>
721

> <i_i_glide_rotatable_bonds>
10

> <r_i_docking_score>
-10.5103494208369

> <r_i_glide_ligand_efficiency>
-0.328448419401155

> <r_i_glide_ligand_efficiency_sa>
-1.04275873174473

> <r_i_glide_ligand_efficiency_ln>
-2.35355373662998

> <r_i_glide_gscore>
-10.5103494208369

> <r_i_glide_lipo>
-7.40849103198193

> <r_i_glide_hbond>
0

> <r_i_glide_metal>
0

> <r_i_glide_rewards>
-1.7537266846607

> <r_i_glide_evdw>
-42.8139915466309

> <r_i_glide_ecoul>
0.443847477436066

> <r_i_glide_erotb>
0.725990751521815

> <r_i_glide_esite>
0

> <r_i_glide_emodel>
-49.5391992490866

> <r_i_glide_energy>
-42.3701440691948

> <r_i_glide_einternal>
14.9349937438965

> <i_i_glide_confnum>
28

> <i_i_glide_posenum>
81

> <r_i_glide_eff_state_penalty>
0

> <s_user_duplicate_titles>
CHEMBL2061_lig587

> <i_f3d_flags>
0

> <s_m_subgroup_title>
dock_pv

> <s_m_subgroupid>
dock_pv

> <b_m_subgroup_collapsed>
1

$$$$
CHEMBL2061_lig275
                    3D
 Schrodinger Suite 2021-1.
 59 62  0  0  1  0            999 V2000
   61.1428   46.4752   29.4120 C   0  0  0  0  0  0
   63.5199   45.7686   32.4705 C   0  0  0  0  0  0
   63.1598   46.8094   33.3612 C   0  0  0  0  0  0
   61.8780   46.6185   30.7994 C   0  0  0  0  0  0
   62.8095   45.6751   31.2666 C   0  0  0  0  0  0
   64.7274   44.8197   32.7240 C   0  0  0  0  0  0
   63.7363   46.8738   34.7995 C   0  0  0  0  0  0
   55.3838   45.3761   29.9976 C   0  0  0  0  0  0
   62.0077   45.2490   28.3582 S   0  0  0  0  0  0
   61.0773   48.0530   28.4449 S   0  0  0  0  0  0
   62.2152   47.7485   32.9162 C   0  0  0  0  0  0
   59.6496   46.0408   29.5662 C   0  0  0  0  0  0
   56.8767   45.5022   29.8412 C   0  0  0  0  0  0
   61.6212   47.6809   31.6577 C   0  0  0  0  0  0
   65.1628   44.8375   34.2096 C   0  0  0  0  0  0
   65.1494   46.2358   34.8188 C   0  0  0  0  0  0
   54.5862   46.0429   29.3388 O   0  0  0  0  0  0
   59.0941   45.6770   30.8006 C   0  0  0  0  0  0
   58.7805   46.0772   28.4634 C   0  0  0  0  0  0
   57.4139   45.8527   28.6040 C   0  0  0  0  0  0
   57.7387   45.3779   30.9372 C   0  0  0  0  0  0
   54.9958   44.4768   30.9392 O   0  0  0  0  0  0
   63.6277   46.0821   28.3371 C   0  0  0  0  0  0
   62.7899   48.4229   28.0012 C   0  0  0  0  0  0
   63.6083   47.2781   27.3920 C   0  0  0  0  0  0
   64.4060   43.3336   32.4151 C   0  0  0  0  0  0
   65.8872   45.3581   31.8558 C   0  0  0  0  0  0
   63.8708   48.3173   35.2940 C   0  0  0  0  0  0
   62.8128   46.0803   35.7312 C   0  0  0  0  0  0
   63.0548   44.8282   30.6524 H   0  0  0  0  0  0
   61.9436   48.5773   33.5478 H   0  0  0  0  0  0
   60.9431   48.4613   31.3642 H   0  0  0  0  0  0
   66.1563   44.3985   34.3227 H   0  0  0  0  0  0
   64.5101   44.1980   34.8069 H   0  0  0  0  0  0
   65.8636   46.8721   34.2937 H   0  0  0  0  0  0
   65.5190   46.1566   35.8414 H   0  0  0  0  0  0
   59.6990   45.6770   31.6934 H   0  0  0  0  0  0
   59.1574   46.3347   27.4846 H   0  0  0  0  0  0
   56.7746   45.9601   27.7392 H   0  0  0  0  0  0
   57.3669   45.1623   31.9277 H   0  0  0  0  0  0
   55.7684   44.0130   31.2665 H   0  0  0  0  0  0
   63.9563   46.4599   29.2970 H   0  0  0  0  0  0
   64.3712   45.3221   28.1390 H   0  0  0  0  0  0
   63.2080   48.7561   28.9390 H   0  0  0  0  0  0
   62.7715   49.2825   27.3325 H   0  0  0  0  0  0
   64.6296   47.6144   27.2102 H   0  0  0  0  0  0
   63.2030   46.9952   26.4223 H   0  0  0  0  0  0
   65.2080   42.6645   32.7012 H   0  0  0  0  0  0
   63.5678   42.9705   32.9991 H   0  0  0  0  0  0
   64.2005   43.1449   31.3620 H   0  0  0  0  0  0
   66.8080   44.8199   32.0562 H   0  0  0  0  0  0
   65.6785   45.2437   30.7911 H   0  0  0  0  0  0
   66.0844   46.4163   32.0317 H   0  0  0  0  0  0
   64.4080   48.3830   36.2388 H   0  0  0  0  0  0
   64.4079   48.8771   34.5386 H   0  0  0  0  0  0
   62.9104   48.8029   35.4616 H   0  0  0  0  0  0
   63.3574   45.6310   36.5558 H   0  0  0  0  0  0
   61.9925   46.6831   36.1228 H   0  0  0  0  0  0
   62.3661   45.2770   35.1743 H   0  0  0  0  0  0
  1  4  1  0  0  0
  1  9  1  0  0  0
  1 10  1  0  0  0
  1 12  1  0  0  0
  2  5  1  0  0  0
  2  6  1  0  0  0
  2  3  2  0  0  0
  3 11  1  0  0  0
  3  7  1  0  0  0
  4  5  2  0  0  0
  4 14  1  0  0  0
  5 30  1  0  0  0
  6 15  1  0  0  0
  6 26  1  0  0  0
  6 27  1  0  0  0
  7 16  1  0  0  0
  7 28  1  0  0  0
  7 29  1  0  0  0
  8 13  1  0  0  0
  8 17  2  0  0  0
  8 22  1  0  0  0
  9 23  1  0  0  0
 10 24  1  0  0  0
 11 14  2  0  0  0
 11 31  1  0  0  0
 12 18  2  0  0  0
 12 19  1  0  0  0
 13 20  1  0  0  0
 13 21  2  0  0  0
 14 32  1  0  0  0
 15 16  1  0  0  0
 15 33  1  0  0  0
 15 34  1  0  0  0
 16 35  1  0  0  0
 16 36  1  0  0  0
 18 21  1  0  0  0
 18 37  1  0  0  0
 19 20  2  0  0  0
 19 38  1  0  0  0
 20 39  1  0  0  0
 21 40  1  0  0  0
 22 41  1  0  0  0
 23 25  1  0  0  0
 23 42  1  0  0  0
 23 43  1  0  0  0
 24 25  1  0  0  0
 24 44  1  0  0  0
 24 45  1  0  0  0
 25 46  1  0  0  0
 25 47  1  0  0  0
 26 48  1  0  0  0
 26 49  1  0  0  0
 26 50  1  0  0  0
 27 51  1  0  0  0
 27 52  1  0  0  0
 27 53  1  0  0  0
 28 54  1  0  0  0
 28 55  1  0  0  0
 28 56  1  0  0  0
 29 57  1  0  0  0
 29 58  1  0  0  0
 29 59  1  0  0  0
M  END
> <s_m_entry_id>
30985

> <s_m_entry_name>
dock_pv.198

> <s_m_Source_Path>
/home/csk/Desktop/cluster/DUD-E-result/rxra

> <s_m_Source_File>
dock_pv.maegz

> <i_m_Source_File_Index>
198

> <chembl_id>
CHEMBL113864

> <chembl_pref_name>
None

> <i_lp_mmshare_version>
53161

> <r_lp_tautomer_probability>
1

> <s_lp_Force_Field>
OPLS_2005

> <r_lp_Energy>
27.755291

> <b_lp_Chiralities_Consistent>
1

> <s_lp_Variant>
CHEMBL2061_lig275-1

> <s_i_glide_gridfile>
glide-grid_1mv9

> <i_i_glide_lignum>
320

> <i_i_glide_rotatable_bonds>
4

> <r_i_docking_score>
-10.5089492141199

> <r_i_glide_ligand_efficiency>
-0.362377559107582

> <r_i_glide_ligand_efficiency_sa>
-1.11333867084754

> <r_i_glide_ligand_efficiency_ln>
-2.40628288607424

> <r_i_glide_gscore>
-10.5089492141199

> <r_i_glide_lipo>
-6.83488771937197

> <r_i_glide_hbond>
0

> <r_i_glide_metal>
0

> <r_i_glide_rewards>
-1.72014556900015

> <r_i_glide_evdw>
-43.6434593200684

> <r_i_glide_ecoul>
-0.659143030643463

> <r_i_glide_erotb>
0.327128494852184

> <r_i_glide_esite>
0

> <r_i_glide_emodel>
-39.9048149257691

> <r_i_glide_energy>
-44.3026023507118

> <r_i_glide_einternal>
14.2585172653198

> <i_i_glide_confnum>
53

> <i_i_glide_posenum>
365

> <r_i_glide_eff_state_penalty>
0

> <s_user_duplicate_titles>
CHEMBL2061_lig275,187154

> <i_f3d_flags>
0

> <s_m_subgroup_title>
dock_pv

> <s_m_subgroupid>
dock_pv

> <b_m_subgroup_collapsed>
1

$$$$
CHEMBL2061_lig301
                    3D
 Schrodinger Suite 2021-1.
 56 58  0  0  1  0            999 V2000
   63.2325   46.5385   32.7961 C   0  0  0  0  0  0
   64.0272   45.4287   32.3935 C   0  0  0  0  0  0
   62.3101   46.6582   30.5069 C   0  0  0  0  0  0
   62.4079   47.1305   31.8235 C   0  0  0  0  0  0
   64.0073   45.0467   31.0425 C   0  0  0  0  0  0
   63.1434   45.6064   30.1107 C   0  0  0  0  0  0
   64.9210   44.6323   33.3719 C   0  0  0  0  0  0
   63.1667   47.0429   34.2701 C   0  0  0  0  0  0
   61.2428   47.2729   29.5818 C   0  0  2  0  0  0
   55.8693   45.0414   29.8955 C   0  0  0  0  0  0
   57.3091   45.4417   29.7237 C   0  0  0  0  0  0
   59.9207   46.4771   29.5344 C   0  0  0  0  0  0
   64.2972   46.4043   35.1242 C   0  0  0  0  0  0
   64.5177   44.9212   34.8409 C   0  0  0  0  0  0
   55.3320   44.8935   30.9916 O   0  0  0  0  0  0
   57.7474   46.0770   28.5560 C   0  0  0  0  0  0
   58.2107   45.2657   30.7695 C   0  0  0  0  0  0
   59.0415   46.5820   28.4565 C   0  0  0  0  0  0
   59.5025   45.7632   30.6601 C   0  0  0  0  0  0
   55.2080   44.8770   28.7251 O   0  0  0  0  0  0
   63.0941   44.9868   28.7213 C   0  0  0  0  0  0
   63.3880   48.5662   34.3862 C   0  0  0  0  0  0
   61.7806   46.6783   34.8516 C   0  0  0  0  0  0
   64.7146   43.0992   33.1794 C   0  0  0  0  0  0
   66.3860   45.0816   33.1417 C   0  0  0  0  0  0
   61.7835   47.7846   28.2226 C   0  0  0  0  0  0
   61.7608   47.9393   32.1273 H   0  0  0  0  0  0
   64.6520   44.2507   30.7044 H   0  0  0  0  0  0
   60.9403   48.1954   30.0781 H   0  0  0  0  0  0
   64.1039   46.5515   36.1884 H   0  0  0  0  0  0
   65.2429   46.9135   34.9391 H   0  0  0  0  0  0
   63.6079   44.3877   35.1101 H   0  0  0  0  0  0
   65.2835   44.5344   35.5112 H   0  0  0  0  0  0
   57.0664   46.2408   27.7390 H   0  0  0  0  0  0
   57.9121   44.7842   31.6906 H   0  0  0  0  0  0
   59.3161   47.1256   27.5656 H   0  0  0  0  0  0
   60.1463   45.6771   31.5208 H   0  0  0  0  0  0
   55.8216   44.7675   27.9982 H   0  0  0  0  0  0
   63.5516   43.9969   28.6974 H   0  0  0  0  0  0
   62.0631   44.8510   28.3940 H   0  0  0  0  0  0
   63.6079   45.6253   28.0046 H   0  0  0  0  0  0
   63.2237   48.8938   35.4136 H   0  0  0  0  0  0
   64.4077   48.8502   34.1390 H   0  0  0  0  0  0
   62.7156   49.1435   33.7517 H   0  0  0  0  0  0
   61.7478   46.7763   35.9369 H   0  0  0  0  0  0
   61.0021   47.3304   34.4555 H   0  0  0  0  0  0
   61.4779   45.6748   34.5943 H   0  0  0  0  0  0
   65.4537   42.5309   33.7390 H   0  0  0  0  0  0
   63.7271   42.7721   33.5087 H   0  0  0  0  0  0
   64.8081   42.7582   32.1517 H   0  0  0  0  0  0
   67.0691   44.5897   33.8344 H   0  0  0  0  0  0
   66.7208   44.8484   32.1310 H   0  0  0  0  0  0
   66.5164   46.1570   33.2659 H   0  0  0  0  0  0
   61.8525   46.9984   27.4723 H   0  0  0  0  0  0
   61.1344   48.5572   27.8072 H   0  0  0  0  0  0
   62.7713   48.2336   28.3328 H   0  0  0  0  0  0
  1  2  2  0  0  0
  1  4  1  0  0  0
  1  8  1  0  0  0
  2  5  1  0  0  0
  2  7  1  0  0  0
  3  4  2  0  0  0
  3  6  1  0  0  0
  3  9  1  0  0  0
  4 27  1  0  0  0
  5  6  2  0  0  0
  5 28  1  0  0  0
  6 21  1  0  0  0
  7 24  1  0  0  0
  7 25  1  0  0  0
  7 14  1  0  0  0
  8 13  1  0  0  0
  8 22  1  0  0  0
  8 23  1  0  0  0
  9 12  1  0  0  0
  9 26  1  0  0  0
  9 29  1  0  0  0
 10 11  1  0  0  0
 10 15  2  0  0  0
 10 20  1  0  0  0
 11 17  1  0  0  0
 11 16  2  0  0  0
 12 18  2  0  0  0
 12 19  1  0  0  0
 13 14  1  0  0  0
 13 30  1  0  0  0
 13 31  1  0  0  0
 14 32  1  0  0  0
 14 33  1  0  0  0
 16 18  1  0  0  0
 16 34  1  0  0  0
 17 19  2  0  0  0
 17 35  1  0  0  0
 18 36  1  0  0  0
 19 37  1  0  0  0
 20 38  1  0  0  0
 21 39  1  0  0  0
 21 40  1  0  0  0
 21 41  1  0  0  0
 22 42  1  0  0  0
 22 43  1  0  0  0
 22 44  1  0  0  0
 23 45  1  0  0  0
 23 46  1  0  0  0
 23 47  1  0  0  0
 24 48  1  0  0  0
 24 49  1  0  0  0
 24 50  1  0  0  0
 25 51  1  0  0  0
 25 52  1  0  0  0
 25 53  1  0  0  0
 26 54  1  0  0  0
 26 55  1  0  0  0
 26 56  1  0  0  0
M  END
> <s_m_entry_id>
30986

> <s_m_entry_name>
dock_pv.199

> <s_m_Source_Path>
/home/csk/Desktop/cluster/DUD-E-result/rxra

> <s_m_Source_File>
dock_pv.maegz

> <i_m_Source_File_Index>
199

> <chembl_id>
CHEMBL105979

> <chembl_pref_name>
None

> <i_lp_mmshare_version>
53161

> <r_lp_tautomer_probability>
1

> <s_lp_Force_Field>
OPLS_2005

> <r_lp_Energy>
25.509553

> <b_lp_Chiralities_Consistent>
1

> <s_lp_Variant>
CHEMBL2061_lig301-1

> <s_i_glide_gridfile>
glide-grid_1mv9

> <i_i_glide_lignum>
348

> <i_i_glide_rotatable_bonds>
4

> <r_i_docking_score>
-10.507151286401

> <r_i_glide_ligand_efficiency>
-0.404121203323117

> <r_i_glide_ligand_efficiency_sa>
-1.19720747470458

> <r_i_glide_ligand_efficiency_ln>
-2.46757000283586

> <r_i_glide_gscore>
-10.507151286401

> <r_i_glide_lipo>
-6.37138961242872

> <r_i_glide_hbond>
0

> <r_i_glide_metal>
0

> <r_i_glide_rewards>
-2.32765095360878

> <r_i_glide_evdw>
-42.1181144714355

> <r_i_glide_ecoul>
-1.1180225610733

> <r_i_glide_erotb>
0.465498387369225

> <r_i_glide_esite>
0

> <r_i_glide_emodel>
-54.9646423317653

> <r_i_glide_energy>
-43.2361370325089

> <r_i_glide_einternal>
14.1951293945312

> <i_i_glide_confnum>
11

> <i_i_glide_posenum>
160

> <r_i_glide_eff_state_penalty>
0

> <s_user_duplicate_titles>
CHEMBL2061_lig301,176130

> <i_f3d_flags>
0

> <s_m_subgroup_title>
dock_pv

> <s_m_subgroupid>
dock_pv

> <b_m_subgroup_collapsed>
1

$$$$
CHEMBL2061_lig364
                    3D
 Schrodinger Suite 2021-1.
 49 51  0  0  1  0            999 V2000
   61.8133   46.3971   30.4321 C   0  0  0  0  0  0
   62.7759   46.4751   32.7025 C   0  0  0  0  0  0
   63.8831   45.6995   32.2522 C   0  0  0  0  0  0
   60.6922   46.7233   29.4914 C   0  0  0  0  0  0
   61.8013   46.8506   31.7565 C   0  0  0  0  0  0
   62.8797   45.5993   30.0126 C   0  0  0  0  0  0
   63.9014   45.2921   30.9062 C   0  0  0  0  0  0
   62.5808   46.8646   34.1959 C   0  0  0  0  0  0
   65.0068   45.2092   33.2046 C   0  0  0  0  0  0
   55.2235   44.9292   30.3162 C   0  0  0  0  0  0
   59.3230   46.1171   29.6791 C   0  0  0  0  0  0
   56.6632   45.2704   30.0629 C   0  0  0  0  0  0
   60.9312   47.4209   28.5021 O   0  0  0  0  0  0
   64.9681   45.9870   34.5444 C   0  0  0  0  0  0
   63.5584   46.0877   35.1210 C   0  0  0  0  0  0
   54.6430   45.2797   31.3388 O   0  0  0  0  0  0
   58.4141   46.0958   28.6110 C   0  0  0  0  0  0
   58.8822   45.6769   30.9316 C   0  0  0  0  0  0
   57.5681   45.2766   31.1256 C   0  0  0  0  0  0
   57.0969   45.6781   28.7995 C   0  0  0  0  0  0
   62.9570   44.8757   28.2440 Br  0  0  0  0  0  0
   54.6202   44.2020   29.3390 O   0  0  0  0  0  0
   62.8491   48.3730   34.3765 C   0  0  0  0  0  0
   64.7893   43.6981   33.4781 C   0  0  0  0  0  0
   66.4058   45.4947   32.6067 C   0  0  0  0  0  0
   61.1517   46.4784   34.6536 C   0  0  0  0  0  0
   60.9798   47.4699   32.0841 H   0  0  0  0  0  0
   64.7072   44.6683   30.5493 H   0  0  0  0  0  0
   65.6231   45.5124   35.2769 H   0  0  0  0  0  0
   65.3684   46.9938   34.4153 H   0  0  0  0  0  0
   63.2045   45.0766   35.3126 H   0  0  0  0  0  0
   63.6003   46.5528   36.1078 H   0  0  0  0  0  0
   58.7159   46.4393   27.6313 H   0  0  0  0  0  0
   59.5252   45.6783   31.7971 H   0  0  0  0  0  0
   57.2614   45.0087   32.1242 H   0  0  0  0  0  0
   56.4168   45.7144   27.9592 H   0  0  0  0  0  0
   55.2253   43.8852   28.6612 H   0  0  0  0  0  0
   62.6735   48.6796   35.4084 H   0  0  0  0  0  0
   63.8768   48.6435   34.1402 H   0  0  0  0  0  0
   62.2019   48.9783   33.7408 H   0  0  0  0  0  0
   65.5542   43.2993   34.1448 H   0  0  0  0  0  0
   63.8192   43.4855   33.9262 H   0  0  0  0  0  0
   64.8306   43.1153   32.5577 H   0  0  0  0  0  0
   67.1927   45.2816   33.3342 H   0  0  0  0  0  0
   66.6117   44.8818   31.7288 H   0  0  0  0  0  0
   66.5070   46.5391   32.3095 H   0  0  0  0  0  0
   61.0487   46.5214   35.7387 H   0  0  0  0  0  0
   60.4050   47.1604   34.2524 H   0  0  0  0  0  0
   60.8671   45.4765   34.3317 H   0  0  0  0  0  0
  1  4  1  0  0  0
  1  5  2  0  0  0
  1  6  1  0  0  0
  2  5  1  0  0  0
  2  8  1  0  0  0
  2  3  2  0  0  0
  3  7  1  0  0  0
  3  9  1  0  0  0
  4 11  1  0  0  0
  4 13  2  0  0  0
  5 27  1  0  0  0
  6  7  2  0  0  0
  6 21  1  0  0  0
  7 28  1  0  0  0
  8 15  1  0  0  0
  8 23  1  0  0  0
  8 26  1  0  0  0
  9 14  1  0  0  0
  9 24  1  0  0  0
  9 25  1  0  0  0
 10 12  1  0  0  0
 10 16  2  0  0  0
 10 22  1  0  0  0
 11 17  2  0  0  0
 11 18  1  0  0  0
 12 19  1  0  0  0
 12 20  2  0  0  0
 14 15  1  0  0  0
 14 29  1  0  0  0
 14 30  1  0  0  0
 15 31  1  0  0  0
 15 32  1  0  0  0
 17 20  1  0  0  0
 17 33  1  0  0  0
 18 19  2  0  0  0
 18 34  1  0  0  0
 19 35  1  0  0  0
 20 36  1  0  0  0
 22 37  1  0  0  0
 23 38  1  0  0  0
 23 39  1  0  0  0
 23 40  1  0  0  0
 24 41  1  0  0  0
 24 42  1  0  0  0
 24 43  1  0  0  0
 25 44  1  0  0  0
 25 45  1  0  0  0
 25 46  1  0  0  0
 26 47  1  0  0  0
 26 48  1  0  0  0
 26 49  1  0  0  0
M  END
> <s_m_entry_id>
30987

> <s_m_entry_name>
dock_pv.200

> <s_m_Source_Path>
/home/csk/Desktop/cluster/DUD-E-result/rxra

> <s_m_Source_File>
dock_pv.maegz

> <i_m_Source_File_Index>
200

> <chembl_id>
CHEMBL101712

> <chembl_pref_name>
None

> <i_lp_mmshare_version>
53161

> <r_lp_tautomer_probability>
1

> <s_lp_Force_Field>
OPLS_2005

> <r_lp_Energy>
31.589778

> <b_lp_Chiralities_Consistent>
1

> <s_lp_Variant>
CHEMBL2061_lig364-1

> <s_i_glide_gridfile>
glide-grid_1mv9

> <i_i_glide_lignum>
424

> <i_i_glide_rotatable_bonds>
4

> <r_i_docking_score>
-10.4919475499667

> <r_i_glide_ligand_efficiency>
-0.403536444229487

> <r_i_glide_ligand_efficiency_sa>
-1.19547512819062

> <r_i_glide_ligand_efficiency_ln>
-2.46399945522178

> <r_i_glide_gscore>
-10.4919475499667

> <r_i_glide_lipo>
-5.78399638362232

> <r_i_glide_hbond>
-0.0777373637078667

> <r_i_glide_metal>
0

> <r_i_glide_rewards>
-1.95736365690004

> <r_i_glide_evdw>
-47.1370620727539

> <r_i_glide_ecoul>
-4.39612150192261

> <r_i_glide_erotb>
0.343421183189656

> <r_i_glide_esite>
0

> <r_i_glide_emodel>
-78.5072956738988

> <r_i_glide_energy>
-51.5331835746765

> <r_i_glide_einternal>
5.53549909591675

> <i_i_glide_confnum>
23

> <i_i_glide_posenum>
297

> <r_i_glide_eff_state_penalty>
0

> <s_user_duplicate_titles>
CHEMBL2061_lig364,163656

> <i_f3d_flags>
0

> <s_m_subgroup_title>
dock_pv

> <s_m_subgroupid>
dock_pv

> <b_m_subgroup_collapsed>
1

$$$$
CHEMBL2061_lig125
                    3D
 Schrodinger Suite 2021-1.
 60 62  0  0  1  0            999 V2000
   62.3652   46.7338   31.1258 C   0  0  0  0  0  0
   59.6157   46.0198   30.1655 O   0  0  0  0  0  0
   58.4886   45.8793   29.4153 C   0  0  0  0  0  0
   60.5414   46.6350   29.3738 C   0  0  0  0  0  0
   63.6771   46.2768   31.3434 C   0  0  0  0  0  0
   61.8360   46.9959   29.7543 C   0  0  0  0  0  0
   64.1620   46.0856   32.6510 C   0  0  0  0  0  0
   58.7165   46.3481   28.1390 C   0  0  0  0  0  0
   61.5453   46.9373   32.2373 C   0  0  0  0  0  0
   57.2948   45.3360   30.0277 C   0  0  0  0  0  0
   60.0212   46.8805   28.0901 C   0  0  0  0  0  0
   63.3253   46.3440   33.7294 C   0  0  0  0  0  0
   62.0136   46.7491   33.5328 C   0  0  0  0  0  0
   56.0774   45.7494   29.6104 C   0  0  0  0  0  0
   64.4723   46.0004   30.2622 O   0  0  0  0  0  0
   54.7895   45.3616   30.1246 C   0  0  0  0  0  0
   54.5446   44.4770   30.9391 O   0  0  0  0  0  0
   65.5672   45.5798   32.9675 C   0  0  0  0  0  0
   65.0003   43.7077   30.2390 C   0  0  0  0  0  0
   64.1444   44.7827   29.5956 C   0  0  0  0  0  0
   61.1435   47.1081   34.7196 C   0  0  0  0  0  0
   53.8267   46.1602   29.5932 O   0  0  0  0  0  0
   64.8080   42.4778   29.7706 F   0  0  0  0  0  0
   66.2818   44.0770   30.1390 F   0  0  0  0  0  0
   62.5950   47.5994   28.7454 C   0  0  0  0  0  0
   60.8080   47.5271   27.1298 C   0  0  0  0  0  0
   57.6077   44.3203   31.1120 C   0  0  0  0  0  0
   62.1082   47.8713   27.4725 C   0  0  0  0  0  0
   65.5094   44.2947   33.8317 C   0  0  0  0  0  0
   66.4100   46.6707   33.6284 C   0  0  0  0  0  0
   61.5636   48.4770   35.2280 C   0  0  0  0  0  0
   61.1641   46.0772   35.8429 C   0  0  0  0  0  0
   58.0068   46.3265   27.3400 H   0  0  0  0  0  0
   60.5315   47.2767   32.1047 H   0  0  0  0  0  0
   63.7130   46.2397   34.7310 H   0  0  0  0  0  0
   56.0425   46.4712   28.8067 H   0  0  0  0  0  0
   66.0829   45.3521   32.0421 H   0  0  0  0  0  0
   64.7654   43.6164   31.2938 H   0  0  0  0  0  0
   63.0863   44.5154   29.6452 H   0  0  0  0  0  0
   64.3929   44.8858   28.5397 H   0  0  0  0  0  0
   60.1067   47.1730   34.3889 H   0  0  0  0  0  0
   54.2121   46.7628   28.9539 H   0  0  0  0  0  0
   63.6080   47.8516   28.9387 H   0  0  0  0  0  0
   60.4240   47.7424   26.1443 H   0  0  0  0  0  0
   58.4093   43.6722   30.7760 H   0  0  0  0  0  0
   57.9375   44.8221   32.0228 H   0  0  0  0  0  0
   56.7729   43.6679   31.3379 H   0  0  0  0  0  0
   62.7517   48.3460   26.7446 H   0  0  0  0  0  0
   64.6826   43.6440   33.5450 H   0  0  0  0  0  0
   66.4092   43.6988   33.7385 H   0  0  0  0  0  0
   65.3777   44.5209   34.8906 H   0  0  0  0  0  0
   66.4110   47.5899   33.0415 H   0  0  0  0  0  0
   66.0080   46.9006   34.6124 H   0  0  0  0  0  0
   67.4450   46.3500   33.7436 H   0  0  0  0  0  0
   61.6084   49.1569   34.3753 H   0  0  0  0  0  0
   60.8520   48.8756   35.9505 H   0  0  0  0  0  0
   62.5491   48.4609   35.6960 H   0  0  0  0  0  0
   60.4749   45.2769   35.6034 H   0  0  0  0  0  0
   62.1436   45.6608   36.0680 H   0  0  0  0  0  0
   60.8080   46.5436   36.7518 H   0  0  0  0  0  0
  1  5  1  0  0  0
  1  6  1  0  0  0
  1  9  2  0  0  0
  2  4  1  0  0  0
  2  3  1  0  0  0
  3 10  1  0  0  0
  3  8  2  0  0  0
  4  6  1  0  0  0
  4 11  2  0  0  0
  5  7  2  0  0  0
  5 15  1  0  0  0
  6 25  2  0  0  0
  7 18  1  0  0  0
  7 12  1  0  0  0
  8 11  1  0  0  0
  8 33  1  0  0  0
  9 13  1  0  0  0
  9 34  1  0  0  0
 10 14  2  0  0  0
 10 27  1  0  0  0
 11 26  1  0  0  0
 12 13  2  0  0  0
 12 35  1  0  0  0
 13 21  1  0  0  0
 14 16  1  0  0  0
 14 36  1  0  0  0
 15 20  1  0  0  0
 16 17  2  0  0  0
 16 22  1  0  0  0
 18 29  1  0  0  0
 18 30  1  0  0  0
 18 37  1  0  0  0
 19 20  1  0  0  0
 19 23  1  0  0  0
 19 24  1  0  0  0
 19 38  1  0  0  0
 20 39  1  0  0  0
 20 40  1  0  0  0
 21 31  1  0  0  0
 21 32  1  0  0  0
 21 41  1  0  0  0
 22 42  1  0  0  0
 25 28  1  0  0  0
 25 43  1  0  0  0
 26 28  2  0  0  0
 26 44  1  0  0  0
 27 45  1  0  0  0
 27 46  1  0  0  0
 27 47  1  0  0  0
 28 48  1  0  0  0
 29 49  1  0  0  0
 29 50  1  0  0  0
 29 51  1  0  0  0
 30 52  1  0  0  0
 30 53  1  0  0  0
 30 54  1  0  0  0
 31 55  1  0  0  0
 31 56  1  0  0  0
 31 57  1  0  0  0
 32 58  1  0  0  0
 32 59  1  0  0  0
 32 60  1  0  0  0
M  END
> <s_m_entry_id>
30988

> <s_m_entry_name>
dock_pv.201

> <s_m_Source_Path>
/home/csk/Desktop/cluster/DUD-E-result/rxra

> <s_m_Source_File>
dock_pv.maegz

> <i_m_Source_File_Index>
201

> <chembl_id>
CHEMBL265051

> <chembl_pref_name>
None

> <i_lp_mmshare_version>
53161

> <r_lp_tautomer_probability>
1

> <s_lp_Force_Field>
OPLS_2005

> <r_lp_Energy>
27.49663

> <b_lp_Chiralities_Consistent>
1

> <s_lp_Variant>
CHEMBL2061_lig125-1

> <s_i_glide_gridfile>
glide-grid_1mv9

> <i_i_glide_lignum>
164

> <i_i_glide_rotatable_bonds>
9

> <r_i_docking_score>
-10.4894894128018

> <r_i_glide_ligand_efficiency>
-0.327796544150055

> <r_i_glide_ligand_efficiency_sa>
-1.04068915682842

> <r_i_glide_ligand_efficiency_ln>
-2.34888261220856

> <r_i_glide_gscore>
-10.4894894128018

> <r_i_glide_lipo>
-6.72482355773782

> <r_i_glide_hbond>
-0.288633046905404

> <r_i_glide_metal>
0

> <r_i_glide_rewards>
-1.91846777141206

> <r_i_glide_evdw>
-33.5382308959961

> <r_i_glide_ecoul>
-2.60640788078308

> <r_i_glide_erotb>
0.510307690170797

> <r_i_glide_esite>
0

> <r_i_glide_emodel>
-51.7060755174344

> <r_i_glide_energy>
-36.1446387767792

> <r_i_glide_einternal>
4.16459655761719

> <i_i_glide_confnum>
136

> <i_i_glide_posenum>
197

> <r_i_glide_eff_state_penalty>
0

> <s_user_duplicate_titles>
CHEMBL2061_lig125,60796

> <i_f3d_flags>
0

> <s_m_subgroup_title>
dock_pv

> <s_m_subgroupid>
dock_pv

> <b_m_subgroup_collapsed>
1

$$$$
CHEMBL2061_lig303
                    3D
 Schrodinger Suite 2021-1.
 57 60  0  0  1  0            999 V2000
   61.5224   46.6664   29.1695 C   0  0  0  0  0  0
   62.4717   46.2440   30.3058 C   0  0  0  0  0  0
   63.1113   46.5524   32.6587 C   0  0  0  0  0  0
   64.0473   45.4905   32.5450 C   0  0  0  0  0  0
   62.0889   46.7295   27.7529 C   0  0  0  0  0  0
   61.8167   47.9977   28.4940 C   0  0  0  0  0  0
   62.4079   46.9458   31.5086 C   0  0  0  0  0  0
   64.1490   44.8347   31.3067 C   0  0  0  0  0  0
   63.3393   45.1488   30.2181 C   0  0  0  0  0  0
   64.9508   45.0606   33.7302 C   0  0  0  0  0  0
   62.6999   47.1301   34.0344 C   0  0  0  0  0  0
   55.9314   44.9826   29.8793 C   0  0  0  0  0  0
   60.0328   46.2866   29.3664 C   0  0  0  0  0  0
   57.3511   45.4601   29.7203 C   0  0  0  0  0  0
   64.3126   45.4474   35.0889 C   0  0  0  0  0  0
   63.7893   46.8744   35.1084 C   0  0  0  0  0  0
   55.4584   44.5813   30.9390 O   0  0  0  0  0  0
   59.0888   46.4770   28.3543 C   0  0  0  0  0  0
   59.5848   45.7344   30.5696 C   0  0  0  0  0  0
   58.2742   45.3043   30.7504 C   0  0  0  0  0  0
   57.7680   46.0770   28.5390 C   0  0  0  0  0  0
   55.2080   45.0006   28.7331 O   0  0  0  0  0  0
   63.3560   44.2119   29.0201 C   0  0  0  0  0  0
   62.5005   48.6573   34.0303 C   0  0  0  0  0  0
   61.3834   46.4037   34.4211 C   0  0  0  0  0  0
   65.1117   43.5269   33.8071 C   0  0  0  0  0  0
   66.3122   45.7769   33.5624 C   0  0  0  0  0  0
   63.1363   46.5151   27.5464 H   0  0  0  0  0  0
   61.4443   46.4176   26.9390 H   0  0  0  0  0  0
   61.0055   48.6330   28.1390 H   0  0  0  0  0  0
   62.6821   48.5622   28.8301 H   0  0  0  0  0  0
   61.6752   47.7348   31.5696 H   0  0  0  0  0  0
   64.8383   44.0141   31.1906 H   0  0  0  0  0  0
   65.0323   45.3133   35.8987 H   0  0  0  0  0  0
   63.4839   44.7814   35.3299 H   0  0  0  0  0  0
   64.6375   47.5454   34.9656 H   0  0  0  0  0  0
   63.4069   47.1108   36.1031 H   0  0  0  0  0  0
   59.3615   46.9273   27.4126 H   0  0  0  0  0  0
   60.2446   45.6770   31.4164 H   0  0  0  0  0  0
   57.9883   44.8693   31.6982 H   0  0  0  0  0  0
   57.0637   46.2239   27.7390 H   0  0  0  0  0  0
   54.3761   44.5503   28.8737 H   0  0  0  0  0  0
   63.6974   43.2127   29.2945 H   0  0  0  0  0  0
   62.3544   44.0834   28.6081 H   0  0  0  0  0  0
   64.0080   44.6028   28.2464 H   0  0  0  0  0  0
   61.8717   48.8770   34.8900 H   0  0  0  0  0  0
   63.4291   49.2188   34.1390 H   0  0  0  0  0  0
   62.0080   49.0571   33.1499 H   0  0  0  0  0  0
   61.1690   46.4713   35.4884 H   0  0  0  0  0  0
   60.5301   46.8383   33.8986 H   0  0  0  0  0  0
   61.3953   45.3516   34.1395 H   0  0  0  0  0  0
   65.7328   43.2770   34.6649 H   0  0  0  0  0  0
   64.1554   43.0122   33.9161 H   0  0  0  0  0  0
   65.6080   43.1071   32.9409 H   0  0  0  0  0  0
   66.9874   45.5633   34.3922 H   0  0  0  0  0  0
   66.8080   45.4469   32.6497 H   0  0  0  0  0  0
   66.2092   46.8601   33.4910 H   0  0  0  0  0  0
  1  2  1  0  0  0
  1  5  1  0  0  0
  1  6  1  0  0  0
  1 13  1  0  0  0
  2  7  2  0  0  0
  2  9  1  0  0  0
  3  7  1  0  0  0
  3 11  1  0  0  0
  3  4  2  0  0  0
  4  8  1  0  0  0
  4 10  1  0  0  0
  5  6  1  0  0  0
  5 28  1  0  0  0
  5 29  1  0  0  0
  6 30  1  0  0  0
  6 31  1  0  0  0
  7 32  1  0  0  0
  8  9  2  0  0  0
  8 33  1  0  0  0
  9 23  1  0  0  0
 10 15  1  0  0  0
 10 26  1  0  0  0
 10 27  1  0  0  0
 11 16  1  0  0  0
 11 24  1  0  0  0
 11 25  1  0  0  0
 12 14  1  0  0  0
 12 17  2  0  0  0
 12 22  1  0  0  0
 13 18  2  0  0  0
 13 19  1  0  0  0
 14 20  1  0  0  0
 14 21  2  0  0  0
 15 16  1  0  0  0
 15 34  1  0  0  0
 15 35  1  0  0  0
 16 36  1  0  0  0
 16 37  1  0  0  0
 18 21  1  0  0  0
 18 38  1  0  0  0
 19 20  2  0  0  0
 19 39  1  0  0  0
 20 40  1  0  0  0
 21 41  1  0  0  0
 22 42  1  0  0  0
 23 43  1  0  0  0
 23 44  1  0  0  0
 23 45  1  0  0  0
 24 46  1  0  0  0
 24 47  1  0  0  0
 24 48  1  0  0  0
 25 49  1  0  0  0
 25 50  1  0  0  0
 25 51  1  0  0  0
 26 52  1  0  0  0
 26 53  1  0  0  0
 26 54  1  0  0  0
 27 55  1  0  0  0
 27 56  1  0  0  0
 27 57  1  0  0  0
M  END
> <s_m_entry_id>
30989

> <s_m_entry_name>
dock_pv.202

> <s_m_Source_Path>
/home/csk/Desktop/cluster/DUD-E-result/rxra

> <s_m_Source_File>
dock_pv.maegz

> <i_m_Source_File_Index>
202

> <chembl_id>
CHEMBL106896

> <chembl_pref_name>
None

> <i_lp_mmshare_version>
53161

> <r_lp_tautomer_probability>
1

> <s_lp_Force_Field>
OPLS_2005

> <r_lp_Energy>
31.202702

> <b_lp_Chiralities_Consistent>
1

> <s_lp_Variant>
CHEMBL2061_lig303-1

> <s_i_glide_gridfile>
glide-grid_1mv9

> <i_i_glide_lignum>
351

> <i_i_glide_rotatable_bonds>
4

> <r_i_docking_score>
-10.4861900413856

> <r_i_glide_ligand_efficiency>
-0.388377408940207

> <r_i_glide_ligand_efficiency_sa>
-1.16513222554059

> <r_i_glide_ligand_efficiency_ln>
-2.44101216328055

> <r_i_glide_gscore>
-10.4861900413856

> <r_i_glide_lipo>
-6.58689354014408

> <r_i_glide_hbond>
0

> <r_i_glide_metal>
0

> <r_i_glide_rewards>
-2.28746931818182

> <r_i_glide_evdw>
-42.6934928894043

> <r_i_glide_ecoul>
0.563067674636841

> <r_i_glide_erotb>
0.438387310214999

> <r_i_glide_esite>
0

> <r_i_glide_emodel>
-55.0562250517873

> <r_i_glide_energy>
-42.1304252147675

> <r_i_glide_einternal>
4.90420722961426

> <i_i_glide_confnum>
4

> <i_i_glide_posenum>
292

> <r_i_glide_eff_state_penalty>
0

> <s_user_duplicate_titles>
CHEMBL2061_lig303,176178

> <i_f3d_flags>
0

> <s_m_subgroup_title>
dock_pv

> <s_m_subgroupid>
dock_pv

> <b_m_subgroup_collapsed>
1

$$$$
CHEMBL2061_lig325
                    3D
 Schrodinger Suite 2021-1.
 61 63  0  0  1  0            999 V2000
   61.2920   46.5725   29.2789 C   0  0  2  0  0  0
   60.1667   45.5634   29.3633 C   0  0  2  0  0  0
   61.1280   45.5164   28.2005 C   0  0  0  0  0  0
   62.3545   46.4782   30.3681 C   0  0  0  0  0  0
   62.8787   46.5693   32.7681 C   0  0  0  0  0  0
   64.2098   46.1634   32.4780 C   0  0  0  0  0  0
   61.9913   46.7369   31.6915 C   0  0  0  0  0  0
   64.5522   45.9142   31.1409 C   0  0  0  0  0  0
   63.6593   46.0764   30.0941 C   0  0  0  0  0  0
   58.7106   45.8657   29.0833 C   0  0  0  0  0  0
   65.2875   45.9438   33.5673 C   0  0  0  0  0  0
   62.4066   46.8406   34.2177 C   0  0  0  0  0  0
   55.8672   46.7896   29.1660 C   0  0  0  0  0  0
   57.7195   45.3770   29.8501 C   0  0  0  0  0  0
   54.5055   47.1829   28.9307 C   0  0  0  0  0  0
   56.2961   45.6003   29.6577 C   0  0  0  0  0  0
   63.3417   46.0952   35.2057 C   0  0  0  0  0  0
   64.8109   46.4203   34.9577 C   0  0  0  0  0  0
   53.5281   46.4771   29.1111 O   0  0  0  0  0  0
   60.8843   47.9965   28.8845 C   0  0  0  0  0  0
   54.4036   48.4750   28.5320 O   0  0  0  0  0  0
   64.1569   45.8113   28.6891 C   0  0  0  0  0  0
   62.4885   48.3612   34.4966 C   0  0  0  0  0  0
   60.9805   46.2841   34.4614 C   0  0  0  0  0  0
   65.5819   44.4291   33.6538 C   0  0  0  0  0  0
   66.5395   46.7788   33.2182 C   0  0  0  0  0  0
   55.3630   44.4647   30.0410 C   0  0  0  0  0  0
   60.3120   44.7760   30.1060 H   0  0  0  0  0  0
   61.7849   44.6508   28.1465 H   0  0  0  0  0  0
   60.8028   45.8349   27.2091 H   0  0  0  0  0  0
   60.9769   47.0511   31.8847 H   0  0  0  0  0  0
   65.5446   45.5673   30.8961 H   0  0  0  0  0  0
   58.4923   46.4842   28.2256 H   0  0  0  0  0  0
   56.5962   47.5444   28.9387 H   0  0  0  0  0  0
   58.0063   44.7580   30.6889 H   0  0  0  0  0  0
   63.0969   46.3645   36.2275 H   0  0  0  0  0  0
   63.2080   45.0150   35.1419 H   0  0  0  0  0  0
   64.9329   47.4966   35.0573 H   0  0  0  0  0  0
   65.4317   45.9943   35.7471 H   0  0  0  0  0  0
   60.1986   48.0450   28.0392 H   0  0  0  0  0  0
   60.4233   48.4767   29.7372 H   0  0  0  0  0  0
   61.7639   48.5802   28.6149 H   0  0  0  0  0  0
   55.1826   49.0228   28.7116 H   0  0  0  0  0  0
   65.2112   46.0510   28.6066 H   0  0  0  0  0  0
   64.0237   44.7555   28.4606 H   0  0  0  0  0  0
   63.6527   46.4261   27.9439 H   0  0  0  0  0  0
   62.3753   48.5741   35.5602 H   0  0  0  0  0  0
   63.4291   48.8028   34.1669 H   0  0  0  0  0  0
   61.7034   48.9064   33.9808 H   0  0  0  0  0  0
   60.7442   46.2615   35.5239 H   0  0  0  0  0  0
   60.2088   46.8782   33.9794 H   0  0  0  0  0  0
   60.8625   45.2775   34.0714 H   0  0  0  0  0  0
   66.3071   44.2005   34.4353 H   0  0  0  0  0  0
   64.6858   43.8384   33.8470 H   0  0  0  0  0  0
   66.0037   44.0772   32.7176 H   0  0  0  0  0  0
   67.4002   46.4721   33.8095 H   0  0  0  0  0  0
   66.8085   46.6540   32.1771 H   0  0  0  0  0  0
   66.3859   47.8497   33.3575 H   0  0  0  0  0  0
   55.8956   43.6773   30.5706 H   0  0  0  0  0  0
   54.5827   44.8199   30.7131 H   0  0  0  0  0  0
   54.8673   44.0767   29.1505 H   0  0  0  0  0  0
  1  2  1  0  0  0
  1  3  1  0  0  0
  1  4  1  0  0  0
  1 20  1  0  0  0
  2 10  1  0  0  0
  2  3  1  0  0  0
  2 28  1  0  0  0
  3 29  1  0  0  0
  3 30  1  0  0  0
  4  7  2  0  0  0
  4  9  1  0  0  0
  5  7  1  0  0  0
  5 12  1  0  0  0
  5  6  2  0  0  0
  6  8  1  0  0  0
  6 11  1  0  0  0
  7 31  1  0  0  0
  8  9  2  0  0  0
  8 32  1  0  0  0
  9 22  1  0  0  0
 10 14  2  0  0  0
 10 33  1  0  0  0
 11 18  1  0  0  0
 11 25  1  0  0  0
 11 26  1  0  0  0
 12 17  1  0  0  0
 12 23  1  0  0  0
 12 24  1  0  0  0
 13 16  2  0  0  0
 13 15  1  0  0  0
 13 34  1  0  0  0
 14 16  1  0  0  0
 14 35  1  0  0  0
 15 19  2  0  0  0
 15 21  1  0  0  0
 16 27  1  0  0  0
 17 18  1  0  0  0
 17 36  1  0  0  0
 17 37  1  0  0  0
 18 38  1  0  0  0
 18 39  1  0  0  0
 20 40  1  0  0  0
 20 41  1  0  0  0
 20 42  1  0  0  0
 21 43  1  0  0  0
 22 44  1  0  0  0
 22 45  1  0  0  0
 22 46  1  0  0  0
 23 47  1  0  0  0
 23 48  1  0  0  0
 23 49  1  0  0  0
 24 50  1  0  0  0
 24 51  1  0  0  0
 24 52  1  0  0  0
 25 53  1  0  0  0
 25 54  1  0  0  0
 25 55  1  0  0  0
 26 56  1  0  0  0
 26 57  1  0  0  0
 26 58  1  0  0  0
 27 59  1  0  0  0
 27 60  1  0  0  0
 27 61  1  0  0  0
M  END
> <s_m_entry_id>
30990

> <s_m_entry_name>
dock_pv.203

> <s_m_Source_Path>
/home/csk/Desktop/cluster/DUD-E-result/rxra

> <s_m_Source_File>
dock_pv.maegz

> <i_m_Source_File_Index>
203

> <chembl_id>
CHEMBL308883

> <chembl_pref_name>
None

> <i_lp_mmshare_version>
53161

> <r_lp_tautomer_probability>
1

> <s_lp_Force_Field>
OPLS_2005

> <r_lp_Energy>
32.99475

> <b_lp_Chiralities_Consistent>
1

> <s_lp_Variant>
CHEMBL2061_lig325-4

> <s_i_glide_gridfile>
glide-grid_1mv9

> <i_i_glide_lignum>
379

> <i_i_glide_rotatable_bonds>
5

> <r_i_docking_score>
-10.4792153433588

> <r_i_glide_ligand_efficiency>
-0.388119086791067

> <r_i_glide_ligand_efficiency_sa>
-1.16435725909402

> <r_i_glide_ligand_efficiency_ln>
-2.43938856856681

> <r_i_glide_gscore>
-10.4792153433588

> <r_i_glide_lipo>
-6.21779147591741

> <r_i_glide_hbond>
-0.183792621739349

> <r_i_glide_metal>
0

> <r_i_glide_rewards>
-1.96039228245208

> <r_i_glide_evdw>
-30.1289501190186

> <r_i_glide_ecoul>
-7.89255094528198

> <r_i_glide_erotb>
0.573091184493258

> <r_i_glide_esite>
0

> <r_i_glide_emodel>
-45.221736795307

> <r_i_glide_energy>
-38.0215010643005

> <r_i_glide_einternal>
4.43277168273926

> <i_i_glide_confnum>
132

> <i_i_glide_posenum>
103

> <r_i_glide_eff_state_penalty>
0

> <s_user_duplicate_titles>
CHEMBL2061_lig325

> <i_f3d_flags>
0

> <s_m_subgroup_title>
dock_pv

> <s_m_subgroupid>
dock_pv

> <b_m_subgroup_collapsed>
1

$$$$
CHEMBL2061_lig558 
                    3D
 Schrodinger Suite 2021-1.
 51 54  0  0  1  0            999 V2000
   62.7378   48.4379   34.1925 C   0  0  0  0  0  0
   62.4634   46.9207   34.2074 C   0  0  0  0  0  0
   61.0443   46.5837   34.7364 C   0  0  0  0  0  0
   64.9756   43.9080   33.6946 C   0  0  0  0  0  0
   65.0377   45.4193   33.3461 C   0  0  0  0  0  0
   66.4068   45.8242   32.7391 C   0  0  0  0  0  0
   64.8947   46.2323   34.6591 C   0  0  0  0  0  0
   63.4594   46.2512   35.1896 C   0  0  0  0  0  0
   63.8792   45.7372   32.3610 C   0  0  0  0  0  0
   62.6718   46.3790   32.7653 C   0  0  0  0  0  0
   61.6460   46.5237   31.8097 C   0  0  0  0  0  0
   61.7569   46.0602   30.4979 C   0  0  0  0  0  0
   62.9427   45.4214   30.1085 C   0  0  0  0  0  0
   63.9735   45.2841   31.0337 C   0  0  0  0  0  0
   63.1234   44.7965   28.7333 C   0  0  0  0  0  0
   60.6368   46.1598   29.6323 N   0  0  0  0  0  0
   59.5402   46.6796   27.7604 N   0  0  0  0  0  0
   60.7670   46.6650   28.3836 N   0  0  0  0  0  0
   58.6212   46.2325   28.6591 C   0  0  0  0  0  0
   59.2857   45.8941   29.8571 C   0  0  0  0  0  0
   58.6786   45.4079   30.9422 N   0  0  0  0  0  0
   57.3277   45.2765   30.8500 C   0  0  0  0  0  0
   56.5570   45.6352   29.7404 C   0  0  0  0  0  0
   57.2264   46.0763   28.5899 C   0  0  0  0  0  0
   55.0524   45.5554   29.7967 C   0  0  0  0  0  0
   54.4111   46.4865   29.0320 O   0  0  0  0  0  0
   54.4559   44.7752   30.5392 O   0  0  0  0  0  0
   62.7374   48.8589   35.1967 H   0  0  0  0  0  0
   63.7003   48.6522   33.7432 H   0  0  0  0  0  0
   62.0081   48.9816   33.5988 H   0  0  0  0  0  0
   60.9568   46.7643   35.8078 H   0  0  0  0  0  0
   60.2780   47.1953   34.2675 H   0  0  0  0  0  0
   60.7704   45.5438   34.5547 H   0  0  0  0  0  0
   65.7248   43.6399   34.4400 H   0  0  0  0  0  0
   64.0031   43.6078   34.0837 H   0  0  0  0  0  0
   65.1646   43.2900   32.8189 H   0  0  0  0  0  0
   67.2101   45.6840   33.4632 H   0  0  0  0  0  0
   66.6714   45.2245   31.8682 H   0  0  0  0  0  0
   66.4188   46.8712   32.4331 H   0  0  0  0  0  0
   65.2291   47.2612   34.5123 H   0  0  0  0  0  0
   65.5626   45.8348   35.4265 H   0  0  0  0  0  0
   63.4447   46.7655   36.1506 H   0  0  0  0  0  0
   63.1579   45.2282   35.4184 H   0  0  0  0  0  0
   60.7269   47.0089   32.1005 H   0  0  0  0  0  0
   64.8585   44.7545   30.7243 H   0  0  0  0  0  0
   63.9558   44.0935   28.7062 H   0  0  0  0  0  0
   62.2361   44.2295   28.4497 H   0  0  0  0  0  0
   63.2902   45.5700   27.9841 H   0  0  0  0  0  0
   56.8459   44.9092   31.7393 H   0  0  0  0  0  0
   56.6853   46.3115   27.6885 H   0  0  0  0  0  0
   55.0225   47.0927   28.6124 H   0  0  0  0  0  0
  1  2  1  0  0  0
  1 28  1  0  0  0
  1 29  1  0  0  0
  1 30  1  0  0  0
  2  3  1  0  0  0
  2  8  1  0  0  0
  2 10  1  0  0  0
  3 31  1  0  0  0
  3 32  1  0  0  0
  3 33  1  0  0  0
  4  5  1  0  0  0
  4 34  1  0  0  0
  4 35  1  0  0  0
  4 36  1  0  0  0
  5  6  1  0  0  0
  5  7  1  0  0  0
  5  9  1  0  0  0
  6 37  1  0  0  0
  6 38  1  0  0  0
  6 39  1  0  0  0
  7  8  1  0  0  0
  7 40  1  0  0  0
  7 41  1  0  0  0
  8 42  1  0  0  0
  8 43  1  0  0  0
  9 10  2  0  0  0
  9 14  1  0  0  0
 10 11  1  0  0  0
 11 12  2  0  0  0
 11 44  1  0  0  0
 12 13  1  0  0  0
 12 16  1  0  0  0
 13 14  2  0  0  0
 13 15  1  0  0  0
 14 45  1  0  0  0
 15 46  1  0  0  0
 15 47  1  0  0  0
 15 48  1  0  0  0
 16 20  1  0  0  0
 16 18  1  0  0  0
 17 19  1  0  0  0
 17 18  2  0  0  0
 19 20  2  0  0  0
 19 24  1  0  0  0
 20 21  1  0  0  0
 21 22  2  0  0  0
 22 23  1  0  0  0
 22 49  1  0  0  0
 23 24  2  0  0  0
 23 25  1  0  0  0
 24 50  1  0  0  0
 25 26  1  0  0  0
 25 27  2  0  0  0
 26 51  1  0  0  0
M  END
> <s_m_entry_id>
30991

> <s_m_entry_name>
dock_pv.204

> <s_m_Source_Path>
/home/csk/Desktop/cluster/DUD-E-result/rxra

> <s_m_Source_File>
dock_pv.maegz

> <i_m_Source_File_Index>
204

> <chembl_id>
CHEMBL4546707

> <chembl_pref_name>
None

> <i_lp_mmshare_version>
53161

> <r_lp_tautomer_probability>
1

> <s_lp_Force_Field>
OPLS_2005

> <r_lp_Energy>
28.131805

> <b_lp_Chiralities_Consistent>
1

> <s_lp_Variant>
CHEMBL2061_lig558 -1

> <s_i_glide_gridfile>
glide-grid_1mv9

> <i_i_glide_lignum>
658

> <i_i_glide_rotatable_bonds>
3

> <r_i_docking_score>
-10.4639452906138

> <r_i_glide_ligand_efficiency>
-0.387553529281994

> <r_i_glide_ligand_efficiency_sa>
-1.16266058656867

> <r_i_glide_ligand_efficiency_ln>
-2.43583395203427

> <r_i_glide_gscore>
-10.4639452906138

> <r_i_glide_lipo>
-5.2505237393167

> <r_i_glide_hbond>
-0.143255643184373

> <r_i_glide_metal>
0

> <r_i_glide_rewards>
-2.58903870061856

> <r_i_glide_evdw>
-46.2111282348633

> <r_i_glide_ecoul>
-3.06709432601929

> <r_i_glide_erotb>
0.289493353151862

> <r_i_glide_esite>
0

> <r_i_glide_emodel>
-77.3897449943214

> <r_i_glide_energy>
-49.2782225608826

> <r_i_glide_einternal>
2.84367179870605

> <i_i_glide_confnum>
14

> <i_i_glide_posenum>
393

> <r_i_glide_eff_state_penalty>
0

> <s_user_duplicate_titles>
CHEMBL2061_lig558 

> <i_f3d_flags>
0

> <s_m_subgroup_title>
dock_pv

> <s_m_subgroupid>
dock_pv

> <b_m_subgroup_collapsed>
1

$$$$
CHEMBL2061_lig278
                    3D
 Schrodinger Suite 2021-1.
 54 56  0  0  1  0            999 V2000
   62.8530   46.4939   33.0550 C   0  0  0  0  0  0
   64.0308   45.8194   32.6285 C   0  0  0  0  0  0
   56.2247   45.6301   29.4309 C   0  0  0  0  0  0
   61.9763   46.3910   30.7564 C   0  0  0  0  0  0
   60.8179   46.6064   29.8609 C   0  0  0  0  0  0
   57.3317   45.5268   30.2102 O   0  0  0  0  0  0
   61.8666   46.7709   32.0946 C   0  0  0  0  0  0
   58.4085   45.8852   29.4595 C   0  0  0  0  0  0
   64.1478   45.4872   31.2689 C   0  0  0  0  0  0
   59.6866   45.9171   30.1203 C   0  0  0  0  0  0
   63.1501   45.7599   30.3343 C   0  0  0  0  0  0
   54.9406   45.4369   30.0231 C   0  0  0  0  0  0
   56.5936   46.0307   28.1614 C   0  0  0  0  0  0
   62.6498   46.9754   34.5162 C   0  0  0  0  0  0
   65.1423   45.3707   33.6130 C   0  0  0  0  0  0
   57.9893   46.1149   28.1637 C   0  0  0  0  0  0
   53.9439   46.0766   29.7021 O   0  0  0  0  0  0
   65.0125   46.1100   34.9679 C   0  0  0  0  0  0
   63.5801   46.1982   35.4788 C   0  0  0  0  0  0
   54.9651   44.4794   30.9866 O   0  0  0  0  0  0
   60.9745   47.6245   28.7396 C   0  0  0  0  0  0
   63.3390   45.2811   28.9012 C   0  0  0  0  0  0
   63.0081   48.4770   34.5653 C   0  0  0  0  0  0
   61.2076   46.7064   35.0189 C   0  0  0  0  0  0
   64.9901   43.8494   33.8561 C   0  0  0  0  0  0
   66.5430   45.7357   33.0626 C   0  0  0  0  0  0
   60.9646   47.2777   32.4008 H   0  0  0  0  0  0
   65.0241   44.9578   30.9292 H   0  0  0  0  0  0
   59.6862   45.2771   30.9772 H   0  0  0  0  0  0
   55.9253   46.2163   27.3368 H   0  0  0  0  0  0
   58.6324   46.3806   27.3392 H   0  0  0  0  0  0
   65.6099   45.6208   35.7349 H   0  0  0  0  0  0
   65.4134   47.1191   34.8819 H   0  0  0  0  0  0
   63.2063   45.1875   35.6448 H   0  0  0  0  0  0
   63.5918   46.6701   36.4632 H   0  0  0  0  0  0
   55.8549   44.1292   31.0846 H   0  0  0  0  0  0
   61.4700   47.1750   27.8804 H   0  0  0  0  0  0
   60.0134   48.0119   28.4040 H   0  0  0  0  0  0
   61.5727   48.4743   29.0723 H   0  0  0  0  0  0
   64.0699   44.4748   28.8454 H   0  0  0  0  0  0
   62.4125   44.8719   28.4973 H   0  0  0  0  0  0
   63.6644   46.1010   28.2592 H   0  0  0  0  0  0
   62.9735   48.8643   35.5842 H   0  0  0  0  0  0
   64.0032   48.6794   34.1696 H   0  0  0  0  0  0
   62.3095   49.0613   33.9646 H   0  0  0  0  0  0
   61.1189   46.8969   36.0894 H   0  0  0  0  0  0
   60.4683   47.3430   34.5389 H   0  0  0  0  0  0
   60.8999   45.6770   34.8450 H   0  0  0  0  0  0
   65.7307   43.4873   34.5687 H   0  0  0  0  0  0
   64.0050   43.5811   34.2387 H   0  0  0  0  0  0
   65.1378   43.2827   32.9363 H   0  0  0  0  0  0
   67.3196   45.5405   33.8032 H   0  0  0  0  0  0
   66.8075   45.1500   32.1831 H   0  0  0  0  0  0
   66.6079   46.7908   32.7915 H   0  0  0  0  0  0
  1  2  2  0  0  0
  1  7  1  0  0  0
  1 14  1  0  0  0
  2  9  1  0  0  0
  2 15  1  0  0  0
  3  6  1  0  0  0
  3 12  1  0  0  0
  3 13  2  0  0  0
  4  7  2  0  0  0
  4  5  1  0  0  0
  4 11  1  0  0  0
  5 10  2  0  0  0
  5 21  1  0  0  0
  6  8  1  0  0  0
  7 27  1  0  0  0
  8 10  1  0  0  0
  8 16  2  0  0  0
  9 11  2  0  0  0
  9 28  1  0  0  0
 10 29  1  0  0  0
 11 22  1  0  0  0
 12 17  2  0  0  0
 12 20  1  0  0  0
 13 16  1  0  0  0
 13 30  1  0  0  0
 14 19  1  0  0  0
 14 23  1  0  0  0
 14 24  1  0  0  0
 15 25  1  0  0  0
 15 26  1  0  0  0
 15 18  1  0  0  0
 16 31  1  0  0  0
 18 19  1  0  0  0
 18 32  1  0  0  0
 18 33  1  0  0  0
 19 34  1  0  0  0
 19 35  1  0  0  0
 20 36  1  0  0  0
 21 37  1  0  0  0
 21 38  1  0  0  0
 21 39  1  0  0  0
 22 40  1  0  0  0
 22 41  1  0  0  0
 22 42  1  0  0  0
 23 43  1  0  0  0
 23 44  1  0  0  0
 23 45  1  0  0  0
 24 46  1  0  0  0
 24 47  1  0  0  0
 24 48  1  0  0  0
 25 49  1  0  0  0
 25 50  1  0  0  0
 25 51  1  0  0  0
 26 52  1  0  0  0
 26 53  1  0  0  0
 26 54  1  0  0  0
M  END
> <s_m_entry_id>
30993

> <s_m_entry_name>
dock_pv.206

> <s_m_Source_Path>
/home/csk/Desktop/cluster/DUD-E-result/rxra

> <s_m_Source_File>
dock_pv.maegz

> <i_m_Source_File_Index>
206

> <chembl_id>
CHEMBL96829

> <chembl_pref_name>
None

> <i_lp_mmshare_version>
53161

> <r_lp_tautomer_probability>
1

> <s_lp_Force_Field>
OPLS_2005

> <r_lp_Energy>
24.897372

> <b_lp_Chiralities_Consistent>
1

> <s_lp_Variant>
CHEMBL2061_lig278-1

> <s_i_glide_gridfile>
glide-grid_1mv9

> <i_i_glide_lignum>
323

> <i_i_glide_rotatable_bonds>
4

> <r_i_docking_score>
-10.4339776908007

> <r_i_glide_ligand_efficiency>
-0.401306834261563

> <r_i_glide_ligand_efficiency_sa>
-1.18886991743374

> <r_i_glide_ligand_efficiency_ln>
-2.45038542401126

> <r_i_glide_gscore>
-10.4339776908007

> <r_i_glide_lipo>
-5.95435045979382

> <r_i_glide_hbond>
-0.147541579762713

> <r_i_glide_metal>
0

> <r_i_glide_rewards>
-2.02123414761741

> <r_i_glide_evdw>
-45.3773460388184

> <r_i_glide_ecoul>
-3.35239219665527

> <r_i_glide_erotb>
0.460874627812507

> <r_i_glide_esite>
0

> <r_i_glide_emodel>
-76.6374186287017

> <r_i_glide_energy>
-48.7297382354736

> <r_i_glide_einternal>
6.16495037078857

> <i_i_glide_confnum>
30

> <i_i_glide_posenum>
327

> <r_i_glide_eff_state_penalty>
0

> <s_user_duplicate_titles>
CHEMBL2061_lig278,155635

> <i_f3d_flags>
0

> <s_m_subgroup_title>
dock_pv

> <s_m_subgroupid>
dock_pv

> <b_m_subgroup_collapsed>
1

$$$$
CHEMBL2061_lig92 
                    3D
 Schrodinger Suite 2021-1.
 58 60  0  0  1  0            999 V2000
   64.8534   43.7530   33.8175 C   0  0  0  0  0  0
   65.0684   45.2500   33.4824 C   0  0  0  0  0  0
   66.4795   45.5212   32.9089 C   0  0  0  0  0  0
   62.9554   48.4858   34.3719 C   0  0  0  0  0  0
   62.6244   46.9806   34.2924 C   0  0  0  0  0  0
   61.1694   46.6909   34.7443 C   0  0  0  0  0  0
   64.0606   45.2260   31.1482 C   0  0  0  0  0  0
   63.0851   45.4919   30.1912 C   0  0  0  0  0  0
   61.9811   46.2819   30.5354 C   0  0  0  0  0  0
   61.9219   46.8021   31.8344 C   0  0  0  0  0  0
   63.9787   45.6875   32.4713 C   0  0  0  0  0  0
   62.8543   46.4776   32.8386 C   0  0  0  0  0  0
   63.5431   46.2303   35.2940 C   0  0  0  0  0  0
   64.9772   46.0832   34.7850 C   0  0  0  0  0  0
   60.9403   46.5283   29.6007 N   0  0  0  0  0  0
   59.5881   46.0961   29.7301 C   0  0  0  0  0  0
   61.1676   47.7841   28.8539 C   0  0  0  0  0  0
   59.0886   45.6770   30.9650 C   0  0  0  0  0  0
   57.7712   45.2776   31.1343 C   0  0  0  0  0  0
   56.8900   45.3107   30.0588 C   0  0  0  0  0  0
   57.3688   45.7039   28.8058 C   0  0  0  0  0  0
   58.7021   46.0804   28.6452 C   0  0  0  0  0  0
   55.4336   45.0303   30.2834 C   0  0  0  0  0  0
   54.8565   45.2772   31.3389 O   0  0  0  0  0  0
   54.8080   44.4766   29.2210 O   0  0  0  0  0  0
   61.3878   47.6256   27.3370 C   0  0  0  0  0  0
   63.2385   44.8617   28.8137 C   0  0  0  0  0  0
   65.5651   43.4095   34.5678 H   0  0  0  0  0  0
   63.8514   43.5476   34.1937 H   0  0  0  0  0  0
   64.9943   43.1232   32.9389 H   0  0  0  0  0  0
   67.2487   45.3320   33.6591 H   0  0  0  0  0  0
   66.7146   44.8788   32.0609 H   0  0  0  0  0  0
   66.5909   46.5554   32.5795 H   0  0  0  0  0  0
   62.7791   48.8739   35.3760 H   0  0  0  0  0  0
   63.9959   48.6995   34.1390 H   0  0  0  0  0  0
   62.3423   49.0704   33.6852 H   0  0  0  0  0  0
   61.0259   46.9241   35.8004 H   0  0  0  0  0  0
   60.4359   47.2769   34.1974 H   0  0  0  0  0  0
   60.8978   45.6484   34.5999 H   0  0  0  0  0  0
   64.8898   44.5962   30.8630 H   0  0  0  0  0  0
   61.0894   47.4409   32.0836 H   0  0  0  0  0  0
   63.5558   46.7437   36.2565 H   0  0  0  0  0  0
   63.1491   45.2383   35.5112 H   0  0  0  0  0  0
   65.3958   47.0766   34.6234 H   0  0  0  0  0  0
   65.5984   45.6399   35.5646 H   0  0  0  0  0  0
   60.3394   48.4757   29.0230 H   0  0  0  0  0  0
   62.0409   48.3081   29.2500 H   0  0  0  0  0  0
   59.7022   45.6771   31.8481 H   0  0  0  0  0  0
   57.4404   45.0032   32.1224 H   0  0  0  0  0  0
   56.7154   45.7587   27.9464 H   0  0  0  0  0  0
   59.0294   46.3654   27.6620 H   0  0  0  0  0  0
   55.4285   44.1774   28.5517 H   0  0  0  0  0  0
   61.9536   48.4699   26.9421 H   0  0  0  0  0  0
   61.9403   46.7208   27.0902 H   0  0  0  0  0  0
   60.4547   47.6095   26.7785 H   0  0  0  0  0  0
   63.9294   44.0171   28.8298 H   0  0  0  0  0  0
   62.2844   44.4807   28.4481 H   0  0  0  0  0  0
   63.6088   45.6022   28.1085 H   0  0  0  0  0  0
  1  2  1  0  0  0
  1 28  1  0  0  0
  1 29  1  0  0  0
  1 30  1  0  0  0
  2  3  1  0  0  0
  2 11  1  0  0  0
  2 14  1  0  0  0
  3 31  1  0  0  0
  3 32  1  0  0  0
  3 33  1  0  0  0
  4  5  1  0  0  0
  4 34  1  0  0  0
  4 35  1  0  0  0
  4 36  1  0  0  0
  5  6  1  0  0  0
  5 12  1  0  0  0
  5 13  1  0  0  0
  6 37  1  0  0  0
  6 38  1  0  0  0
  6 39  1  0  0  0
  7 11  1  0  0  0
  7  8  2  0  0  0
  7 40  1  0  0  0
  8  9  1  0  0  0
  8 27  1  0  0  0
  9 10  2  0  0  0
  9 15  1  0  0  0
 10 12  1  0  0  0
 10 41  1  0  0  0
 11 12  2  0  0  0
 13 14  1  0  0  0
 13 42  1  0  0  0
 13 43  1  0  0  0
 14 44  1  0  0  0
 14 45  1  0  0  0
 15 16  1  0  0  0
 15 17  1  0  0  0
 16 18  2  0  0  0
 16 22  1  0  0  0
 17 26  1  0  0  0
 17 46  1  0  0  0
 17 47  1  0  0  0
 18 19  1  0  0  0
 18 48  1  0  0  0
 19 20  2  0  0  0
 19 49  1  0  0  0
 20 21  1  0  0  0
 20 23  1  0  0  0
 21 22  2  0  0  0
 21 50  1  0  0  0
 22 51  1  0  0  0
 23 24  2  0  0  0
 23 25  1  0  0  0
 25 52  1  0  0  0
 26 53  1  0  0  0
 26 54  1  0  0  0
 26 55  1  0  0  0
 27 56  1  0  0  0
 27 57  1  0  0  0
 27 58  1  0  0  0
M  END
> <s_m_entry_id>
30995

> <s_m_entry_name>
dock_pv.208

> <s_m_Source_Path>
/home/csk/Desktop/cluster/DUD-E-result/rxra

> <s_m_Source_File>
dock_pv.maegz

> <i_m_Source_File_Index>
208

> <chembl_id>
CHEMBL4547228

> <chembl_pref_name>
None

> <i_lp_mmshare_version>
53161

> <r_lp_tautomer_probability>
1

> <s_lp_Force_Field>
OPLS_2005

> <r_lp_Energy>
30.049321

> <b_lp_Chiralities_Consistent>
1

> <s_lp_Variant>
CHEMBL2061_lig92 -1

> <s_i_glide_gridfile>
glide-grid_1mv9

> <i_i_glide_lignum>
131

> <i_i_glide_rotatable_bonds>
5

> <r_i_docking_score>
-10.4212581605308

> <r_i_glide_ligand_efficiency>
-0.385972524464104

> <r_i_glide_ligand_efficiency_sa>
-1.15791757212021

> <r_i_glide_ligand_efficiency_ln>
-2.42589709190328

> <r_i_glide_gscore>
-10.4212581605308

> <r_i_glide_lipo>
-6.4168631963102

> <r_i_glide_hbond>
-0.0135342438625614

> <r_i_glide_metal>
0

> <r_i_glide_rewards>
-1.66420654662459

> <r_i_glide_evdw>
-45.9457054138184

> <r_i_glide_ecoul>
-3.07565093040466

> <r_i_glide_erotb>
0.431978736518155

> <r_i_glide_esite>
0

> <r_i_glide_emodel>
-75.2248818386075

> <r_i_glide_energy>
-49.021356344223

> <r_i_glide_einternal>
5.31127214431763

> <i_i_glide_confnum>
14

> <i_i_glide_posenum>
223

> <r_i_glide_eff_state_penalty>
0

> <s_user_duplicate_titles>
CHEMBL2061_lig92 

> <i_f3d_flags>
0

> <s_m_subgroup_title>
dock_pv

> <s_m_subgroupid>
dock_pv

> <b_m_subgroup_collapsed>
1

$$$$
CHEMBL2061_lig328
                    3D
 Schrodinger Suite 2021-1.
 48 50  0  0  1  0            999 V2000
   63.0400   46.5253   32.8615 C   0  0  0  0  0  0
   64.1492   45.6677   32.6144 C   0  0  0  0  0  0
   62.6332   46.9827   34.2900 C   0  0  0  0  0  0
   65.0546   45.1387   33.7504 C   0  0  0  0  0  0
   55.8559   45.2142   30.0442 C   0  0  0  0  0  0
   64.3938   45.2533   31.2920 C   0  0  0  0  0  0
   62.3055   46.9883   31.7539 C   0  0  0  0  0  0
   57.3007   45.5173   29.7614 C   0  0  0  0  0  0
   61.5587   47.0695   29.0880 S   0  0  0  0  0  0
   62.5534   46.5394   30.4573 C   0  0  0  0  0  0
   63.4079   46.2084   35.3850 C   0  0  0  0  0  0
   64.8723   45.9859   35.0307 C   0  0  0  0  0  0
   55.3617   45.2769   31.1694 O   0  0  0  0  0  0
   57.6881   46.0768   28.5391 C   0  0  0  0  0  0
   58.2624   45.3316   30.7547 C   0  0  0  0  0  0
   59.9444   46.3581   29.3404 C   0  0  0  0  0  0
   63.6071   45.6704   30.2276 C   0  0  0  0  0  0
   55.1438   44.8768   28.9400 O   0  0  0  0  0  0
   59.0041   46.4780   28.3242 C   0  0  0  0  0  0
   59.5710   45.7528   30.5393 C   0  0  0  0  0  0
   62.9729   48.4769   34.4475 C   0  0  0  0  0  0
   61.1353   46.6864   34.5394 C   0  0  0  0  0  0
   64.6691   43.6716   34.0357 C   0  0  0  0  0  0
   66.5425   45.2815   33.3706 C   0  0  0  0  0  0
   65.2024   44.5727   31.0751 H   0  0  0  0  0  0
   61.4922   47.6811   31.9057 H   0  0  0  0  0  0
   62.9449   45.2447   35.5837 H   0  0  0  0  0  0
   63.3522   46.7401   36.3349 H   0  0  0  0  0  0
   65.3793   45.5167   35.8733 H   0  0  0  0  0  0
   65.3516   46.9574   34.9117 H   0  0  0  0  0  0
   56.9702   46.2287   27.7464 H   0  0  0  0  0  0
   57.9969   44.9172   31.7182 H   0  0  0  0  0  0
   63.8202   45.3181   29.2287 H   0  0  0  0  0  0
   55.7188   44.6615   28.2039 H   0  0  0  0  0  0
   59.2780   46.9366   27.3853 H   0  0  0  0  0  0
   60.2585   45.6770   31.3592 H   0  0  0  0  0  0
   62.7684   48.8365   35.4565 H   0  0  0  0  0  0
   64.0224   48.6796   34.2412 H   0  0  0  0  0  0
   62.3934   49.0921   33.7579 H   0  0  0  0  0  0
   60.8458   46.9145   35.5660 H   0  0  0  0  0  0
   60.4873   47.2766   33.8987 H   0  0  0  0  0  0
   60.8884   45.6424   34.3541 H   0  0  0  0  0  0
   65.2215   43.2775   34.8881 H   0  0  0  0  0  0
   63.6080   43.5497   34.2452 H   0  0  0  0  0  0
   64.8975   43.0275   33.1855 H   0  0  0  0  0  0
   67.1977   45.0092   34.1999 H   0  0  0  0  0  0
   66.8081   44.6286   32.5420 H   0  0  0  0  0  0
   66.7941   46.3023   33.0783 H   0  0  0  0  0  0
  1  2  2  0  0  0
  1  3  1  0  0  0
  1  7  1  0  0  0
  2  4  1  0  0  0
  2  6  1  0  0  0
  3 11  1  0  0  0
  3 21  1  0  0  0
  3 22  1  0  0  0
  4 23  1  0  0  0
  4 24  1  0  0  0
  4 12  1  0  0  0
  5  8  1  0  0  0
  5 13  2  0  0  0
  5 18  1  0  0  0
  6 17  2  0  0  0
  6 25  1  0  0  0
  7 10  2  0  0  0
  7 26  1  0  0  0
  8 15  1  0  0  0
  8 14  2  0  0  0
  9 10  1  0  0  0
  9 16  1  0  0  0
 10 17  1  0  0  0
 11 12  1  0  0  0
 11 27  1  0  0  0
 11 28  1  0  0  0
 12 29  1  0  0  0
 12 30  1  0  0  0
 14 19  1  0  0  0
 14 31  1  0  0  0
 15 20  2  0  0  0
 15 32  1  0  0  0
 16 19  2  0  0  0
 16 20  1  0  0  0
 17 33  1  0  0  0
 18 34  1  0  0  0
 19 35  1  0  0  0
 20 36  1  0  0  0
 21 37  1  0  0  0
 21 38  1  0  0  0
 21 39  1  0  0  0
 22 40  1  0  0  0
 22 41  1  0  0  0
 22 42  1  0  0  0
 23 43  1  0  0  0
 23 44  1  0  0  0
 23 45  1  0  0  0
 24 46  1  0  0  0
 24 47  1  0  0  0
 24 48  1  0  0  0
M  END
> <s_m_entry_id>
30996

> <s_m_entry_name>
dock_pv.209

> <s_m_Source_Path>
/home/csk/Desktop/cluster/DUD-E-result/rxra

> <s_m_Source_File>
dock_pv.maegz

> <i_m_Source_File_Index>
209

> <chembl_id>
CHEMBL119781

> <chembl_pref_name>
None

> <i_lp_mmshare_version>
53161

> <r_lp_tautomer_probability>
1

> <s_lp_Force_Field>
OPLS_2005

> <r_lp_Energy>
23.140746

> <b_lp_Chiralities_Consistent>
1

> <s_lp_Variant>
CHEMBL2061_lig328-1

> <s_i_glide_gridfile>
glide-grid_1mv9

> <i_i_glide_lignum>
388

> <i_i_glide_rotatable_bonds>
4

> <r_i_docking_score>
-10.420827215235

> <r_i_glide_ligand_efficiency>
-0.434201133968126

> <r_i_glide_ligand_efficiency_sa>
-1.25245279645825

> <r_i_glide_ligand_efficiency_ln>
-2.49418213320798

> <r_i_glide_gscore>
-10.420827215235

> <r_i_glide_lipo>
-5.91669705817817

> <r_i_glide_hbond>
0

> <r_i_glide_metal>
0

> <r_i_glide_rewards>
-2.43763595454545

> <r_i_glide_evdw>
-46.7783889770508

> <r_i_glide_ecoul>
-1.45104992389679

> <r_i_glide_erotb>
0.490082734925663

> <r_i_glide_esite>
0

> <r_i_glide_emodel>
-74.8242154657516

> <r_i_glide_energy>
-48.2294389009476

> <r_i_glide_einternal>
2.97732377052307

> <i_i_glide_confnum>
27

> <i_i_glide_posenum>
326

> <r_i_glide_eff_state_penalty>
0

> <s_user_duplicate_titles>
CHEMBL2061_lig328,195265

> <i_f3d_flags>
0

> <s_m_subgroup_title>
dock_pv

> <s_m_subgroupid>
dock_pv

> <b_m_subgroup_collapsed>
1

$$$$
CHEMBL2061_lig423
                    3D
 Schrodinger Suite 2021-1.
 66 67  0  0  1  0            999 V2000
   64.1261   44.6088   31.4304 C   0  0  0  0  0  0
   63.4867   45.0003   30.2499 C   0  0  0  0  0  0
   62.7151   46.1641   30.2530 C   0  0  0  0  0  0
   62.5369   46.8482   31.4552 C   0  0  0  0  0  0
   63.9402   45.2765   32.6524 C   0  0  0  0  0  0
   63.0814   46.4085   32.6699 C   0  0  0  0  0  0
   62.6124   47.0415   33.9968 C   0  0  0  0  0  0
   63.6991   46.8346   35.0804 C   0  0  0  0  0  0
   64.0858   45.3703   35.2306 C   0  0  0  0  0  0
   64.6374   44.7261   33.9254 C   0  0  0  0  0  0
   62.0902   46.6309   29.0718 N   0  0  0  0  0  0
   61.0438   45.7925   28.4902 C   0  0  0  0  0  0
   59.7673   45.6770   29.3025 C   0  0  0  0  0  0
   58.5348   45.9229   28.8200 C   0  0  0  0  0  0
   57.2874   45.7744   29.5654 C   0  0  0  0  0  0
   56.1518   46.1192   28.9074 C   0  0  0  0  0  0
   57.3242   45.2813   31.0159 C   0  0  0  0  0  0
   54.8071   46.0770   29.4234 C   0  0  0  0  0  0
   54.0671   47.1142   28.9374 O   0  0  0  0  0  0
   54.3506   45.2290   30.1886 O   0  0  0  0  0  0
   62.0266   48.0694   28.8373 C   0  0  0  0  0  0
   62.3596   48.4788   27.3919 C   0  0  0  0  0  0
   62.4077   48.5644   33.9153 C   0  0  0  0  0  0
   61.2831   46.3413   34.3846 C   0  0  0  0  0  0
   64.3483   43.2068   34.0548 C   0  0  0  0  0  0
   66.1464   45.0606   33.8269 C   0  0  0  0  0  0
   63.7189   47.9636   26.8832 C   0  0  0  0  0  0
   63.6080   44.2935   29.0726 O   0  0  0  0  0  0
   63.6393   42.8772   29.1546 C   0  0  0  0  0  0
   64.7686   43.7434   31.4120 H   0  0  0  0  0  0
   61.8679   47.6920   31.4455 H   0  0  0  0  0  0
   63.3565   47.2168   36.0441 H   0  0  0  0  0  0
   64.5944   47.4110   34.8388 H   0  0  0  0  0  0
   63.2081   44.8370   35.5899 H   0  0  0  0  0  0
   64.8076   45.2685   36.0429 H   0  0  0  0  0  0
   61.4165   44.7753   28.3915 H   0  0  0  0  0  0
   60.8242   46.1129   27.4714 H   0  0  0  0  0  0
   59.9039   45.3468   30.3215 H   0  0  0  0  0  0
   58.4783   46.2471   27.7894 H   0  0  0  0  0  0
   56.2083   46.4654   27.8861 H   0  0  0  0  0  0
   58.0492   45.8718   31.5761 H   0  0  0  0  0  0
   56.3877   45.3706   31.5611 H   0  0  0  0  0  0
   57.6872   44.2536   31.0552 H   0  0  0  0  0  0
   54.6060   47.7058   28.4078 H   0  0  0  0  0  0
   61.0699   48.4743   29.1667 H   0  0  0  0  0  0
   62.8080   48.4795   29.4709 H   0  0  0  0  0  0
   61.5741   48.1207   26.7253 H   0  0  0  0  0  0
   62.3317   49.5669   27.3391 H   0  0  0  0  0  0
   61.9620   48.8768   34.8570 H   0  0  0  0  0  0
   63.3349   49.1088   33.7784 H   0  0  0  0  0  0
   61.7347   48.8896   33.1265 H   0  0  0  0  0  0
   61.0522   46.4542   35.4446 H   0  0  0  0  0  0
   60.4437   46.7616   33.8298 H   0  0  0  0  0  0
   61.2879   45.2778   34.1448 H   0  0  0  0  0  0
   64.4106   42.8771   35.0895 H   0  0  0  0  0  0
   63.3390   42.9448   33.7392 H   0  0  0  0  0  0
   65.0382   42.6039   33.4632 H   0  0  0  0  0  0
   66.6951   44.7008   34.6964 H   0  0  0  0  0  0
   66.6025   44.5956   32.9531 H   0  0  0  0  0  0
   66.3216   46.1345   33.7508 H   0  0  0  0  0  0
   63.8773   48.2294   25.8378 H   0  0  0  0  0  0
   64.5450   48.3789   27.4622 H   0  0  0  0  0  0
   63.7828   46.8773   26.9445 H   0  0  0  0  0  0
   63.5561   42.4773   28.1442 H   0  0  0  0  0  0
   64.5708   42.5052   29.5831 H   0  0  0  0  0  0
   62.8075   42.4814   29.7376 H   0  0  0  0  0  0
  1  2  1  0  0  0
  1  5  2  0  0  0
  1 30  1  0  0  0
  2  3  2  0  0  0
  2 28  1  0  0  0
  3  4  1  0  0  0
  3 11  1  0  0  0
  4  6  2  0  0  0
  4 31  1  0  0  0
  5 10  1  0  0  0
  5  6  1  0  0  0
  6  7  1  0  0  0
  7  8  1  0  0  0
  7 23  1  0  0  0
  7 24  1  0  0  0
  8  9  1  0  0  0
  8 32  1  0  0  0
  8 33  1  0  0  0
  9 10  1  0  0  0
  9 34  1  0  0  0
  9 35  1  0  0  0
 10 25  1  0  0  0
 10 26  1  0  0  0
 11 21  1  0  0  0
 11 12  1  0  0  0
 12 13  1  0  0  0
 12 36  1  0  0  0
 12 37  1  0  0  0
 13 14  2  0  0  0
 13 38  1  0  0  0
 14 15  1  0  0  0
 14 39  1  0  0  0
 15 16  2  0  0  0
 15 17  1  0  0  0
 16 18  1  0  0  0
 16 40  1  0  0  0
 17 41  1  0  0  0
 17 42  1  0  0  0
 17 43  1  0  0  0
 18 19  1  0  0  0
 18 20  2  0  0  0
 19 44  1  0  0  0
 21 22  1  0  0  0
 21 45  1  0  0  0
 21 46  1  0  0  0
 22 27  1  0  0  0
 22 47  1  0  0  0
 22 48  1  0  0  0
 23 49  1  0  0  0
 23 50  1  0  0  0
 23 51  1  0  0  0
 24 52  1  0  0  0
 24 53  1  0  0  0
 24 54  1  0  0  0
 25 55  1  0  0  0
 25 56  1  0  0  0
 25 57  1  0  0  0
 26 58  1  0  0  0
 26 59  1  0  0  0
 26 60  1  0  0  0
 27 61  1  0  0  0
 27 62  1  0  0  0
 27 63  1  0  0  0
 28 29  1  0  0  0
 29 64  1  0  0  0
 29 65  1  0  0  0
 29 66  1  0  0  0
M  END
> <s_m_entry_id>
30997

> <s_m_entry_name>
dock_pv.210

> <s_m_Source_Path>
/home/csk/Desktop/cluster/DUD-E-result/rxra

> <s_m_Source_File>
dock_pv.maegz

> <i_m_Source_File_Index>
210

> <chembl_id>
CHEMBL204773

> <chembl_pref_name>
None

> <i_lp_mmshare_version>
53161

> <r_lp_tautomer_probability>
1

> <s_lp_Force_Field>
OPLS_2005

> <r_lp_Energy>
34.277869

> <b_lp_Chiralities_Consistent>
1

> <s_lp_Variant>
CHEMBL2061_lig423-1

> <s_i_glide_gridfile>
glide-grid_1mv9

> <i_i_glide_lignum>
494

> <i_i_glide_rotatable_bonds>
9

> <r_i_docking_score>
-10.4192274747417

> <r_i_glide_ligand_efficiency>
-0.359283706025575

> <r_i_glide_ligand_efficiency_sa>
-1.10383337397816

> <r_i_glide_ligand_efficiency_ln>
-2.38573888290364

> <r_i_glide_gscore>
-10.4192274747417

> <r_i_glide_lipo>
-6.1453590297766

> <r_i_glide_hbond>
-0.038416395940444

> <r_i_glide_metal>
0

> <r_i_glide_rewards>
-1.95343165589438

> <r_i_glide_evdw>
-49.2400856018066

> <r_i_glide_ecoul>
-3.70968723297119

> <r_i_glide_erotb>
0.736436971905758

> <r_i_glide_esite>
0

> <r_i_glide_emodel>
-71.2208232714334

> <r_i_glide_energy>
-52.9497728347778

> <r_i_glide_einternal>
8.54615211486816

> <i_i_glide_confnum>
226

> <i_i_glide_posenum>
327

> <r_i_glide_eff_state_penalty>
0

> <s_user_duplicate_titles>
CHEMBL2061_lig423,345437

> <i_f3d_flags>
0

> <s_m_subgroup_title>
dock_pv

> <s_m_subgroupid>
dock_pv

> <b_m_subgroup_collapsed>
1

$$$$
CHEMBL2061_lig363
                    3D
 Schrodinger Suite 2021-1.
 55 57  0  0  1  0            999 V2000
   61.1489   46.4576   29.1680 C   0  0  0  0  0  0
   62.7603   46.4682   32.6510 C   0  0  0  0  0  0
   63.9749   45.7661   32.4134 C   0  0  0  0  0  0
   61.9159   46.7237   31.5568 C   0  0  0  0  0  0
   62.1743   46.2397   30.2777 C   0  0  0  0  0  0
   59.8107   45.7899   29.4844 C   0  0  0  0  0  0
   61.5593   46.4734   27.7065 C   0  0  0  0  0  0
   61.1935   47.7627   28.3857 C   0  0  0  0  0  0
   62.3256   46.9398   34.0595 C   0  0  0  0  0  0
   64.9771   45.4297   33.5448 C   0  0  0  0  0  0
   64.2333   45.3126   31.1073 C   0  0  0  0  0  0
   56.1877   46.3860   29.3686 C   0  0  0  0  0  0
   58.5829   46.3334   29.3447 C   0  0  0  0  0  0
   54.8081   46.0274   29.6039 C   0  0  0  0  0  0
   57.3108   45.6840   29.6709 C   0  0  0  0  0  0
   63.3486   45.5279   30.0580 C   0  0  0  0  0  0
   63.1991   46.2984   35.1708 C   0  0  0  0  0  0
   64.6846   46.2675   34.8156 C   0  0  0  0  0  0
   54.3980   45.1440   30.3542 O   0  0  0  0  0  0
   53.9721   46.8770   28.9392 O   0  0  0  0  0  0
   62.4880   48.4731   34.1393 C   0  0  0  0  0  0
   60.8737   46.4733   34.3428 C   0  0  0  0  0  0
   64.8475   43.9257   33.8871 C   0  0  0  0  0  0
   66.4081   45.8136   33.1145 C   0  0  0  0  0  0
   57.3097   44.2917   30.3003 C   0  0  0  0  0  0
   61.0027   47.2777   31.7074 H   0  0  0  0  0  0
   59.9090   44.7776   29.8470 H   0  0  0  0  0  0
   62.6013   46.3272   27.4219 H   0  0  0  0  0  0
   60.8716   46.0733   26.9605 H   0  0  0  0  0  0
   60.2816   48.2655   28.0677 H   0  0  0  0  0  0
   61.9895   48.4750   28.6074 H   0  0  0  0  0  0
   65.1275   44.7456   30.8981 H   0  0  0  0  0  0
   56.3004   47.3652   28.9387 H   0  0  0  0  0  0
   58.5395   47.3429   28.9661 H   0  0  0  0  0  0
   63.5793   45.1232   29.0838 H   0  0  0  0  0  0
   62.8773   45.2788   35.3822 H   0  0  0  0  0  0
   63.0614   46.8342   36.1105 H   0  0  0  0  0  0
   65.2533   45.8828   35.6643 H   0  0  0  0  0  0
   65.0375   47.2911   34.6845 H   0  0  0  0  0  0
   54.4633   47.5029   28.4031 H   0  0  0  0  0  0
   62.0487   48.8516   35.0604 H   0  0  0  0  0  0
   63.5304   48.7892   34.1383 H   0  0  0  0  0  0
   62.0077   48.9867   33.3074 H   0  0  0  0  0  0
   60.5563   46.7658   35.3422 H   0  0  0  0  0  0
   60.1391   46.8769   33.6519 H   0  0  0  0  0  0
   60.7782   45.3900   34.2716 H   0  0  0  0  0  0
   65.4824   43.6592   34.7327 H   0  0  0  0  0  0
   63.8256   43.6395   34.1381 H   0  0  0  0  0  0
   65.1543   43.2987   33.0491 H   0  0  0  0  0  0
   67.1172   45.6946   33.9357 H   0  0  0  0  0  0
   66.7770   45.1868   32.3034 H   0  0  0  0  0  0
   66.4682   46.8507   32.7809 H   0  0  0  0  0  0
   58.0064   43.6639   29.7483 H   0  0  0  0  0  0
   57.6708   44.3259   31.3322 H   0  0  0  0  0  0
   56.3663   43.7553   30.2416 H   0  0  0  0  0  0
  1  5  1  0  0  0
  1  6  1  0  0  0
  1  7  1  0  0  0
  1  8  1  0  0  0
  2  4  1  0  0  0
  2  9  1  0  0  0
  2  3  2  0  0  0
  3 11  1  0  0  0
  3 10  1  0  0  0
  4  5  2  0  0  0
  4 26  1  0  0  0
  5 16  1  0  0  0
  6 13  2  0  0  0
  6 27  1  0  0  0
  7  8  1  0  0  0
  7 28  1  0  0  0
  7 29  1  0  0  0
  8 30  1  0  0  0
  8 31  1  0  0  0
  9 17  1  0  0  0
  9 21  1  0  0  0
  9 22  1  0  0  0
 10 18  1  0  0  0
 10 23  1  0  0  0
 10 24  1  0  0  0
 11 16  2  0  0  0
 11 32  1  0  0  0
 12 15  2  0  0  0
 12 14  1  0  0  0
 12 33  1  0  0  0
 13 15  1  0  0  0
 13 34  1  0  0  0
 14 19  2  0  0  0
 14 20  1  0  0  0
 15 25  1  0  0  0
 16 35  1  0  0  0
 17 18  1  0  0  0
 17 36  1  0  0  0
 17 37  1  0  0  0
 18 38  1  0  0  0
 18 39  1  0  0  0
 20 40  1  0  0  0
 21 41  1  0  0  0
 21 42  1  0  0  0
 21 43  1  0  0  0
 22 44  1  0  0  0
 22 45  1  0  0  0
 22 46  1  0  0  0
 23 47  1  0  0  0
 23 48  1  0  0  0
 23 49  1  0  0  0
 24 50  1  0  0  0
 24 51  1  0  0  0
 24 52  1  0  0  0
 25 53  1  0  0  0
 25 54  1  0  0  0
 25 55  1  0  0  0
M  END
> <s_m_entry_id>
30998

> <s_m_entry_name>
dock_pv.211

> <s_m_Source_Path>
/home/csk/Desktop/cluster/DUD-E-result/rxra

> <s_m_Source_File>
dock_pv.maegz

> <i_m_Source_File_Index>
211

> <chembl_id>
CHEMBL93518

> <chembl_pref_name>
None

> <i_lp_mmshare_version>
53161

> <r_lp_tautomer_probability>
1

> <s_lp_Force_Field>
OPLS_2005

> <r_lp_Energy>
33.208254

> <b_lp_Chiralities_Consistent>
1

> <s_lp_Variant>
CHEMBL2061_lig363-1

> <s_i_glide_gridfile>
glide-grid_1mv9

> <i_i_glide_lignum>
423

> <i_i_glide_rotatable_bonds>
5

> <r_i_docking_score>
-10.4186928526616

> <r_i_glide_ligand_efficiency>
-0.416747714106466

> <r_i_glide_ligand_efficiency_sa>
-1.21857770709949

> <r_i_glide_ligand_efficiency_ln>
-2.46954242911075

> <r_i_glide_gscore>
-10.4186928526616

> <r_i_glide_lipo>
-5.9939973839155

> <r_i_glide_hbond>
-0.0374630905027852

> <r_i_glide_metal>
0

> <r_i_glide_rewards>
-2.00975724634871

> <r_i_glide_evdw>
-49.7095832824707

> <r_i_glide_ecoul>
-3.68192172050476

> <r_i_glide_erotb>
0.660292290304604

> <r_i_glide_esite>
0

> <r_i_glide_emodel>
-85.8300764272384

> <r_i_glide_energy>
-53.3915050029755

> <r_i_glide_einternal>
2.90553331375122

> <i_i_glide_confnum>
148

> <i_i_glide_posenum>
132

> <r_i_glide_eff_state_penalty>
0

> <s_user_duplicate_titles>
CHEMBL2061_lig363,151387

> <i_f3d_flags>
0

> <s_m_subgroup_title>
dock_pv

> <s_m_subgroupid>
dock_pv

> <b_m_subgroup_collapsed>
1

$$$$
CHEMBL2061_lig329
                    3D
 Schrodinger Suite 2021-1.
 51 53  0  0  1  0            999 V2000
   63.0659   46.6180   32.6963 C   0  0  0  0  0  0
   63.9941   45.5785   32.4068 C   0  0  0  0  0  0
   62.3043   47.1444   31.6366 C   0  0  0  0  0  0
   62.3949   46.6553   30.3363 C   0  0  0  0  0  0
   64.1257   45.1624   31.0699 C   0  0  0  0  0  0
   62.7772   47.0869   34.1455 C   0  0  0  0  0  0
   64.8668   44.9009   33.4990 C   0  0  0  0  0  0
   55.7642   45.0583   30.2229 C   0  0  0  0  0  0
   63.3279   45.6643   30.0422 C   0  0  0  0  0  0
   61.2900   47.2734   29.0824 S   0  0  0  0  0  0
   57.1789   45.4149   29.8545 C   0  0  0  0  0  0
   63.9273   46.6697   35.1000 C   0  0  0  0  0  0
   64.3412   45.2155   34.9245 C   0  0  0  0  0  0
   55.2923   45.2770   31.3389 O   0  0  0  0  0  0
   57.4868   45.9857   28.6119 C   0  0  0  0  0  0
   58.1891   45.2770   30.8057 C   0  0  0  0  0  0
   59.7557   46.4033   29.3426 C   0  0  0  0  0  0
   55.0498   44.4772   29.2265 O   0  0  0  0  0  0
   59.4723   45.7461   30.5390 C   0  0  0  0  0  0
   58.7729   46.4769   28.3630 C   0  0  0  0  0  0
   62.7091   48.6235   34.2715 C   0  0  0  0  0  0
   64.7875   43.3579   33.3817 C   0  0  0  0  0  0
   66.3143   45.4373   33.3633 C   0  0  0  0  0  0
   61.4439   46.4280   34.5806 C   0  0  0  0  0  0
   63.4892   45.1175   28.6321 C   0  0  0  0  0  0
   61.5643   47.9020   31.8360 H   0  0  0  0  0  0
   64.8522   44.4032   30.8205 H   0  0  0  0  0  0
   64.8068   47.2952   34.9377 H   0  0  0  0  0  0
   63.6434   46.8468   36.1394 H   0  0  0  0  0  0
   65.0906   44.9530   35.6728 H   0  0  0  0  0  0
   63.4808   44.5941   35.1668 H   0  0  0  0  0  0
   56.7268   46.1021   27.8542 H   0  0  0  0  0  0
   57.9861   44.8469   31.7770 H   0  0  0  0  0  0
   55.6055   44.2120   28.4883 H   0  0  0  0  0  0
   60.2066   45.6789   31.3252 H   0  0  0  0  0  0
   58.9879   46.9621   27.4255 H   0  0  0  0  0  0
   62.3802   48.8768   35.2791 H   0  0  0  0  0  0
   63.6768   49.1050   34.1390 H   0  0  0  0  0  0
   62.0082   49.0913   33.5821 H   0  0  0  0  0  0
   65.4080   42.8862   34.1389 H   0  0  0  0  0  0
   63.7688   42.9844   33.5027 H   0  0  0  0  0  0
   65.1458   42.9845   32.4292 H   0  0  0  0  0  0
   66.9656   45.0355   34.1400 H   0  0  0  0  0  0
   66.7535   45.1555   32.4060 H   0  0  0  0  0  0
   66.3594   46.5246   33.4288 H   0  0  0  0  0  0
   61.3114   46.4353   35.6642 H   0  0  0  0  0  0
   60.5885   46.9506   34.1528 H   0  0  0  0  0  0
   61.3624   45.4022   34.2301 H   0  0  0  0  0  0
   64.3639   44.4783   28.5420 H   0  0  0  0  0  0
   62.6037   44.5492   28.3434 H   0  0  0  0  0  0
   63.6071   45.9349   27.9203 H   0  0  0  0  0  0
  1  2  2  0  0  0
  1  3  1  0  0  0
  1  6  1  0  0  0
  2  5  1  0  0  0
  2  7  1  0  0  0
  3  4  2  0  0  0
  3 26  1  0  0  0
  4  9  1  0  0  0
  4 10  1  0  0  0
  5  9  2  0  0  0
  5 27  1  0  0  0
  6 12  1  0  0  0
  6 21  1  0  0  0
  6 24  1  0  0  0
  7 22  1  0  0  0
  7 23  1  0  0  0
  7 13  1  0  0  0
  8 11  1  0  0  0
  8 14  2  0  0  0
  8 18  1  0  0  0
  9 25  1  0  0  0
 10 17  1  0  0  0
 11 15  1  0  0  0
 11 16  2  0  0  0
 12 13  1  0  0  0
 12 28  1  0  0  0
 12 29  1  0  0  0
 13 30  1  0  0  0
 13 31  1  0  0  0
 15 20  2  0  0  0
 15 32  1  0  0  0
 16 19  1  0  0  0
 16 33  1  0  0  0
 17 19  2  0  0  0
 17 20  1  0  0  0
 18 34  1  0  0  0
 19 35  1  0  0  0
 20 36  1  0  0  0
 21 37  1  0  0  0
 21 38  1  0  0  0
 21 39  1  0  0  0
 22 40  1  0  0  0
 22 41  1  0  0  0
 22 42  1  0  0  0
 23 43  1  0  0  0
 23 44  1  0  0  0
 23 45  1  0  0  0
 24 46  1  0  0  0
 24 47  1  0  0  0
 24 48  1  0  0  0
 25 49  1  0  0  0
 25 50  1  0  0  0
 25 51  1  0  0  0
M  END
> <s_m_entry_id>
30999

> <s_m_entry_name>
dock_pv.212

> <s_m_Source_Path>
/home/csk/Desktop/cluster/DUD-E-result/rxra

> <s_m_Source_File>
dock_pv.maegz

> <i_m_Source_File_Index>
212

> <chembl_id>
CHEMBL118693

> <chembl_pref_name>
None

> <i_lp_mmshare_version>
53161

> <r_lp_tautomer_probability>
1

> <s_lp_Force_Field>
OPLS_2005

> <r_lp_Energy>
24.163297

> <b_lp_Chiralities_Consistent>
1

> <s_lp_Variant>
CHEMBL2061_lig329-1

> <s_i_glide_gridfile>
glide-grid_1mv9

> <i_i_glide_lignum>
389

> <i_i_glide_rotatable_bonds>
4

> <r_i_docking_score>
-10.4124721989622

> <r_i_glide_ligand_efficiency>
-0.416498887958486

> <r_i_glide_ligand_efficiency_sa>
-1.21785013502984

> <r_i_glide_ligand_efficiency_ln>
-2.46806794776602

> <r_i_glide_gscore>
-10.4124721989622

> <r_i_glide_lipo>
-6.11878099876652

> <r_i_glide_hbond>
0

> <r_i_glide_metal>
0

> <r_i_glide_rewards>
-2.2858499200263

> <r_i_glide_evdw>
-42.273811340332

> <r_i_glide_ecoul>
-2.3354434967041

> <r_i_glide_erotb>
0.456165811352881

> <r_i_glide_esite>
0

> <r_i_glide_emodel>
-63.7512026702445

> <r_i_glide_energy>
-44.6092548370361

> <r_i_glide_einternal>
4.62888669967651

> <i_i_glide_confnum>
2

> <i_i_glide_posenum>
343

> <r_i_glide_eff_state_penalty>
0

> <s_user_duplicate_titles>
CHEMBL2061_lig329,195869

> <i_f3d_flags>
0

> <s_m_subgroup_title>
dock_pv

> <s_m_subgroupid>
dock_pv

> <b_m_subgroup_collapsed>
1

$$$$
CHEMBL2061_lig258
                    3D
 Schrodinger Suite 2021-1.
 60 62  0  0  1  0            999 V2000
   62.8860   46.5400   32.4432 C   0  0  0  0  0  0
   63.8935   45.5577   32.2542 C   0  0  0  0  0  0
   61.0649   46.6111   29.0508 C   0  0  0  0  0  0
   62.1627   46.2577   30.1031 C   0  0  0  0  0  0
   62.0707   46.8761   31.3505 C   0  0  0  0  0  0
   64.0190   44.9863   30.9776 C   0  0  0  0  0  0
   63.1518   45.2800   29.9266 C   0  0  0  0  0  0
   59.8031   45.8422   29.3786 C   0  0  0  0  0  0
   62.5600   47.1223   33.8375 C   0  0  0  0  0  0
   64.8420   45.0975   33.3947 C   0  0  0  0  0  0
   56.1747   46.2299   29.3423 C   0  0  0  0  0  0
   58.5514   46.3323   29.3058 C   0  0  0  0  0  0
   54.8069   45.7997   29.4844 C   0  0  0  0  0  0
   61.4408   46.3485   27.7308 O   0  0  0  0  0  0
   60.8114   47.9804   29.0701 O   0  0  0  0  0  0
   57.3376   45.5972   29.6454 C   0  0  0  0  0  0
   64.3241   45.5395   34.7913 C   0  0  0  0  0  0
   63.7660   46.9556   34.7995 C   0  0  0  0  0  0
   53.8617   46.5709   29.3406 O   0  0  0  0  0  0
   54.6354   44.4770   29.7369 O   0  0  0  0  0  0
   63.2601   44.4489   28.6604 C   0  0  0  0  0  0
   62.2770   48.6377   33.8078 C   0  0  0  0  0  0
   61.3285   46.3435   34.3664 C   0  0  0  0  0  0
   64.8977   43.5516   33.4774 C   0  0  0  0  0  0
   66.2305   45.7351   33.1414 C   0  0  0  0  0  0
   62.0656   47.4993   27.2029 C   0  0  0  0  0  0
   61.3117   48.5958   27.9069 C   0  0  0  0  0  0
   57.4510   44.2425   30.3516 C   0  0  0  0  0  0
   61.2596   47.5716   31.4933 H   0  0  0  0  0  0
   64.7857   44.2468   30.8060 H   0  0  0  0  0  0
   59.9927   44.8309   29.6964 H   0  0  0  0  0  0
   56.2126   47.2293   28.9389 H   0  0  0  0  0  0
   58.4504   47.3521   28.9603 H   0  0  0  0  0  0
   65.1170   45.4510   35.5367 H   0  0  0  0  0  0
   63.5348   44.8753   35.1459 H   0  0  0  0  0  0
   64.5718   47.6413   34.5298 H   0  0  0  0  0  0
   63.4814   47.2300   35.8170 H   0  0  0  0  0  0
   55.4755   44.0201   29.6650 H   0  0  0  0  0  0
   63.9344   43.6005   28.7767 H   0  0  0  0  0  0
   62.2867   44.0403   28.3877 H   0  0  0  0  0  0
   63.6060   45.0735   27.8411 H   0  0  0  0  0  0
   61.7815   48.8765   34.7465 H   0  0  0  0  0  0
   63.1774   49.2457   33.7423 H   0  0  0  0  0  0
   61.6177   48.9649   33.0065 H   0  0  0  0  0  0
   61.1981   46.4577   35.4434 H   0  0  0  0  0  0
   60.4105   46.6965   33.8944 H   0  0  0  0  0  0
   61.3903   45.2812   34.1394 H   0  0  0  0  0  0
   65.6145   43.2487   34.2394 H   0  0  0  0  0  0
   63.9300   43.1147   33.7342 H   0  0  0  0  0  0
   65.2078   43.0786   32.5526 H   0  0  0  0  0  0
   66.9380   45.4906   33.9357 H   0  0  0  0  0  0
   66.6632   45.3734   32.2080 H   0  0  0  0  0  0
   66.1789   46.8226   33.0712 H   0  0  0  0  0  0
   63.1433   47.4948   27.3722 H   0  0  0  0  0  0
   61.8795   47.6570   26.1421 H   0  0  0  0  0  0
   62.0086   49.3948   28.1207 H   0  0  0  0  0  0
   60.4844   48.9606   27.2975 H   0  0  0  0  0  0
   58.2413   44.3077   31.0989 H   0  0  0  0  0  0
   56.5864   43.9520   30.9379 H   0  0  0  0  0  0
   57.7484   43.4483   29.6699 H   0  0  0  0  0  0
  1  2  2  0  0  0
  1  5  1  0  0  0
  1  9  1  0  0  0
  2  6  1  0  0  0
  2 10  1  0  0  0
  3  4  1  0  0  0
  3  8  1  0  0  0
  3 14  1  0  0  0
  3 15  1  0  0  0
  4  5  2  0  0  0
  4  7  1  0  0  0
  5 29  1  0  0  0
  6  7  2  0  0  0
  6 30  1  0  0  0
  7 21  1  0  0  0
  8 12  2  0  0  0
  8 31  1  0  0  0
  9 18  1  0  0  0
  9 22  1  0  0  0
  9 23  1  0  0  0
 10 24  1  0  0  0
 10 25  1  0  0  0
 10 17  1  0  0  0
 11 16  2  0  0  0
 11 13  1  0  0  0
 11 32  1  0  0  0
 12 16  1  0  0  0
 12 33  1  0  0  0
 13 19  2  0  0  0
 13 20  1  0  0  0
 14 26  1  0  0  0
 15 27  1  0  0  0
 16 28  1  0  0  0
 17 18  1  0  0  0
 17 34  1  0  0  0
 17 35  1  0  0  0
 18 36  1  0  0  0
 18 37  1  0  0  0
 20 38  1  0  0  0
 21 39  1  0  0  0
 21 40  1  0  0  0
 21 41  1  0  0  0
 22 42  1  0  0  0
 22 43  1  0  0  0
 22 44  1  0  0  0
 23 45  1  0  0  0
 23 46  1  0  0  0
 23 47  1  0  0  0
 24 48  1  0  0  0
 24 49  1  0  0  0
 24 50  1  0  0  0
 25 51  1  0  0  0
 25 52  1  0  0  0
 25 53  1  0  0  0
 26 27  1  0  0  0
 26 54  1  0  0  0
 26 55  1  0  0  0
 27 56  1  0  0  0
 27 57  1  0  0  0
 28 58  1  0  0  0
 28 59  1  0  0  0
 28 60  1  0  0  0
M  END
> <s_m_entry_id>
31000

> <s_m_entry_name>
dock_pv.213

> <s_m_Source_Path>
/home/csk/Desktop/cluster/DUD-E-result/rxra

> <s_m_Source_File>
dock_pv.maegz

> <i_m_Source_File_Index>
213

> <chembl_id>
CHEMBL111911

> <chembl_pref_name>
None

> <i_lp_mmshare_version>
53161

> <r_lp_tautomer_probability>
1

> <s_lp_Force_Field>
OPLS_2005

> <r_lp_Energy>
33.981796

> <b_lp_Chiralities_Consistent>
1

> <s_lp_Variant>
CHEMBL2061_lig258-1

> <s_i_glide_gridfile>
glide-grid_1mv9

> <i_i_glide_lignum>
300

> <i_i_glide_rotatable_bonds>
5

> <r_i_docking_score>
-10.4087067975604

> <r_i_glide_ligand_efficiency>
-0.371739528484298

> <r_i_glide_ligand_efficiency_sa>
-1.12882015135186

> <r_i_glide_ligand_efficiency_ln>
-2.40263514178822

> <r_i_glide_gscore>
-10.4087067975604

> <r_i_glide_lipo>
-5.91250328442483

> <r_i_glide_hbond>
-0.167532526030089

> <r_i_glide_metal>
0

> <r_i_glide_rewards>
-2.15801110770043

> <r_i_glide_evdw>
-42.1191673278809

> <r_i_glide_ecoul>
-3.93827676773071

> <r_i_glide_erotb>
0.526040002148645

> <r_i_glide_esite>
0

> <r_i_glide_emodel>
-64.8564564389991

> <r_i_glide_energy>
-46.0574440956116

> <r_i_glide_einternal>
2.2510666847229

> <i_i_glide_confnum>
153

> <i_i_glide_posenum>
166

> <r_i_glide_eff_state_penalty>
0

> <s_user_duplicate_titles>
CHEMBL2061_lig258,187923

> <i_f3d_flags>
0

> <s_m_subgroup_title>
dock_pv

> <s_m_subgroupid>
dock_pv

> <b_m_subgroup_collapsed>
1

$$$$
CHEMBL2061_lig14
                    3D
 Schrodinger Suite 2021-1.
 53 55  0  0  1  0            999 V2000
   64.6576   45.5894   31.4542 C   0  0  0  0  0  0
   63.8487   45.9581   30.3786 C   0  0  0  0  0  0
   62.6710   46.6735   30.6282 C   0  0  0  0  0  0
   62.4055   47.0737   31.9358 C   0  0  0  0  0  0
   64.3304   45.8862   32.7897 C   0  0  0  0  0  0
   63.1405   46.6240   33.0382 C   0  0  0  0  0  0
   62.6313   46.9737   34.4603 C   0  0  0  0  0  0
   63.3957   46.1653   35.5364 C   0  0  0  0  0  0
   64.8878   46.1115   35.2532 C   0  0  0  0  0  0
   65.2419   45.3796   33.9358 C   0  0  0  0  0  0
   64.2983   45.6045   28.9660 C   0  0  0  0  0  0
   65.0163   43.8603   34.1137 C   0  0  0  0  0  0
   66.7280   45.7199   33.6541 C   0  0  0  0  0  0
   62.8764   48.4771   34.7014 C   0  0  0  0  0  0
   61.1354   46.5947   34.6156 C   0  0  0  0  0  0
   61.6616   47.0384   29.5291 C   0  0  0  0  0  0
   60.2254   46.4887   29.6520 C   0  0  0  0  0  0
   59.6745   46.0766   30.8681 C   0  0  0  0  0  0
   58.3446   45.6756   30.9682 C   0  0  0  0  0  0
   57.5119   45.6620   29.8485 C   0  0  0  0  0  0
   58.0593   46.0770   28.6254 C   0  0  0  0  0  0
   59.3952   46.4795   28.5291 C   0  0  0  0  0  0
   56.0595   45.2758   29.9923 C   0  0  0  0  0  0
   55.4718   45.2882   31.0731 O   0  0  0  0  0  0
   55.4498   44.8988   28.8384 O   0  0  0  0  0  0
   59.8848   46.8814   27.3391 F   0  0  0  0  0  0
   65.5583   45.0294   31.2489 H   0  0  0  0  0  0
   61.5464   47.7043   32.1129 H   0  0  0  0  0  0
   63.0119   45.1513   35.6224 H   0  0  0  0  0  0
   63.2463   46.6173   36.5164 H   0  0  0  0  0  0
   65.4127   45.6769   36.1036 H   0  0  0  0  0  0
   65.2080   47.1443   35.1889 H   0  0  0  0  0  0
   65.3379   45.2767   28.9393 H   0  0  0  0  0  0
   63.6617   44.8288   28.5391 H   0  0  0  0  0  0
   64.2479   46.4794   28.3192 H   0  0  0  0  0  0
   65.6111   43.4780   34.9388 H   0  0  0  0  0  0
   63.9732   43.6076   34.3057 H   0  0  0  0  0  0
   65.3172   43.3071   33.2237 H   0  0  0  0  0  0
   67.3514   45.5610   34.5353 H   0  0  0  0  0  0
   67.1477   45.0828   32.8788 H   0  0  0  0  0  0
   66.8616   46.7578   33.3428 H   0  0  0  0  0  0
   62.6154   48.7638   35.7208 H   0  0  0  0  0  0
   63.9118   48.7730   34.5367 H   0  0  0  0  0  0
   62.2714   49.0820   34.0253 H   0  0  0  0  0  0
   60.8120   46.6317   35.6579 H   0  0  0  0  0  0
   60.4848   47.2767   34.0736 H   0  0  0  0  0  0
   60.9288   45.5921   34.2408 H   0  0  0  0  0  0
   62.0437   46.7604   28.5477 H   0  0  0  0  0  0
   61.5894   48.1267   29.5049 H   0  0  0  0  0  0
   60.2342   46.0420   31.7818 H   0  0  0  0  0  0
   57.9691   45.3784   31.9389 H   0  0  0  0  0  0
   57.4513   46.1027   27.7416 H   0  0  0  0  0  0
   56.0815   44.7302   28.1393 H   0  0  0  0  0  0
  1  5  1  0  0  0
  1  2  2  0  0  0
  1 27  1  0  0  0
  2  3  1  0  0  0
  2 11  1  0  0  0
  3  4  2  0  0  0
  3 16  1  0  0  0
  4  6  1  0  0  0
  4 28  1  0  0  0
  5 10  1  0  0  0
  5  6  2  0  0  0
  6  7  1  0  0  0
  7 14  1  0  0  0
  7 15  1  0  0  0
  7  8  1  0  0  0
  8  9  1  0  0  0
  8 29  1  0  0  0
  8 30  1  0  0  0
  9 10  1  0  0  0
  9 31  1  0  0  0
  9 32  1  0  0  0
 10 13  1  0  0  0
 10 12  1  0  0  0
 11 33  1  0  0  0
 11 34  1  0  0  0
 11 35  1  0  0  0
 12 36  1  0  0  0
 12 37  1  0  0  0
 12 38  1  0  0  0
 13 39  1  0  0  0
 13 40  1  0  0  0
 13 41  1  0  0  0
 14 42  1  0  0  0
 14 43  1  0  0  0
 14 44  1  0  0  0
 15 45  1  0  0  0
 15 46  1  0  0  0
 15 47  1  0  0  0
 16 17  1  0  0  0
 16 48  1  0  0  0
 16 49  1  0  0  0
 17 18  2  0  0  0
 17 22  1  0  0  0
 18 19  1  0  0  0
 18 50  1  0  0  0
 19 20  2  0  0  0
 19 51  1  0  0  0
 20 21  1  0  0  0
 20 23  1  0  0  0
 21 22  2  0  0  0
 21 52  1  0  0  0
 22 26  1  0  0  0
 23 24  2  0  0  0
 23 25  1  0  0  0
 25 53  1  0  0  0
M  END
> <s_m_entry_id>
31001

> <s_m_entry_name>
dock_pv.214

> <s_m_Source_Path>
/home/csk/Desktop/cluster/DUD-E-result/rxra

> <s_m_Source_File>
dock_pv.maegz

> <i_m_Source_File_Index>
214

> <chembl_id>
CHEMBL575324

> <chembl_pref_name>
None

> <i_lp_mmshare_version>
53161

> <r_lp_tautomer_probability>
1

> <s_lp_Force_Field>
OPLS_2005

> <r_lp_Energy>
23.535458

> <b_lp_Chiralities_Consistent>
1

> <s_lp_Variant>
CHEMBL2061_lig14-1

> <s_i_glide_gridfile>
glide-grid_1mv9

> <i_i_glide_lignum>
17

> <i_i_glide_rotatable_bonds>
4

> <r_i_docking_score>
-10.4003051891255

> <r_i_glide_ligand_efficiency>
-0.400011738043289

> <r_i_glide_ligand_efficiency_sa>
-1.18503319998306

> <r_i_glide_ligand_efficiency_ln>
-2.44247754748134

> <r_i_glide_gscore>
-10.4003051891255

> <r_i_glide_lipo>
-5.9987111750696

> <r_i_glide_hbond>
0

> <r_i_glide_metal>
0

> <r_i_glide_rewards>
-2.71505700195651

> <r_i_glide_evdw>
-39.9146690368652

> <r_i_glide_ecoul>
-0.980543494224548

> <r_i_glide_erotb>
0.456277963877534

> <r_i_glide_esite>
0

> <r_i_glide_emodel>
-63.4104673755553

> <r_i_glide_energy>
-40.8952125310898

> <r_i_glide_einternal>
6.08474159240723

> <i_i_glide_confnum>
16

> <i_i_glide_posenum>
284

> <r_i_glide_eff_state_penalty>
0

> <s_user_duplicate_titles>
CHEMBL2061_lig14,572095

> <i_f3d_flags>
0

> <s_m_subgroup_title>
dock_pv

> <s_m_subgroupid>
dock_pv

> <b_m_subgroup_collapsed>
1

$$$$
CHEMBL2061_lig249
                    3D
 Schrodinger Suite 2021-1.
 54 56  0  0  1  0            999 V2000
   63.8968   45.8425   32.3496 C   0  0  0  0  0  0
   63.0620   46.6765   33.1423 C   0  0  0  0  0  0
   63.6916   45.8391   30.9551 C   0  0  0  0  0  0
   62.4900   46.5802   28.8710 C   0  0  0  0  0  0
   62.7378   46.6491   30.3289 C   0  0  0  0  0  0
   64.9843   44.9270   32.9721 C   0  0  0  0  0  0
   61.2727   46.3901   28.2998 C   0  0  0  0  0  0
   63.0830   46.6779   34.6895 C   0  0  0  0  0  0
   55.9410   45.2774   30.3472 C   0  0  0  0  0  0
   62.1780   47.5433   32.4857 C   0  0  0  0  0  0
   57.3347   45.5473   29.8460 C   0  0  0  0  0  0
   62.0081   47.5356   31.1111 C   0  0  0  0  0  0
   65.2049   45.2568   34.4752 C   0  0  0  0  0  0
   63.8951   45.4739   35.2345 C   0  0  0  0  0  0
   55.0272   44.9004   29.6164 O   0  0  0  0  0  0
   59.9366   46.1209   28.8934 C   0  0  0  0  0  0
   58.4592   45.2770   30.6305 C   0  0  0  0  0  0
   57.5253   46.0770   28.5721 C   0  0  0  0  0  0
   55.7587   45.6057   31.6560 O   0  0  0  0  0  0
   58.8083   46.4103   28.1385 C   0  0  0  0  0  0
   59.7430   45.5412   30.1392 C   0  0  0  0  0  0
   63.7163   46.8016   27.9948 C   0  0  0  0  0  0
   64.5443   43.4457   32.8522 C   0  0  0  0  0  0
   66.3427   45.1986   32.2862 C   0  0  0  0  0  0
   63.7537   47.9831   35.1825 C   0  0  0  0  0  0
   61.6258   46.5074   35.1987 C   0  0  0  0  0  0
   64.2757   45.1638   30.3471 H   0  0  0  0  0  0
   61.2575   46.4062   27.2196 H   0  0  0  0  0  0
   61.6080   48.2468   33.0660 H   0  0  0  0  0  0
   61.2941   48.2063   30.6570 H   0  0  0  0  0  0
   65.8247   46.1470   34.5880 H   0  0  0  0  0  0
   65.7804   44.4612   34.9530 H   0  0  0  0  0  0
   64.1044   45.6027   36.2984 H   0  0  0  0  0  0
   63.3120   44.5583   35.1733 H   0  0  0  0  0  0
   58.3629   44.8355   31.6118 H   0  0  0  0  0  0
   56.6772   46.2805   27.9315 H   0  0  0  0  0  0
   56.5638   45.9825   32.0191 H   0  0  0  0  0  0
   58.9351   46.8636   27.1738 H   0  0  0  0  0  0
   60.5942   45.2771   30.7455 H   0  0  0  0  0  0
   64.5039   46.0853   28.2284 H   0  0  0  0  0  0
   63.4843   46.6989   26.9336 H   0  0  0  0  0  0
   64.1085   47.8065   28.1379 H   0  0  0  0  0  0
   65.2851   42.7739   33.2880 H   0  0  0  0  0  0
   63.6080   43.2460   33.3679 H   0  0  0  0  0  0
   64.4083   43.1455   31.8131 H   0  0  0  0  0  0
   67.1374   44.6610   32.8050 H   0  0  0  0  0  0
   66.3587   44.8765   31.2449 H   0  0  0  0  0  0
   66.5961   46.2599   32.3037 H   0  0  0  0  0  0
   63.8098   48.0199   36.2711 H   0  0  0  0  0  0
   64.7696   48.0788   34.7998 H   0  0  0  0  0  0
   63.2048   48.8679   34.8601 H   0  0  0  0  0  0
   61.5820   46.2644   36.2541 H   0  0  0  0  0  0
   61.0357   47.4149   35.0681 H   0  0  0  0  0  0
   61.1063   45.7035   34.6731 H   0  0  0  0  0  0
  1  2  2  0  0  0
  1  3  1  0  0  0
  1  6  1  0  0  0
  2  8  1  0  0  0
  2 10  1  0  0  0
  3  5  2  0  0  0
  3 27  1  0  0  0
  4  5  1  0  0  0
  4  7  2  0  0  0
  4 22  1  0  0  0
  5 12  1  0  0  0
  6 13  1  0  0  0
  6 23  1  0  0  0
  6 24  1  0  0  0
  7 16  1  0  0  0
  7 28  1  0  0  0
  8 25  1  0  0  0
  8 26  1  0  0  0
  8 14  1  0  0  0
  9 11  1  0  0  0
  9 15  2  0  0  0
  9 19  1  0  0  0
 10 12  2  0  0  0
 10 29  1  0  0  0
 11 17  2  0  0  0
 11 18  1  0  0  0
 12 30  1  0  0  0
 13 14  1  0  0  0
 13 31  1  0  0  0
 13 32  1  0  0  0
 14 33  1  0  0  0
 14 34  1  0  0  0
 16 20  1  0  0  0
 16 21  2  0  0  0
 17 21  1  0  0  0
 17 35  1  0  0  0
 18 20  2  0  0  0
 18 36  1  0  0  0
 19 37  1  0  0  0
 20 38  1  0  0  0
 21 39  1  0  0  0
 22 40  1  0  0  0
 22 41  1  0  0  0
 22 42  1  0  0  0
 23 43  1  0  0  0
 23 44  1  0  0  0
 23 45  1  0  0  0
 24 46  1  0  0  0
 24 47  1  0  0  0
 24 48  1  0  0  0
 25 49  1  0  0  0
 25 50  1  0  0  0
 25 51  1  0  0  0
 26 52  1  0  0  0
 26 53  1  0  0  0
 26 54  1  0  0  0
M  END
> <s_m_entry_id>
31002

> <s_m_entry_name>
dock_pv.215

> <s_m_Source_Path>
/home/csk/Desktop/cluster/DUD-E-result/rxra

> <s_m_Source_File>
dock_pv.maegz

> <i_m_Source_File_Index>
215

> <chembl_id>
CHEMBL86663

> <chembl_pref_name>
None

> <i_lp_mmshare_version>
53161

> <r_lp_tautomer_probability>
1

> <s_lp_Force_Field>
OPLS_2005

> <r_lp_Energy>
31.026368

> <b_lp_Chiralities_Consistent>
1

> <s_lp_Variant>
CHEMBL2061_lig249-1

> <s_i_glide_gridfile>
glide-grid_1mv9

> <i_i_glide_lignum>
291

> <i_i_glide_rotatable_bonds>
4

> <r_i_docking_score>
-10.3828831809547

> <r_i_glide_ligand_efficiency>
-0.399341660805952

> <r_i_glide_ligand_efficiency_sa>
-1.18304809880407

> <r_i_glide_ligand_efficiency_ln>
-2.43838604602871

> <r_i_glide_gscore>
-10.3828831809547

> <r_i_glide_lipo>
-6.31681203231111

> <r_i_glide_hbond>
0

> <r_i_glide_metal>
0

> <r_i_glide_rewards>
-2.37775320758989

> <r_i_glide_evdw>
-40.7013092041016

> <r_i_glide_ecoul>
-0.823654532432556

> <r_i_glide_erotb>
0.470295699016224

> <r_i_glide_esite>
0

> <r_i_glide_emodel>
-62.9084117451367

> <r_i_glide_energy>
-41.5249637365341

> <r_i_glide_einternal>
3.42755031585693

> <i_i_glide_confnum>
38

> <i_i_glide_posenum>
191

> <r_i_glide_eff_state_penalty>
0

> <s_user_duplicate_titles>
CHEMBL2061_lig249,CHEMBL2061_lig127

> <i_f3d_flags>
0

> <s_m_subgroup_title>
dock_pv

> <s_m_subgroupid>
dock_pv

> <b_m_subgroup_collapsed>
1

$$$$
CHEMBL2061_lig376
                    3D
 Schrodinger Suite 2021-1.
 51 53  0  0  1  0            999 V2000
   62.0175   46.3324   30.5651 C   0  0  0  0  0  0
   62.8773   46.4771   32.8815 C   0  0  0  0  0  0
   63.9430   45.6084   32.5218 C   0  0  0  0  0  0
   60.9973   46.7190   29.5677 C   0  0  0  0  0  0
   61.9872   46.8687   31.8633 C   0  0  0  0  0  0
   63.0336   45.4231   30.2538 C   0  0  0  0  0  0
   63.9822   45.0988   31.2131 C   0  0  0  0  0  0
   62.6659   46.9759   34.3411 C   0  0  0  0  0  0
   65.0231   45.1511   33.5246 C   0  0  0  0  0  0
   55.4708   45.0329   30.3522 C   0  0  0  0  0  0
   61.4452   47.5491   28.6959 N   0  0  0  0  0  0
   59.6026   46.1484   29.6856 C   0  0  0  0  0  0
   56.9223   45.3012   30.0875 C   0  0  0  0  0  0
   64.9620   45.9661   34.8402 C   0  0  0  0  0  0
   63.5407   46.1743   35.3409 C   0  0  0  0  0  0
   54.9221   45.3072   31.4114 O   0  0  0  0  0  0
   59.1450   45.6771   30.9280 C   0  0  0  0  0  0
   58.6889   46.0767   28.6170 C   0  0  0  0  0  0
   57.3670   45.6775   28.8183 C   0  0  0  0  0  0
   57.8350   45.2771   31.1364 C   0  0  0  0  0  0
   63.1586   44.5715   28.5446 Br  0  0  0  0  0  0
   54.8072   44.4742   29.3195 O   0  0  0  0  0  0
   60.5195   48.1007   27.8017 O   0  0  0  0  0  0
   63.0560   48.4658   34.4411 C   0  0  0  0  0  0
   61.2060   46.7257   34.7866 C   0  0  0  0  0  0
   64.8059   43.6511   33.8398 C   0  0  0  0  0  0
   66.4087   45.4455   32.9299 C   0  0  0  0  0  0
   61.2105   47.5808   32.1050 H   0  0  0  0  0  0
   64.7519   44.3965   30.9303 H   0  0  0  0  0  0
   65.5590   45.4809   35.6138 H   0  0  0  0  0  0
   65.4229   46.9459   34.7083 H   0  0  0  0  0  0
   63.1076   45.1957   35.5457 H   0  0  0  0  0  0
   63.5749   46.6749   36.3103 H   0  0  0  0  0  0
   59.7731   45.6935   31.8030 H   0  0  0  0  0  0
   58.9678   46.3099   27.6012 H   0  0  0  0  0  0
   56.6923   45.7048   27.9748 H   0  0  0  0  0  0
   57.5368   45.0047   32.1381 H   0  0  0  0  0  0
   55.3984   44.1605   28.6308 H   0  0  0  0  0  0
   59.6830   47.7662   28.1392 H   0  0  0  0  0  0
   62.9472   48.8458   35.4580 H   0  0  0  0  0  0
   64.0872   48.6388   34.1408 H   0  0  0  0  0  0
   62.4309   49.0811   33.7922 H   0  0  0  0  0  0
   61.0504   47.0194   35.8267 H   0  0  0  0  0  0
   60.4798   47.2767   34.1955 H   0  0  0  0  0  0
   60.9312   45.6762   34.6997 H   0  0  0  0  0  0
   65.5454   43.2772   34.5485 H   0  0  0  0  0  0
   63.8192   43.4501   34.2566 H   0  0  0  0  0  0
   64.9012   43.0363   32.9457 H   0  0  0  0  0  0
   67.2036   45.1981   33.6358 H   0  0  0  0  0  0
   66.6140   44.8736   32.0265 H   0  0  0  0  0  0
   66.5226   46.5005   32.6718 H   0  0  0  0  0  0
  1  4  1  0  0  0
  1  5  2  0  0  0
  1  6  1  0  0  0
  2  5  1  0  0  0
  2  8  1  0  0  0
  2  3  2  0  0  0
  3  7  1  0  0  0
  3  9  1  0  0  0
  4 11  2  0  0  0
  4 12  1  0  0  0
  5 28  1  0  0  0
  6  7  2  0  0  0
  6 21  1  0  0  0
  7 29  1  0  0  0
  8 15  1  0  0  0
  8 24  1  0  0  0
  8 25  1  0  0  0
  9 14  1  0  0  0
  9 26  1  0  0  0
  9 27  1  0  0  0
 10 13  1  0  0  0
 10 16  2  0  0  0
 10 22  1  0  0  0
 11 23  1  0  0  0
 12 17  2  0  0  0
 12 18  1  0  0  0
 13 19  1  0  0  0
 13 20  2  0  0  0
 14 15  1  0  0  0
 14 30  1  0  0  0
 14 31  1  0  0  0
 15 32  1  0  0  0
 15 33  1  0  0  0
 17 20  1  0  0  0
 17 34  1  0  0  0
 18 19  2  0  0  0
 18 35  1  0  0  0
 19 36  1  0  0  0
 20 37  1  0  0  0
 22 38  1  0  0  0
 23 39  1  0  0  0
 24 40  1  0  0  0
 24 41  1  0  0  0
 24 42  1  0  0  0
 25 43  1  0  0  0
 25 44  1  0  0  0
 25 45  1  0  0  0
 26 46  1  0  0  0
 26 47  1  0  0  0
 26 48  1  0  0  0
 27 49  1  0  0  0
 27 50  1  0  0  0
 27 51  1  0  0  0
M  END
> <s_m_entry_id>
31003

> <s_m_entry_name>
dock_pv.216

> <s_m_Source_Path>
/home/csk/Desktop/cluster/DUD-E-result/rxra

> <s_m_Source_File>
dock_pv.maegz

> <i_m_Source_File_Index>
216

> <chembl_id>
CHEMBL348797

> <chembl_pref_name>
None

> <i_lp_mmshare_version>
53161

> <r_lp_tautomer_probability>
1

> <s_lp_Force_Field>
OPLS_2005

> <r_lp_Energy>
36.777993

> <b_lp_Chiralities_Consistent>
1

> <s_lp_Variant>
CHEMBL2061_lig376-1

> <s_i_glide_gridfile>
glide-grid_1mv9

> <i_i_glide_lignum>
436

> <i_i_glide_rotatable_bonds>
5

> <r_i_docking_score>
-10.3743636086875

> <r_i_glide_ligand_efficiency>
-0.384235689210649

> <r_i_glide_ligand_efficiency_sa>
-1.15270706636557

> <r_i_glide_ligand_efficiency_ln>
-2.41498081335128

> <r_i_glide_gscore>
-10.3743636086875

> <r_i_glide_lipo>
-5.80320518774567

> <r_i_glide_hbond>
0

> <r_i_glide_metal>
0

> <r_i_glide_rewards>
-2.03719770773561

> <r_i_glide_evdw>
-51.4608535766602

> <r_i_glide_ecoul>
-2.60216856002808

> <r_i_glide_erotb>
0.429407249630954

> <r_i_glide_esite>
0

> <r_i_glide_emodel>
-75.6960930236728

> <r_i_glide_energy>
-54.0630221366882

> <r_i_glide_einternal>
9.73653984069824

> <i_i_glide_confnum>
39

> <i_i_glide_posenum>
132

> <r_i_glide_eff_state_penalty>
0

> <s_user_duplicate_titles>
CHEMBL2061_lig376,272690

> <i_f3d_flags>
0

> <s_m_subgroup_title>
dock_pv

> <s_m_subgroupid>
dock_pv

> <b_m_subgroup_collapsed>
1

$$$$
CHEMBL2061_lig259
                    3D
 Schrodinger Suite 2021-1.
 53 55  0  0  1  0            999 V2000
   63.0278   46.5818   32.6898 C   0  0  0  0  0  0
   64.1320   45.7209   32.4411 C   0  0  0  0  0  0
   62.2811   47.0321   31.5873 C   0  0  0  0  0  0
   62.4539   46.5306   30.2931 C   0  0  0  0  0  0
   62.6160   47.0323   34.1188 C   0  0  0  0  0  0
   65.0784   45.2318   33.5648 C   0  0  0  0  0  0
   55.9084   45.2190   30.0392 C   0  0  0  0  0  0
   64.3331   45.2665   31.1262 C   0  0  0  0  0  0
   61.4587   46.9219   29.1762 C   0  0  2  0  0  0
   57.3513   45.5256   29.7592 C   0  0  0  0  0  0
   60.0251   46.3504   29.3446 C   0  0  0  0  0  0
   63.5037   45.6386   30.0768 C   0  0  0  0  0  0
   63.4016   46.2547   35.2073 C   0  0  0  0  0  0
   64.8753   46.0657   34.8553 C   0  0  0  0  0  0
   55.4088   45.2771   31.1618 O   0  0  0  0  0  0
   58.3025   45.3483   30.7567 C   0  0  0  0  0  0
   57.7517   46.0769   28.5385 C   0  0  0  0  0  0
   59.6133   45.7553   30.5406 C   0  0  0  0  0  0
   59.0711   46.4773   28.3311 C   0  0  0  0  0  0
   55.2067   44.8769   28.9341 O   0  0  0  0  0  0
   62.9379   48.5326   34.2854 C   0  0  0  0  0  0
   61.1154   46.7119   34.3642 C   0  0  0  0  0  0
   64.7684   43.7414   33.8585 C   0  0  0  0  0  0
   66.5497   45.4576   33.1484 C   0  0  0  0  0  0
   62.0339   46.7103   27.7491 C   0  0  0  0  0  0
   61.4722   47.7268   31.7562 H   0  0  0  0  0  0
   65.1318   44.5751   30.9075 H   0  0  0  0  0  0
   61.3431   48.0021   29.2792 H   0  0  0  0  0  0
   63.6866   45.2107   29.1021 H   0  0  0  0  0  0
   62.9558   45.2765   35.3797 H   0  0  0  0  0  0
   63.3198   46.7649   36.1669 H   0  0  0  0  0  0
   65.4003   45.6050   35.6963 H   0  0  0  0  0  0
   65.3292   47.0517   34.7432 H   0  0  0  0  0  0
   58.0288   44.9489   31.7248 H   0  0  0  0  0  0
   57.0419   46.2237   27.7395 H   0  0  0  0  0  0
   60.2810   45.6770   31.3765 H   0  0  0  0  0  0
   59.3273   46.9332   27.3887 H   0  0  0  0  0  0
   55.7897   44.6745   28.1998 H   0  0  0  0  0  0
   62.6896   48.8748   35.2907 H   0  0  0  0  0  0
   63.9952   48.7451   34.1391 H   0  0  0  0  0  0
   62.3773   49.1515   33.5828 H   0  0  0  0  0  0
   60.8109   46.9680   35.3813 H   0  0  0  0  0  0
   60.4467   47.2542   33.6996 H   0  0  0  0  0  0
   60.8997   45.6535   34.2195 H   0  0  0  0  0  0
   65.3687   43.3725   34.6905 H   0  0  0  0  0  0
   63.7207   43.5720   34.1063 H   0  0  0  0  0  0
   65.0006   43.1102   32.9989 H   0  0  0  0  0  0
   67.2381   45.1628   33.9421 H   0  0  0  0  0  0
   66.8081   44.8757   32.2682 H   0  0  0  0  0  0
   66.7511   46.5052   32.9155 H   0  0  0  0  0  0
   62.0582   45.6550   27.4778 H   0  0  0  0  0  0
   61.4560   47.2340   26.9885 H   0  0  0  0  0  0
   63.0506   47.0981   27.6696 H   0  0  0  0  0  0
  1  2  2  0  0  0
  1  3  1  0  0  0
  1  5  1  0  0  0
  2  6  1  0  0  0
  2  8  1  0  0  0
  3  4  2  0  0  0
  3 26  1  0  0  0
  4  9  1  0  0  0
  4 12  1  0  0  0
  5 13  1  0  0  0
  5 21  1  0  0  0
  5 22  1  0  0  0
  6 23  1  0  0  0
  6 24  1  0  0  0
  6 14  1  0  0  0
  7 10  1  0  0  0
  7 15  2  0  0  0
  7 20  1  0  0  0
  8 12  2  0  0  0
  8 27  1  0  0  0
  9 11  1  0  0  0
  9 25  1  0  0  0
  9 28  1  0  0  0
 10 17  1  0  0  0
 10 16  2  0  0  0
 11 18  2  0  0  0
 11 19  1  0  0  0
 12 29  1  0  0  0
 13 14  1  0  0  0
 13 30  1  0  0  0
 13 31  1  0  0  0
 14 32  1  0  0  0
 14 33  1  0  0  0
 16 18  1  0  0  0
 16 34  1  0  0  0
 17 19  2  0  0  0
 17 35  1  0  0  0
 18 36  1  0  0  0
 19 37  1  0  0  0
 20 38  1  0  0  0
 21 39  1  0  0  0
 21 40  1  0  0  0
 21 41  1  0  0  0
 22 42  1  0  0  0
 22 43  1  0  0  0
 22 44  1  0  0  0
 23 45  1  0  0  0
 23 46  1  0  0  0
 23 47  1  0  0  0
 24 48  1  0  0  0
 24 49  1  0  0  0
 24 50  1  0  0  0
 25 51  1  0  0  0
 25 52  1  0  0  0
 25 53  1  0  0  0
M  END
> <s_m_entry_id>
31004

> <s_m_entry_name>
dock_pv.217

> <s_m_Source_Path>
/home/csk/Desktop/cluster/DUD-E-result/rxra

> <s_m_Source_File>
dock_pv.maegz

> <i_m_Source_File_Index>
217

> <chembl_id>
CHEMBL115763

> <chembl_pref_name>
None

> <i_lp_mmshare_version>
53161

> <r_lp_tautomer_probability>
1

> <s_lp_Force_Field>
OPLS_2005

> <r_lp_Energy>
25.033993

> <b_lp_Chiralities_Consistent>
1

> <s_lp_Variant>
CHEMBL2061_lig259-1

> <s_i_glide_gridfile>
glide-grid_1mv9

> <i_i_glide_lignum>
301

> <i_i_glide_rotatable_bonds>
4

> <r_i_docking_score>
-10.3701620695145

> <r_i_glide_ligand_efficiency>
-0.414806482780581

> <r_i_glide_ligand_efficiency_sa>
-1.21290151227471

> <r_i_glide_ligand_efficiency_ln>
-2.45803917915467

> <r_i_glide_gscore>
-10.3701620695145

> <r_i_glide_lipo>
-6.10880173259228

> <r_i_glide_hbond>
0

> <r_i_glide_metal>
0

> <r_i_glide_rewards>
-2.42898485915712

> <r_i_glide_evdw>
-42.8935775756836

> <r_i_glide_ecoul>
-1.25455844402313

> <r_i_glide_erotb>
0.500487167622523

> <r_i_glide_esite>
0

> <r_i_glide_emodel>
-65.5042365978075

> <r_i_glide_energy>
-44.1481360197067

> <r_i_glide_einternal>
5.50165176391602

> <i_i_glide_confnum>
11

> <i_i_glide_posenum>
70

> <r_i_glide_eff_state_penalty>
0

> <s_user_duplicate_titles>
CHEMBL2061_lig259,189056

> <i_f3d_flags>
0

> <s_m_subgroup_title>
dock_pv

> <s_m_subgroupid>
dock_pv

> <b_m_subgroup_collapsed>
1

$$$$
CHEMBL2061_lig124
                    3D
 Schrodinger Suite 2021-1.
 60 62  0  0  1  0            999 V2000
   62.6241   46.5961   31.2375 C   0  0  0  0  0  0
   59.7788   46.3126   30.1740 O   0  0  0  0  0  0
   58.7024   46.3125   29.3254 C   0  0  0  0  0  0
   60.8365   46.8502   29.4681 C   0  0  0  0  0  0
   63.6506   45.6505   31.4426 C   0  0  0  0  0  0
   62.1720   46.9615   29.8780 C   0  0  0  0  0  0
   64.1103   45.4011   32.7514 C   0  0  0  0  0  0
   59.0958   46.8077   28.1292 C   0  0  0  0  0  0
   62.0521   47.2557   32.3344 C   0  0  0  0  0  0
   57.3543   45.9277   29.7269 C   0  0  0  0  0  0
   60.4387   47.1778   28.1619 C   0  0  0  0  0  0
   63.5125   46.0754   33.8158 C   0  0  0  0  0  0
   62.5118   47.0136   33.6283 C   0  0  0  0  0  0
   62.5891   43.9922   28.7766 C   0  0  0  0  0  0
   57.0491   45.6697   31.0058 C   0  0  0  0  0  0
   64.2748   45.0598   30.3590 O   0  0  0  0  0  0
   55.7150   45.4538   31.4831 C   0  0  0  0  0  0
   63.7099   43.8531   29.8265 C   0  0  0  0  0  0
   54.8012   44.8327   30.9414 O   0  0  0  0  0  0
   65.2587   44.4331   33.0566 C   0  0  0  0  0  0
   62.4146   42.8744   28.1195 F   0  0  0  0  0  0
   61.4251   44.2431   29.3391 F   0  0  0  0  0  0
   62.8043   44.8860   27.8240 F   0  0  0  0  0  0
   61.9606   47.7330   34.8537 C   0  0  0  0  0  0
   55.6065   46.0769   32.6805 O   0  0  0  0  0  0
   63.0776   47.3457   28.8820 C   0  0  0  0  0  0
   61.3450   47.7147   27.2467 C   0  0  0  0  0  0
   56.3256   45.9226   28.5806 C   0  0  0  0  0  0
   62.6830   47.7717   27.6174 C   0  0  0  0  0  0
   64.7608   42.9848   33.1857 C   0  0  0  0  0  0
   66.0554   44.8036   34.3312 C   0  0  0  0  0  0
   63.0590   48.4753   35.6460 C   0  0  0  0  0  0
   61.2151   46.7443   35.7529 C   0  0  0  0  0  0
   58.4107   46.8789   27.3380 H   0  0  0  0  0  0
   61.2724   47.9856   32.1661 H   0  0  0  0  0  0
   63.8185   45.8908   34.8300 H   0  0  0  0  0  0
   57.8255   45.6696   31.7590 H   0  0  0  0  0  0
   64.5167   43.3213   29.3490 H   0  0  0  0  0  0
   63.4100   43.1648   30.6031 H   0  0  0  0  0  0
   65.9679   44.4982   32.2302 H   0  0  0  0  0  0
   61.2424   48.4833   34.5389 H   0  0  0  0  0  0
   56.3945   46.5836   32.9009 H   0  0  0  0  0  0
   64.1300   47.2719   29.0741 H   0  0  0  0  0  0
   61.0291   47.9899   26.2509 H   0  0  0  0  0  0
   55.5383   45.1830   28.7019 H   0  0  0  0  0  0
   55.8550   46.9023   28.5003 H   0  0  0  0  0  0
   56.7567   45.6801   27.6165 H   0  0  0  0  0  0
   63.4273   48.0861   26.8995 H   0  0  0  0  0  0
   64.6185   42.5055   32.2231 H   0  0  0  0  0  0
   65.4981   42.3864   33.7064 H   0  0  0  0  0  0
   63.8284   42.9195   33.7486 H   0  0  0  0  0  0
   66.5159   45.7904   34.2592 H   0  0  0  0  0  0
   65.4613   44.7613   35.2422 H   0  0  0  0  0  0
   66.8303   44.0771   34.5120 H   0  0  0  0  0  0
   63.5980   49.1920   35.0227 H   0  0  0  0  0  0
   62.6194   49.0125   36.4859 H   0  0  0  0  0  0
   63.7973   47.7948   36.0709 H   0  0  0  0  0  0
   60.4080   46.2600   35.2089 H   0  0  0  0  0  0
   61.8656   45.9546   36.1310 H   0  0  0  0  0  0
   60.8079   47.2633   36.6180 H   0  0  0  0  0  0
  1  5  1  0  0  0
  1  6  1  0  0  0
  1  9  2  0  0  0
  2  4  1  0  0  0
  2  3  1  0  0  0
  3 10  1  0  0  0
  3  8  2  0  0  0
  4  6  1  0  0  0
  4 11  2  0  0  0
  5  7  2  0  0  0
  5 16  1  0  0  0
  6 26  2  0  0  0
  7 20  1  0  0  0
  7 12  1  0  0  0
  8 11  1  0  0  0
  8 34  1  0  0  0
  9 13  1  0  0  0
  9 35  1  0  0  0
 10 15  2  0  0  0
 10 28  1  0  0  0
 11 27  1  0  0  0
 12 13  2  0  0  0
 12 36  1  0  0  0
 13 24  1  0  0  0
 14 18  1  0  0  0
 14 21  1  0  0  0
 14 22  1  0  0  0
 14 23  1  0  0  0
 15 17  1  0  0  0
 15 37  1  0  0  0
 16 18  1  0  0  0
 17 19  2  0  0  0
 17 25  1  0  0  0
 18 38  1  0  0  0
 18 39  1  0  0  0
 20 30  1  0  0  0
 20 31  1  0  0  0
 20 40  1  0  0  0
 24 32  1  0  0  0
 24 33  1  0  0  0
 24 41  1  0  0  0
 25 42  1  0  0  0
 26 29  1  0  0  0
 26 43  1  0  0  0
 27 29  2  0  0  0
 27 44  1  0  0  0
 28 45  1  0  0  0
 28 46  1  0  0  0
 28 47  1  0  0  0
 29 48  1  0  0  0
 30 49  1  0  0  0
 30 50  1  0  0  0
 30 51  1  0  0  0
 31 52  1  0  0  0
 31 53  1  0  0  0
 31 54  1  0  0  0
 32 55  1  0  0  0
 32 56  1  0  0  0
 32 57  1  0  0  0
 33 58  1  0  0  0
 33 59  1  0  0  0
 33 60  1  0  0  0
M  END
> <s_m_entry_id>
31005

> <s_m_entry_name>
dock_pv.218

> <s_m_Source_Path>
/home/csk/Desktop/cluster/DUD-E-result/rxra

> <s_m_Source_File>
dock_pv.maegz

> <i_m_Source_File_Index>
218

> <chembl_id>
CHEMBL39206

> <chembl_pref_name>
None

> <i_lp_mmshare_version>
53161

> <r_lp_tautomer_probability>
1

> <s_lp_Force_Field>
OPLS_2005

> <r_lp_Energy>
27.459884

> <b_lp_Chiralities_Consistent>
1

> <s_lp_Variant>
CHEMBL2061_lig124-1

> <s_i_glide_gridfile>
glide-grid_1mv9

> <i_i_glide_lignum>
163

> <i_i_glide_rotatable_bonds>
9

> <r_i_docking_score>
-10.3671089493718

> <r_i_glide_ligand_efficiency>
-0.314154816647631

> <r_i_glide_ligand_efficiency_sa>
-1.00766235815639

> <r_i_glide_ligand_efficiency_ln>
-2.30559135232294

> <r_i_glide_gscore>
-10.3671089493718

> <r_i_glide_lipo>
-6.96612821776298

> <r_i_glide_hbond>
0

> <r_i_glide_metal>
0

> <r_i_glide_rewards>
-1.86947570934256

> <r_i_glide_evdw>
-29.423023223877

> <r_i_glide_ecoul>
-3.56656455993652

> <r_i_glide_erotb>
0.474630822918031

> <r_i_glide_esite>
0

> <r_i_glide_emodel>
-35.7802860652931

> <r_i_glide_energy>
-32.9895877838135

> <r_i_glide_einternal>
5.01388931274414

> <i_i_glide_confnum>
53

> <i_i_glide_posenum>
67

> <r_i_glide_eff_state_penalty>
0

> <s_user_duplicate_titles>
CHEMBL2061_lig124,61474

> <i_f3d_flags>
0

> <s_m_subgroup_title>
dock_pv

> <s_m_subgroupid>
dock_pv

> <b_m_subgroup_collapsed>
1

$$$$
CHEMBL2061_lig464
                    3D
 Schrodinger Suite 2021-1.
 56 59  0  0  1  0            999 V2000
   64.9310   46.1589   35.0841 C   0  0  0  0  0  0
   63.4252   46.2717   35.3095 C   0  0  0  0  0  0
   62.6900   46.9519   34.1274 C   0  0  0  0  0  0
   65.2996   45.2961   33.8562 C   0  0  0  0  0  0
   64.4570   45.7282   32.6344 C   0  0  0  0  0  0
   63.2406   46.4543   32.7640 C   0  0  0  0  0  0
   62.5143   46.7312   31.5957 C   0  0  0  0  0  0
   62.8539   46.2299   30.3358 C   0  0  0  0  0  0
   64.0723   45.5550   30.2282 C   0  0  0  0  0  0
   64.8554   45.3248   31.3509 C   0  0  0  0  0  0
   64.9990   43.8036   34.1300 C   0  0  0  0  0  0
   66.8084   45.5362   33.6138 C   0  0  0  0  0  0
   62.9197   48.4774   34.2210 C   0  0  0  0  0  0
   61.1932   46.5689   34.2796 C   0  0  0  0  0  0
   61.9432   46.3768   29.2464 N   0  0  0  0  0  0
   62.5191   46.2733   27.8838 C   0  0  0  0  0  0
   63.5538   47.3643   27.5505 C   0  0  0  0  0  0
   60.5302   46.1876   29.3665 C   0  0  0  0  0  0
   59.6315   46.5083   28.3387 C   0  0  0  0  0  0
   58.2754   46.2436   28.5166 C   0  0  0  0  0  0
   57.7840   45.7089   29.6978 C   0  0  0  0  0  0
   58.7157   45.4320   30.6883 C   0  0  0  0  0  0
   60.0422   45.6771   30.5352 N   0  0  0  0  0  0
   56.3179   45.5497   29.8811 C   0  0  0  0  0  0
   55.7190   44.6695   30.6439 N   0  0  0  0  0  0
   54.3611   44.9564   30.5400 N   0  0  0  0  0  0
   54.1594   46.0646   29.7383 N   0  0  0  0  0  0
   55.3784   46.3792   29.3169 N   0  0  0  0  0  0
   65.4064   45.7703   35.9851 H   0  0  0  0  0  0
   65.3306   47.1626   34.9390 H   0  0  0  0  0  0
   63.0228   45.2779   35.5021 H   0  0  0  0  0  0
   63.2445   46.8301   36.2277 H   0  0  0  0  0  0
   61.6148   47.3197   31.6796 H   0  0  0  0  0  0
   64.4173   45.1508   29.2910 H   0  0  0  0  0  0
   65.7662   44.7623   31.2161 H   0  0  0  0  0  0
   65.6161   43.4270   34.9390 H   0  0  0  0  0  0
   63.9560   43.6163   34.3824 H   0  0  0  0  0  0
   65.2253   43.1833   33.2627 H   0  0  0  0  0  0
   67.3885   45.4188   34.5306 H   0  0  0  0  0  0
   67.2079   44.8082   32.9146 H   0  0  0  0  0  0
   67.0091   46.5355   33.2234 H   0  0  0  0  0  0
   62.5680   48.8769   35.1711 H   0  0  0  0  0  0
   63.9730   48.7402   34.1414 H   0  0  0  0  0  0
   62.3947   49.0152   33.4305 H   0  0  0  0  0  0
   60.8138   46.8309   35.2683 H   0  0  0  0  0  0
   60.5542   47.0736   33.5571 H   0  0  0  0  0  0
   61.0295   45.5007   34.1397 H   0  0  0  0  0  0
   62.9746   45.2905   27.7636 H   0  0  0  0  0  0
   61.7785   46.2950   27.0917 H   0  0  0  0  0  0
   63.8614   47.2906   26.5078 H   0  0  0  0  0  0
   63.1362   48.3612   27.6989 H   0  0  0  0  0  0
   64.4591   47.2802   28.1490 H   0  0  0  0  0  0
   59.9399   46.9729   27.4169 H   0  0  0  0  0  0
   57.5787   46.4767   27.7389 H   0  0  0  0  0  0
   58.4085   45.0369   31.6469 H   0  0  0  0  0  0
   55.5691   47.1628   28.7099 H   0  0  0  0  0  0
  1  4  1  0  0  0
  1  2  1  0  0  0
  1 29  1  0  0  0
  1 30  1  0  0  0
  2  3  1  0  0  0
  2 31  1  0  0  0
  2 32  1  0  0  0
  3 14  1  0  0  0
  3  6  1  0  0  0
  3 13  1  0  0  0
  4  5  1  0  0  0
  4 11  1  0  0  0
  4 12  1  0  0  0
  5 10  1  0  0  0
  5  6  2  0  0  0
  6  7  1  0  0  0
  7  8  2  0  0  0
  7 33  1  0  0  0
  8 15  1  0  0  0
  8  9  1  0  0  0
  9 10  2  0  0  0
  9 34  1  0  0  0
 10 35  1  0  0  0
 11 36  1  0  0  0
 11 37  1  0  0  0
 11 38  1  0  0  0
 12 39  1  0  0  0
 12 40  1  0  0  0
 12 41  1  0  0  0
 13 42  1  0  0  0
 13 43  1  0  0  0
 13 44  1  0  0  0
 14 45  1  0  0  0
 14 46  1  0  0  0
 14 47  1  0  0  0
 15 16  1  0  0  0
 15 18  1  0  0  0
 16 17  1  0  0  0
 16 48  1  0  0  0
 16 49  1  0  0  0
 17 50  1  0  0  0
 17 51  1  0  0  0
 17 52  1  0  0  0
 18 19  2  0  0  0
 18 23  1  0  0  0
 19 20  1  0  0  0
 19 53  1  0  0  0
 20 21  2  0  0  0
 20 54  1  0  0  0
 21 22  1  0  0  0
 21 24  1  0  0  0
 22 23  2  0  0  0
 22 55  1  0  0  0
 24 25  2  0  0  0
 24 28  1  0  0  0
 25 26  1  0  0  0
 26 27  2  0  0  0
 27 28  1  0  0  0
 28 56  1  0  0  0
M  END
> <s_m_entry_id>
31006

> <s_m_entry_name>
dock_pv.219

> <s_m_Source_Path>
/home/csk/Desktop/cluster/DUD-E-result/rxra

> <s_m_Source_File>
dock_pv.maegz

> <i_m_Source_File_Index>
219

> <chembl_id>
CHEMBL1221640

> <chembl_pref_name>
None

> <i_lp_mmshare_version>
53161

> <r_lp_tautomer_probability>
0.3

> <s_lp_Force_Field>
OPLS_2005

> <r_lp_Energy>
28.940405

> <b_lp_Chiralities_Consistent>
1

> <s_lp_Variant>
CHEMBL2061_lig464-1

> <s_i_glide_gridfile>
glide-grid_1mv9

> <i_i_glide_lignum>
552

> <i_i_glide_rotatable_bonds>
4

> <r_i_docking_score>
-10.3670955990275

> <r_i_glide_ligand_efficiency>
-0.370253414250982

> <r_i_glide_ligand_efficiency_sa>
-1.12430743326503

> <r_i_glide_ligand_efficiency_ln>
-2.39303005540895

> <r_i_glide_gscore>
-10.3670955990275

> <r_i_glide_lipo>
-6.10734251115885

> <r_i_glide_hbond>
0

> <r_i_glide_metal>
0

> <r_i_glide_rewards>
-1.94062575606148

> <r_i_glide_evdw>
-48.4479026794434

> <r_i_glide_ecoul>
-1.15725708007812

> <r_i_glide_erotb>
0.409697910146877

> <r_i_glide_esite>
-0.132841545970146

> <r_i_glide_emodel>
-71.1874108138175

> <r_i_glide_energy>
-49.6051597595215

> <r_i_glide_einternal>
9.11453151702881

> <i_i_glide_confnum>
29

> <i_i_glide_posenum>
125

> <r_i_glide_eff_state_penalty>
0

> <s_user_duplicate_titles>
CHEMBL2061_lig464,CHEMBL2061_lig464,688068

> <i_f3d_flags>
0

> <s_m_subgroup_title>
dock_pv

> <s_m_subgroupid>
dock_pv

> <b_m_subgroup_collapsed>
1

$$$$
CHEMBL2061_lig247
                    3D
 Schrodinger Suite 2021-1.
 54 56  0  0  1  0            999 V2000
   63.7705   45.6794   32.5988 C   0  0  0  0  0  0
   63.0558   46.4537   33.5520 C   0  0  0  0  0  0
   60.8906   46.5858   28.7074 C   0  0  0  0  0  0
   62.0575   46.7532   29.3888 C   0  0  0  0  0  0
   64.9189   44.7226   33.0001 C   0  0  0  0  0  0
   63.2659   46.3306   35.0780 C   0  0  0  0  0  0
   55.5687   45.0151   30.5954 C   0  0  0  0  0  0
   62.1143   47.3801   33.0848 C   0  0  0  0  0  0
   63.3922   45.7815   31.2467 C   0  0  0  0  0  0
   59.5467   46.1101   29.2261 C   0  0  0  0  0  0
   56.9619   45.2960   30.1039 C   0  0  0  0  0  0
   62.3928   46.6511   30.8144 C   0  0  0  0  0  0
   65.3598   44.9766   34.4678 C   0  0  0  0  0  0
   64.1707   45.1144   35.4191 C   0  0  0  0  0  0
   55.2082   45.2775   31.7385 O   0  0  0  0  0  0
   58.4370   46.0835   28.3661 C   0  0  0  0  0  0
   59.3190   45.6770   30.5388 C   0  0  0  0  0  0
   58.0527   45.2773   30.9783 C   0  0  0  0  0  0
   57.1710   45.6956   28.7875 C   0  0  0  0  0  0
   61.8031   47.4975   31.7401 C   0  0  0  0  0  0
   54.7342   44.4773   29.6642 O   0  0  0  0  0  0
   60.9479   46.9128   27.2152 C   0  0  0  0  0  0
   64.4372   43.2558   32.8606 C   0  0  0  0  0  0
   66.1603   45.0238   32.1325 C   0  0  0  0  0  0
   63.9807   47.6159   35.5768 C   0  0  0  0  0  0
   61.8780   46.0770   35.7390 C   0  0  0  0  0  0
   62.9170   47.0649   28.8122 H   0  0  0  0  0  0
   61.6078   48.0213   33.7897 H   0  0  0  0  0  0
   63.8879   45.1662   30.5107 H   0  0  0  0  0  0
   65.9652   45.8819   34.5391 H   0  0  0  0  0  0
   66.0110   44.1718   34.8123 H   0  0  0  0  0  0
   64.5286   45.1935   36.4464 H   0  0  0  0  0  0
   63.6080   44.1829   35.3964 H   0  0  0  0  0  0
   58.5215   46.3982   27.3394 H   0  0  0  0  0  0
   60.1130   45.6771   31.2625 H   0  0  0  0  0  0
   57.9275   44.9924   32.0138 H   0  0  0  0  0  0
   56.3591   45.7542   28.0763 H   0  0  0  0  0  0
   61.0988   48.2451   31.4198 H   0  0  0  0  0  0
   55.2135   44.2098   28.8762 H   0  0  0  0  0  0
   60.3352   47.7873   26.9956 H   0  0  0  0  0  0
   61.9549   47.1511   26.8689 H   0  0  0  0  0  0
   60.5910   46.0715   26.6232 H   0  0  0  0  0  0
   65.2217   42.5462   33.1180 H   0  0  0  0  0  0
   63.6023   43.0262   33.5162 H   0  0  0  0  0  0
   64.1233   43.0280   31.8411 H   0  0  0  0  0  0
   67.0207   44.4775   32.5139 H   0  0  0  0  0  0
   66.0251   44.7287   31.0916 H   0  0  0  0  0  0
   66.4114   46.0853   32.1411 H   0  0  0  0  0  0
   64.3582   47.5140   36.5960 H   0  0  0  0  0  0
   64.8254   47.8766   34.9394 H   0  0  0  0  0  0
   63.3101   48.4761   35.5686 H   0  0  0  0  0  0
   61.9130   45.3369   36.5387 H   0  0  0  0  0  0
   61.4486   46.9954   36.1389 H   0  0  0  0  0  0
   61.1442   45.6891   35.0305 H   0  0  0  0  0  0
  1  2  2  0  0  0
  1  5  1  0  0  0
  1  9  1  0  0  0
  2  6  1  0  0  0
  2  8  1  0  0  0
  3  4  2  0  0  0
  3 10  1  0  0  0
  3 22  1  0  0  0
  4 12  1  0  0  0
  4 27  1  0  0  0
  5 13  1  0  0  0
  5 23  1  0  0  0
  5 24  1  0  0  0
  6 25  1  0  0  0
  6 26  1  0  0  0
  6 14  1  0  0  0
  7 11  1  0  0  0
  7 15  2  0  0  0
  7 21  1  0  0  0
  8 20  2  0  0  0
  8 28  1  0  0  0
  9 12  2  0  0  0
  9 29  1  0  0  0
 10 16  2  0  0  0
 10 17  1  0  0  0
 11 18  1  0  0  0
 11 19  2  0  0  0
 12 20  1  0  0  0
 13 14  1  0  0  0
 13 30  1  0  0  0
 13 31  1  0  0  0
 14 32  1  0  0  0
 14 33  1  0  0  0
 16 19  1  0  0  0
 16 34  1  0  0  0
 17 18  2  0  0  0
 17 35  1  0  0  0
 18 36  1  0  0  0
 19 37  1  0  0  0
 20 38  1  0  0  0
 21 39  1  0  0  0
 22 40  1  0  0  0
 22 41  1  0  0  0
 22 42  1  0  0  0
 23 43  1  0  0  0
 23 44  1  0  0  0
 23 45  1  0  0  0
 24 46  1  0  0  0
 24 47  1  0  0  0
 24 48  1  0  0  0
 25 49  1  0  0  0
 25 50  1  0  0  0
 25 51  1  0  0  0
 26 52  1  0  0  0
 26 53  1  0  0  0
 26 54  1  0  0  0
M  END
> <s_m_entry_id>
31007

> <s_m_entry_name>
dock_pv.220

> <s_m_Source_Path>
/home/csk/Desktop/cluster/DUD-E-result/rxra

> <s_m_Source_File>
dock_pv.maegz

> <i_m_Source_File_Index>
220

> <chembl_id>
CHEMBL86893

> <chembl_pref_name>
None

> <i_lp_mmshare_version>
53161

> <r_lp_tautomer_probability>
1

> <s_lp_Force_Field>
OPLS_2005

> <r_lp_Energy>
29.786575

> <b_lp_Chiralities_Consistent>
1

> <s_lp_Variant>
CHEMBL2061_lig247-1

> <s_i_glide_gridfile>
glide-grid_1mv9

> <i_i_glide_lignum>
289

> <i_i_glide_rotatable_bonds>
4

> <r_i_docking_score>
-10.3608515269639

> <r_i_glide_ligand_efficiency>
-0.398494289498611

> <r_i_glide_ligand_efficiency_sa>
-1.18053776464032

> <r_i_glide_ligand_efficiency_ln>
-2.43321198438071

> <r_i_glide_gscore>
-10.3608515269639

> <r_i_glide_lipo>
-6.16807819797572

> <r_i_glide_hbond>
0

> <r_i_glide_metal>
0

> <r_i_glide_rewards>
-2.28877751265405

> <r_i_glide_evdw>
-42.5173263549805

> <r_i_glide_ecoul>
-1.65616798400879

> <r_i_glide_erotb>
0.470295699016224

> <r_i_glide_esite>
0

> <r_i_glide_emodel>
-56.3454045697728

> <r_i_glide_energy>
-44.1734943389893

> <r_i_glide_einternal>
11.6668338775635

> <i_i_glide_confnum>
44

> <i_i_glide_posenum>
234

> <r_i_glide_eff_state_penalty>
0

> <s_user_duplicate_titles>
CHEMBL2061_lig247

> <i_f3d_flags>
0

> <s_m_subgroup_title>
dock_pv

> <s_m_subgroupid>
dock_pv

> <b_m_subgroup_collapsed>
1

$$$$
CHEMBL2061_lig288
                    3D
 Schrodinger Suite 2021-1.
 48 50  0  0  1  0            999 V2000
   61.7996   46.3256   30.2901 C   0  0  0  0  0  0
   60.7296   46.5959   29.2914 C   0  0  0  0  0  0
   63.8459   45.9151   32.2235 C   0  0  0  0  0  0
   61.7795   46.9819   31.5238 C   0  0  0  0  0  0
   63.8605   45.2654   30.9786 C   0  0  0  0  0  0
   62.8591   45.4453   30.0230 C   0  0  0  0  0  0
   62.7630   46.7854   32.4984 C   0  0  0  0  0  0
   55.2366   44.9286   30.3039 C   0  0  0  0  0  0
   64.9495   45.6075   33.2724 C   0  0  0  0  0  0
   59.3342   46.0944   29.5395 C   0  0  0  0  0  0
   56.6685   45.2725   30.0185 C   0  0  0  0  0  0
   61.0812   47.2776   28.1783 C   0  0  0  0  0  0
   54.6789   45.2769   31.3389 O   0  0  0  0  0  0
   58.9162   45.6770   30.8087 C   0  0  0  0  0  0
   58.3783   46.0771   28.5154 C   0  0  0  0  0  0
   57.0635   45.6771   28.7440 C   0  0  0  0  0  0
   57.6073   45.2769   31.0513 C   0  0  0  0  0  0
   54.6127   44.2015   29.3390 O   0  0  0  0  0  0
   62.6520   47.5307   33.8276 C   0  0  0  0  0  0
   64.8364   46.5451   34.5139 C   0  0  0  0  0  0
   62.9234   44.6372   28.7316 C   0  0  0  0  0  0
   64.7723   44.1456   33.7538 C   0  0  0  0  0  0
   66.3435   45.8630   32.6512 C   0  0  0  0  0  0
   63.3918   46.8050   34.9547 C   0  0  0  0  0  0
   60.9762   47.6700   31.7369 H   0  0  0  0  0  0
   64.6581   44.5708   30.7596 H   0  0  0  0  0  0
   62.1001   47.6096   28.0358 H   0  0  0  0  0  0
   60.3877   47.5269   27.3920 H   0  0  0  0  0  0
   59.5912   45.6779   31.6477 H   0  0  0  0  0  0
   58.6390   46.3758   27.5145 H   0  0  0  0  0  0
   56.3620   45.7103   27.9221 H   0  0  0  0  0  0
   57.3329   45.0088   32.0600 H   0  0  0  0  0  0
   55.2081   43.8833   28.6533 H   0  0  0  0  0  0
   63.0734   48.5293   33.7088 H   0  0  0  0  0  0
   61.6070   47.6725   34.1067 H   0  0  0  0  0  0
   65.2899   47.5150   34.2961 H   0  0  0  0  0  0
   65.4147   46.1449   35.3479 H   0  0  0  0  0  0
   63.6226   43.8033   28.8014 H   0  0  0  0  0  0
   61.9500   44.2027   28.5050 H   0  0  0  0  0  0
   63.2074   45.2729   27.8931 H   0  0  0  0  0  0
   65.5032   43.8866   34.5218 H   0  0  0  0  0  0
   63.7806   43.9661   34.1699 H   0  0  0  0  0  0
   64.9103   43.4359   32.9380 H   0  0  0  0  0  0
   67.1369   45.7380   33.3898 H   0  0  0  0  0  0
   66.5611   45.1723   31.8363 H   0  0  0  0  0  0
   66.4193   46.8757   32.2526 H   0  0  0  0  0  0
   63.3792   47.4124   35.8614 H   0  0  0  0  0  0
   62.8879   45.8714   35.2044 H   0  0  0  0  0  0
  1  2  1  0  0  0
  1  4  2  0  0  0
  1  6  1  0  0  0
  2 10  1  0  0  0
  2 12  2  0  0  0
  3  5  1  0  0  0
  3  9  1  0  0  0
  3  7  2  0  0  0
  4  7  1  0  0  0
  4 25  1  0  0  0
  5  6  2  0  0  0
  5 26  1  0  0  0
  6 21  1  0  0  0
  7 19  1  0  0  0
  8 11  1  0  0  0
  8 13  2  0  0  0
  8 18  1  0  0  0
  9 20  1  0  0  0
  9 22  1  0  0  0
  9 23  1  0  0  0
 10 14  1  0  0  0
 10 15  2  0  0  0
 11 16  2  0  0  0
 11 17  1  0  0  0
 12 27  1  0  0  0
 12 28  1  0  0  0
 14 17  2  0  0  0
 14 29  1  0  0  0
 15 16  1  0  0  0
 15 30  1  0  0  0
 16 31  1  0  0  0
 17 32  1  0  0  0
 18 33  1  0  0  0
 19 24  1  0  0  0
 19 34  1  0  0  0
 19 35  1  0  0  0
 20 24  1  0  0  0
 20 36  1  0  0  0
 20 37  1  0  0  0
 21 38  1  0  0  0
 21 39  1  0  0  0
 21 40  1  0  0  0
 22 41  1  0  0  0
 22 42  1  0  0  0
 22 43  1  0  0  0
 23 44  1  0  0  0
 23 45  1  0  0  0
 23 46  1  0  0  0
 24 47  1  0  0  0
 24 48  1  0  0  0
M  END
> <s_m_entry_id>
31008

> <s_m_entry_name>
dock_pv.221

> <s_m_Source_Path>
/home/csk/Desktop/cluster/DUD-E-result/rxra

> <s_m_Source_File>
dock_pv.maegz

> <i_m_Source_File_Index>
221

> <chembl_id>
CHEMBL108402

> <chembl_pref_name>
None

> <i_lp_mmshare_version>
53161

> <r_lp_tautomer_probability>
1

> <s_lp_Force_Field>
OPLS_2005

> <r_lp_Energy>
26.055775

> <b_lp_Chiralities_Consistent>
1

> <s_lp_Variant>
CHEMBL2061_lig288-1

> <s_i_glide_gridfile>
glide-grid_1mv9

> <i_i_glide_lignum>
333

> <i_i_glide_rotatable_bonds>
4

> <r_i_docking_score>
-10.3607187108083

> <r_i_glide_ligand_efficiency>
-0.431696612950345

> <r_i_glide_ligand_efficiency_sa>
-1.24522850774246

> <r_i_glide_ligand_efficiency_ln>
-2.47979540989912

> <r_i_glide_gscore>
-10.3607187108083

> <r_i_glide_lipo>
-5.93779762538053

> <r_i_glide_hbond>
-0.066900295844129

> <r_i_glide_metal>
0

> <r_i_glide_rewards>
-2.25054675053479

> <r_i_glide_evdw>
-39.9253196716309

> <r_i_glide_ecoul>
-4.36537551879883

> <r_i_glide_erotb>
0.545598272352537

> <r_i_glide_esite>
0

> <r_i_glide_emodel>
-69.2175405288457

> <r_i_glide_energy>
-44.2906951904297

> <r_i_glide_einternal>
5.76380491256714

> <i_i_glide_confnum>
21

> <i_i_glide_posenum>
216

> <r_i_glide_eff_state_penalty>
0

> <s_user_duplicate_titles>
CHEMBL2061_lig288

> <i_f3d_flags>
0

> <s_m_subgroup_title>
dock_pv

> <s_m_subgroupid>
dock_pv

> <b_m_subgroup_collapsed>
1

$$$$
CHEMBL2061_lig299
                    3D
 Schrodinger Suite 2021-1.
 64 64  0  0  1  0            999 V2000
   63.3623   46.2511   32.7822 C   0  0  0  0  0  0
   62.1246   46.8476   32.5266 C   0  0  0  0  0  0
   64.1866   45.8597   31.6988 C   0  0  0  0  0  0
   62.5425   46.7670   30.1192 C   0  0  0  0  0  0
   61.7768   47.1854   31.2102 C   0  0  0  0  0  0
   63.7384   46.1130   30.3935 C   0  0  0  0  0  0
   57.3104   45.1428   31.0041 C   0  0  0  0  0  0
   55.9575   45.2051   30.9541 C   0  0  0  0  0  0
   57.9363   45.6729   32.2119 C   0  0  0  0  0  0
   61.1238   46.9415   33.6249 C   0  0  0  0  0  0
   59.2523   45.8919   32.3348 C   0  0  0  0  0  0
   59.8650   46.4770   33.5118 C   0  0  0  0  0  0
   63.6052   45.9121   34.0991 O   0  0  0  0  0  0
   55.1040   44.7489   29.8970 C   0  0  0  0  0  0
   65.5547   45.1851   31.9164 C   0  0  0  0  0  0
   62.0855   46.9192   28.6408 C   0  0  0  0  0  0
   54.0005   44.2836   30.1297 O   0  0  0  0  0  0
   64.5100   46.2286   36.3079 C   0  0  0  0  0  0
   64.6814   46.5088   34.8252 C   0  0  0  0  0  0
   57.1585   46.0767   33.2436 F   0  0  0  0  0  0
   55.6221   44.8787   28.6434 O   0  0  0  0  0  0
   64.0076   47.2743   36.9387 F   0  0  0  0  0  0
   63.7660   45.1443   36.5279 F   0  0  0  0  0  0
   58.1598   44.5156   29.8940 C   0  0  0  0  0  0
   61.5260   47.6554   34.9130 C   0  0  0  0  0  0
   66.5018   46.3327   32.3442 C   0  0  0  0  0  0
   66.1816   44.5908   30.6081 C   0  0  0  0  0  0
   65.4512   43.9956   32.9392 C   0  0  0  0  0  0
   63.0415   47.8635   27.8693 C   0  0  0  0  0  0
   60.6509   47.4801   28.5104 C   0  0  0  0  0  0
   62.0882   45.5329   27.9438 C   0  0  0  0  0  0
   60.8331   47.6737   31.0469 H   0  0  0  0  0  0
   64.3106   45.8084   29.5382 H   0  0  0  0  0  0
   55.3924   45.6163   31.7770 H   0  0  0  0  0  0
   59.8830   45.6770   31.4945 H   0  0  0  0  0  0
   59.2413   46.5947   34.3770 H   0  0  0  0  0  0
   65.4723   46.0741   36.7910 H   0  0  0  0  0  0
   65.6200   46.0184   34.6008 H   0  0  0  0  0  0
   64.7853   47.5792   34.6303 H   0  0  0  0  0  0
   55.1003   44.3747   28.0134 H   0  0  0  0  0  0
   59.0869   44.0790   30.2516 H   0  0  0  0  0  0
   57.6447   43.6756   29.4406 H   0  0  0  0  0  0
   58.3754   45.2417   29.1125 H   0  0  0  0  0  0
   62.3154   48.3856   34.7363 H   0  0  0  0  0  0
   60.6834   48.1722   35.3716 H   0  0  0  0  0  0
   61.8813   46.9273   35.6348 H   0  0  0  0  0  0
   66.0329   47.1577   32.8737 H   0  0  0  0  0  0
   67.3768   46.0153   32.9377 H   0  0  0  0  0  0
   66.8081   46.8562   31.4471 H   0  0  0  0  0  0
   65.6326   43.7212   30.2429 H   0  0  0  0  0  0
   66.2527   45.2823   29.7777 H   0  0  0  0  0  0
   67.2247   44.3315   30.7513 H   0  0  0  0  0  0
   64.9911   43.1241   32.4684 H   0  0  0  0  0  0
   66.4159   43.7085   33.3385 H   0  0  0  0  0  0
   64.8534   44.1129   33.8300 H   0  0  0  0  0  0
   64.0688   47.4961   27.8651 H   0  0  0  0  0  0
   62.7441   47.9728   26.8249 H   0  0  0  0  0  0
   63.0541   48.8594   28.3064 H   0  0  0  0  0  0
   59.9259   46.8556   29.0261 H   0  0  0  0  0  0
   60.5704   48.4772   28.9270 H   0  0  0  0  0  0
   60.3330   47.5450   27.4697 H   0  0  0  0  0  0
   61.5097   44.8085   28.5155 H   0  0  0  0  0  0
   61.6676   45.5775   26.9402 H   0  0  0  0  0  0
   63.0915   45.1220   27.8356 H   0  0  0  0  0  0
  1  2  1  0  0  0
  1  3  2  0  0  0
  1 13  1  0  0  0
  2  5  2  0  0  0
  2 10  1  0  0  0
  3  6  1  0  0  0
  3 15  1  0  0  0
  4  6  2  0  0  0
  4 16  1  0  0  0
  4  5  1  0  0  0
  5 32  1  0  0  0
  6 33  1  0  0  0
  7  9  1  0  0  0
  7  8  2  0  0  0
  7 24  1  0  0  0
  8 14  1  0  0  0
  8 34  1  0  0  0
  9 11  2  0  0  0
  9 20  1  0  0  0
 10 12  2  0  0  0
 10 25  1  0  0  0
 11 12  1  0  0  0
 11 35  1  0  0  0
 12 36  1  0  0  0
 13 19  1  0  0  0
 14 17  2  0  0  0
 14 21  1  0  0  0
 15 26  1  0  0  0
 15 27  1  0  0  0
 15 28  1  0  0  0
 16 29  1  0  0  0
 16 30  1  0  0  0
 16 31  1  0  0  0
 18 19  1  0  0  0
 18 22  1  0  0  0
 18 23  1  0  0  0
 18 37  1  0  0  0
 19 38  1  0  0  0
 19 39  1  0  0  0
 21 40  1  0  0  0
 24 41  1  0  0  0
 24 42  1  0  0  0
 24 43  1  0  0  0
 25 44  1  0  0  0
 25 45  1  0  0  0
 25 46  1  0  0  0
 26 47  1  0  0  0
 26 48  1  0  0  0
 26 49  1  0  0  0
 27 50  1  0  0  0
 27 51  1  0  0  0
 27 52  1  0  0  0
 28 53  1  0  0  0
 28 54  1  0  0  0
 28 55  1  0  0  0
 29 56  1  0  0  0
 29 57  1  0  0  0
 29 58  1  0  0  0
 30 59  1  0  0  0
 30 60  1  0  0  0
 30 61  1  0  0  0
 31 62  1  0  0  0
 31 63  1  0  0  0
 31 64  1  0  0  0
M  END
> <s_m_entry_id>
31009

> <s_m_entry_name>
dock_pv.222

> <s_m_Source_Path>
/home/csk/Desktop/cluster/DUD-E-result/rxra

> <s_m_Source_File>
dock_pv.maegz

> <i_m_Source_File_Index>
222

> <chembl_id>
CHEMBL326673

> <chembl_pref_name>
None

> <i_lp_mmshare_version>
53161

> <r_lp_tautomer_probability>
1

> <s_lp_Force_Field>
OPLS_2005

> <r_lp_Energy>
37.55277

> <b_lp_Chiralities_Consistent>
1

> <s_lp_Variant>
CHEMBL2061_lig299-1

> <s_i_glide_gridfile>
glide-grid_1mv9

> <i_i_glide_lignum>
345

> <i_i_glide_rotatable_bonds>
10

> <r_i_docking_score>
-10.355057359558

> <r_i_glide_ligand_efficiency>
-0.334034108372837

> <r_i_glide_ligand_efficiency_sa>
-1.04932828408011

> <r_i_glide_ligand_efficiency_ln>
-2.33538277897677

> <r_i_glide_gscore>
-10.355057359558

> <r_i_glide_lipo>
-6.10479694691772

> <r_i_glide_hbond>
-0.311571260338305

> <r_i_glide_metal>
0

> <r_i_glide_rewards>
-2.19161132064084

> <r_i_glide_evdw>
-32.0653953552246

> <r_i_glide_ecoul>
-5.10854339599609

> <r_i_glide_erotb>
0.622473445499558

> <r_i_glide_esite>
0

> <r_i_glide_emodel>
-42.99453793537

> <r_i_glide_energy>
-37.1739387512207

> <r_i_glide_einternal>
14.1934175491333

> <i_i_glide_confnum>
142

> <i_i_glide_posenum>
348

> <r_i_glide_eff_state_penalty>
0

> <s_user_duplicate_titles>
CHEMBL2061_lig299,178346

> <i_f3d_flags>
0

> <s_m_subgroup_title>
dock_pv

> <s_m_subgroupid>
dock_pv

> <b_m_subgroup_collapsed>
1

$$$$
CHEMBL2061_lig354
                    3D
 Schrodinger Suite 2021-1.
 58 60  0  0  1  0            999 V2000
   61.1516   46.4860   29.5156 C   0  0  0  0  0  0
   62.9341   46.4108   32.9254 C   0  0  0  0  0  0
   64.0643   45.5912   32.6497 C   0  0  0  0  0  0
   62.1914   46.1359   30.5883 C   0  0  0  0  0  0
   62.0566   46.6980   31.8621 C   0  0  0  0  0  0
   64.1814   45.0301   31.3690 C   0  0  0  0  0  0
   63.2599   45.2620   30.3537 C   0  0  0  0  0  0
   59.8161   45.7748   29.7395 C   0  0  0  0  0  0
   61.5302   46.7755   28.0651 C   0  0  0  0  0  0
   61.1777   47.9103   28.9741 C   0  0  0  0  0  0
   62.6426   46.9742   34.3452 C   0  0  0  0  0  0
   65.1275   45.2262   33.7160 C   0  0  0  0  0  0
   56.2001   46.3005   29.3624 C   0  0  0  0  0  0
   58.5891   46.2708   29.4699 C   0  0  0  0  0  0
   54.8082   45.9473   29.5326 C   0  0  0  0  0  0
   57.3109   45.5989   29.7083 C   0  0  0  0  0  0
   64.9675   46.1058   34.9786 C   0  0  0  0  0  0
   63.5110   46.2582   35.4143 C   0  0  0  0  0  0
   54.3602   45.0010   30.1753 O   0  0  0  0  0  0
   54.0041   46.8770   28.9389 O   0  0  0  0  0  0
   63.4298   44.4935   29.0512 C   0  0  0  0  0  0
   64.9398   43.7419   34.1148 C   0  0  0  0  0  0
   62.9807   48.4773   34.3835 C   0  0  0  0  0  0
   61.1683   46.7139   34.7458 C   0  0  0  0  0  0
   66.5505   45.5151   33.1754 C   0  0  0  0  0  0
   57.2972   44.1927   30.3023 C   0  0  0  0  0  0
   61.2176   47.3555   32.0358 H   0  0  0  0  0  0
   64.9997   44.3557   31.1648 H   0  0  0  0  0  0
   59.9089   44.7756   30.1389 H   0  0  0  0  0  0
   62.5649   46.7188   27.7309 H   0  0  0  0  0  0
   60.8295   46.5029   27.2747 H   0  0  0  0  0  0
   60.2698   48.4726   28.7605 H   0  0  0  0  0  0
   61.9886   48.5544   29.3064 H   0  0  0  0  0  0
   56.3363   47.2800   28.9381 H   0  0  0  0  0  0
   58.5469   47.2624   29.0480 H   0  0  0  0  0  0
   65.3809   47.0970   34.7985 H   0  0  0  0  0  0
   65.5590   45.7018   35.8002 H   0  0  0  0  0  0
   63.4802   46.8036   36.3585 H   0  0  0  0  0  0
   63.1064   45.2730   35.6425 H   0  0  0  0  0  0
   54.5173   47.5471   28.4843 H   0  0  0  0  0  0
   63.9467   43.5467   29.2159 H   0  0  0  0  0  0
   62.4667   44.2342   28.6108 H   0  0  0  0  0  0
   64.0076   45.0809   28.3392 H   0  0  0  0  0  0
   65.6103   43.4711   34.9295 H   0  0  0  0  0  0
   63.9218   43.5215   34.4363 H   0  0  0  0  0  0
   65.1642   43.0709   33.2848 H   0  0  0  0  0  0
   62.8088   48.8768   35.3825 H   0  0  0  0  0  0
   64.0209   48.6811   34.1390 H   0  0  0  0  0  0
   62.3642   49.0488   33.6887 H   0  0  0  0  0  0
   60.9820   47.0008   35.7812 H   0  0  0  0  0  0
   60.4651   47.2768   34.1394 H   0  0  0  0  0  0
   60.8948   45.6674   34.6419 H   0  0  0  0  0  0
   67.3079   45.3372   33.9405 H   0  0  0  0  0  0
   66.8073   44.8784   32.3305 H   0  0  0  0  0  0
   66.6569   46.5498   32.8458 H   0  0  0  0  0  0
   58.0063   43.5798   29.7490 H   0  0  0  0  0  0
   57.6451   44.2044   31.3374 H   0  0  0  0  0  0
   56.3487   43.6773   30.2255 H   0  0  0  0  0  0
  1  4  1  0  0  0
  1  8  1  0  0  0
  1  9  1  0  0  0
  1 10  1  0  0  0
  2  5  1  0  0  0
  2 11  1  0  0  0
  2  3  2  0  0  0
  3  6  1  0  0  0
  3 12  1  0  0  0
  4  5  2  0  0  0
  4  7  1  0  0  0
  5 27  1  0  0  0
  6  7  2  0  0  0
  6 28  1  0  0  0
  7 21  1  0  0  0
  8 14  2  0  0  0
  8 29  1  0  0  0
  9 10  1  0  0  0
  9 30  1  0  0  0
  9 31  1  0  0  0
 10 32  1  0  0  0
 10 33  1  0  0  0
 11 18  1  0  0  0
 11 23  1  0  0  0
 11 24  1  0  0  0
 12 17  1  0  0  0
 12 22  1  0  0  0
 12 25  1  0  0  0
 13 16  2  0  0  0
 13 15  1  0  0  0
 13 34  1  0  0  0
 14 16  1  0  0  0
 14 35  1  0  0  0
 15 19  2  0  0  0
 15 20  1  0  0  0
 16 26  1  0  0  0
 17 18  1  0  0  0
 17 36  1  0  0  0
 17 37  1  0  0  0
 18 38  1  0  0  0
 18 39  1  0  0  0
 20 40  1  0  0  0
 21 41  1  0  0  0
 21 42  1  0  0  0
 21 43  1  0  0  0
 22 44  1  0  0  0
 22 45  1  0  0  0
 22 46  1  0  0  0
 23 47  1  0  0  0
 23 48  1  0  0  0
 23 49  1  0  0  0
 24 50  1  0  0  0
 24 51  1  0  0  0
 24 52  1  0  0  0
 25 53  1  0  0  0
 25 54  1  0  0  0
 25 55  1  0  0  0
 26 56  1  0  0  0
 26 57  1  0  0  0
 26 58  1  0  0  0
M  END
> <s_m_entry_id>
31010

> <s_m_entry_name>
dock_pv.223

> <s_m_Source_Path>
/home/csk/Desktop/cluster/DUD-E-result/rxra

> <s_m_Source_File>
dock_pv.maegz

> <i_m_Source_File_Index>
223

> <chembl_id>
CHEMBL92284

> <chembl_pref_name>
None

> <i_lp_mmshare_version>
53161

> <r_lp_tautomer_probability>
1

> <s_lp_Force_Field>
OPLS_2005

> <r_lp_Energy>
34.488126

> <b_lp_Chiralities_Consistent>
1

> <s_lp_Variant>
CHEMBL2061_lig354-1

> <s_i_glide_gridfile>
glide-grid_1mv9

> <i_i_glide_lignum>
414

> <i_i_glide_rotatable_bonds>
5

> <r_i_docking_score>
-10.3402723245733

> <r_i_glide_ligand_efficiency>
-0.397702781714358

> <r_i_glide_ligand_efficiency_sa>
-1.17819292594391

> <r_i_glide_ligand_efficiency_ln>
-2.42837902622516

> <r_i_glide_gscore>
-10.3402723245733

> <r_i_glide_lipo>
-6.27075275867744

> <r_i_glide_hbond>
0

> <r_i_glide_metal>
0

> <r_i_glide_rewards>
-1.91596237500586

> <r_i_glide_evdw>
-45.0245513916016

> <r_i_glide_ecoul>
-3.44463729858398

> <r_i_glide_erotb>
0.614365973477658

> <r_i_glide_esite>
0

> <r_i_glide_emodel>
-75.5514693950394

> <r_i_glide_energy>
-48.4691886901855

> <r_i_glide_einternal>
6.84630346298218

> <i_i_glide_confnum>
111

> <i_i_glide_posenum>
37

> <r_i_glide_eff_state_penalty>
0

> <s_user_duplicate_titles>
CHEMBL2061_lig354,151032

> <i_f3d_flags>
0

> <s_m_subgroup_title>
dock_pv

> <s_m_subgroupid>
dock_pv

> <b_m_subgroup_collapsed>
1

$$$$
CHEMBL2061_lig325
                    3D
 Schrodinger Suite 2021-1.
 61 63  0  0  1  0            999 V2000
   62.6512   45.6244   28.8510 C   0  0  2  0  0  0
   61.2079   45.3164   28.4707 C   0  0  1  0  0  0
   62.2308   44.2082   28.4916 C   0  0  0  0  0  0
   62.9567   45.9912   30.2974 C   0  0  0  0  0  0
   63.9679   45.4186   32.4578 C   0  0  0  0  0  0
   63.3246   46.5382   33.0514 C   0  0  0  0  0  0
   63.7708   45.1810   31.0829 C   0  0  0  0  0  0
   62.5234   47.3386   32.2337 C   0  0  0  0  0  0
   62.3694   47.1072   30.8763 C   0  0  0  0  0  0
   60.0855   45.2772   29.5091 C   0  0  0  0  0  0
   63.4425   46.9157   34.5504 C   0  0  0  0  0  0
   64.8934   44.4994   33.2726 C   0  0  0  0  0  0
   56.4431   45.1889   29.6264 C   0  0  0  0  0  0
   58.7823   45.4683   29.2235 C   0  0  0  0  0  0
   55.1969   45.0505   30.3397 C   0  0  0  0  0  0
   57.6743   45.3749   30.1686 C   0  0  0  0  0  0
   64.5611   44.6124   34.7810 C   0  0  0  0  0  0
   64.5040   46.0513   35.2827 C   0  0  0  0  0  0
   54.8647   45.6769   31.3393 O   0  0  0  0  0  0
   63.3822   46.4758   27.7919 C   0  0  0  0  0  0
   54.3836   44.1414   29.7391 O   0  0  0  0  0  0
   61.5371   48.0779   30.0789 C   0  0  0  0  0  0
   64.6554   43.0066   32.9272 C   0  0  0  0  0  0
   66.3451   44.9772   33.0133 C   0  0  0  0  0  0
   63.9392   48.3705   34.6793 C   0  0  0  0  0  0
   62.0588   46.7237   35.2139 C   0  0  0  0  0  0
   57.9357   45.4953   31.6711 C   0  0  0  0  0  0
   60.8938   45.6697   27.4863 H   0  0  0  0  0  0
   62.1783   43.4510   29.2750 H   0  0  0  0  0  0
   62.4994   43.7716   27.5329 H   0  0  0  0  0  0
   64.2492   44.3439   30.5998 H   0  0  0  0  0  0
   62.0284   48.1970   32.6626 H   0  0  0  0  0  0
   60.3902   45.0698   30.5218 H   0  0  0  0  0  0
   56.3373   45.1105   28.5531 H   0  0  0  0  0  0
   58.5456   45.6781   28.1891 H   0  0  0  0  0  0
   63.6083   44.1301   35.0095 H   0  0  0  0  0  0
   65.3217   44.0742   35.3390 H   0  0  0  0  0  0
   64.3296   46.0623   36.3601 H   0  0  0  0  0  0
   65.5016   46.4762   35.1658 H   0  0  0  0  0  0
   63.2080   46.1193   26.7758 H   0  0  0  0  0  0
   63.0812   47.5213   27.8427 H   0  0  0  0  0  0
   64.4575   46.4771   27.9747 H   0  0  0  0  0  0
   54.8084   43.7231   28.9838 H   0  0  0  0  0  0
   60.8080   48.4770   30.7540 H   0  0  0  0  0  0
   62.1552   48.8768   29.7005 H   0  0  0  0  0  0
   60.9786   47.6790   29.2409 H   0  0  0  0  0  0
   65.3426   42.3855   33.4952 H   0  0  0  0  0  0
   63.6437   42.6833   33.1747 H   0  0  0  0  0  0
   64.8079   42.7622   31.8784 H   0  0  0  0  0  0
   67.0626   44.4772   33.6612 H   0  0  0  0  0  0
   66.6431   44.7987   31.9803 H   0  0  0  0  0  0
   66.4630   46.0486   33.1804 H   0  0  0  0  0  0
   64.1076   48.6477   35.7219 H   0  0  0  0  0  0
   64.8794   48.4771   34.1403 H   0  0  0  0  0  0
   63.2366   49.0972   34.2727 H   0  0  0  0  0  0
   62.0492   47.1526   36.2115 H   0  0  0  0  0  0
   61.2641   47.2320   34.6676 H   0  0  0  0  0  0
   61.7751   45.6782   35.2911 H   0  0  0  0  0  0
   58.8357   46.0757   31.8743 H   0  0  0  0  0  0
   57.1471   46.0450   32.1833 H   0  0  0  0  0  0
   58.0154   44.5097   32.1272 H   0  0  0  0  0  0
  1  2  1  0  0  0
  1  3  1  0  0  0
  1  4  1  0  0  0
  1 20  1  0  0  0
  2 10  1  0  0  0
  2  3  1  0  0  0
  2 28  1  0  0  0
  3 29  1  0  0  0
  3 30  1  0  0  0
  4  7  2  0  0  0
  4  9  1  0  0  0
  5  7  1  0  0  0
  5 12  1  0  0  0
  5  6  2  0  0  0
  6  8  1  0  0  0
  6 11  1  0  0  0
  7 31  1  0  0  0
  8  9  2  0  0  0
  8 32  1  0  0  0
  9 22  1  0  0  0
 10 14  2  0  0  0
 10 33  1  0  0  0
 11 18  1  0  0  0
 11 25  1  0  0  0
 11 26  1  0  0  0
 12 17  1  0  0  0
 12 23  1  0  0  0
 12 24  1  0  0  0
 13 16  2  0  0  0
 13 15  1  0  0  0
 13 34  1  0  0  0
 14 16  1  0  0  0
 14 35  1  0  0  0
 15 19  2  0  0  0
 15 21  1  0  0  0
 16 27  1  0  0  0
 17 18  1  0  0  0
 17 36  1  0  0  0
 17 37  1  0  0  0
 18 38  1  0  0  0
 18 39  1  0  0  0
 20 40  1  0  0  0
 20 41  1  0  0  0
 20 42  1  0  0  0
 21 43  1  0  0  0
 22 44  1  0  0  0
 22 45  1  0  0  0
 22 46  1  0  0  0
 23 47  1  0  0  0
 23 48  1  0  0  0
 23 49  1  0  0  0
 24 50  1  0  0  0
 24 51  1  0  0  0
 24 52  1  0  0  0
 25 53  1  0  0  0
 25 54  1  0  0  0
 25 55  1  0  0  0
 26 56  1  0  0  0
 26 57  1  0  0  0
 26 58  1  0  0  0
 27 59  1  0  0  0
 27 60  1  0  0  0
 27 61  1  0  0  0
M  END
> <s_m_entry_id>
31012

> <s_m_entry_name>
dock_pv.225

> <s_m_Source_Path>
/home/csk/Desktop/cluster/DUD-E-result/rxra

> <s_m_Source_File>
dock_pv.maegz

> <i_m_Source_File_Index>
225

> <chembl_id>
CHEMBL308883

> <chembl_pref_name>
None

> <i_lp_mmshare_version>
53161

> <r_lp_tautomer_probability>
1

> <s_lp_Force_Field>
OPLS_2005

> <r_lp_Energy>
30.603097

> <b_lp_Chiralities_Consistent>
1

> <s_lp_Variant>
CHEMBL2061_lig325-2

> <s_i_glide_gridfile>
glide-grid_1mv9

> <i_i_glide_lignum>
377

> <i_i_glide_rotatable_bonds>
5

> <r_i_docking_score>
-10.3345351908251

> <r_i_glide_ligand_efficiency>
-0.382760562623152

> <r_i_glide_ligand_efficiency_sa>
-1.14828168660794

> <r_i_glide_ligand_efficiency_ln>
-2.40570941429569

> <r_i_glide_gscore>
-10.3345351908251

> <r_i_glide_lipo>
-6.22690991004585

> <r_i_glide_hbond>
-0.0837258851002045

> <r_i_glide_metal>
0

> <r_i_glide_rewards>
-2.06122548064685

> <r_i_glide_evdw>
-37.4052696228027

> <r_i_glide_ecoul>
-4.4366774559021

> <r_i_glide_erotb>
0.573091184493258

> <r_i_glide_esite>
0

> <r_i_glide_emodel>
-57.8113761751525

> <r_i_glide_energy>
-41.8419470787048

> <r_i_glide_einternal>
2.42022442817688

> <i_i_glide_confnum>
9

> <i_i_glide_posenum>
182

> <r_i_glide_eff_state_penalty>
0

> <s_user_duplicate_titles>
CHEMBL2061_lig325,CHEMBL2061_lig327

> <i_f3d_flags>
0

> <s_m_subgroup_title>
dock_pv

> <s_m_subgroupid>
dock_pv

> <b_m_subgroup_collapsed>
1

$$$$
CHEMBL2061_lig306
                    3D
 Schrodinger Suite 2021-1.
 59 60  0  0  1  0            999 V2000
   63.0094   46.5981   32.5956 C   0  0  0  0  0  0
   63.9700   45.5560   32.7097 C   0  0  0  0  0  0
   62.8120   46.1539   30.1843 C   0  0  0  0  0  0
   62.4632   46.8681   31.3259 C   0  0  0  0  0  0
   64.2994   44.8367   31.5491 C   0  0  0  0  0  0
   63.7078   45.0954   30.3188 C   0  0  0  0  0  0
   64.6627   45.1876   34.0486 C   0  0  0  0  0  0
   62.4857   47.3690   33.8289 C   0  0  0  0  0  0
   62.2621   46.5398   28.8622 C   0  0  0  0  0  0
   56.2259   45.9004   29.3103 C   0  0  0  0  0  0
   54.9352   45.6756   29.9142 C   0  0  0  0  0  0
   59.8838   46.0287   29.4219 C   0  0  0  0  0  0
   57.4433   45.7279   29.8837 C   0  0  0  0  0  0
   60.9507   46.4781   28.5454 C   0  0  0  0  0  0
   58.5904   46.0855   29.0543 C   0  0  0  0  0  0
   63.9334   45.8226   35.2647 C   0  0  0  0  0  0
   63.4826   47.2573   35.0132 C   0  0  0  0  0  0
   54.6704   44.8756   30.8106 O   0  0  0  0  0  0
   64.0079   44.2902   29.2557 O   0  0  0  0  0  0
   54.0008   46.4785   29.3389 O   0  0  0  0  0  0
   62.3292   48.8793   33.5497 C   0  0  0  0  0  0
   64.5974   43.6541   34.2718 C   0  0  0  0  0  0
   66.1133   45.7265   34.0026 C   0  0  0  0  0  0
   61.1255   46.7432   34.2237 C   0  0  0  0  0  0
   63.2733   47.0820   27.8609 C   0  0  0  0  0  0
   57.6517   45.2716   31.3306 C   0  0  0  0  0  0
   63.1111   43.2014   29.0685 C   0  0  0  0  0  0
   61.7156   47.6351   31.2073 H   0  0  0  0  0  0
   65.0174   44.0324   31.6008 H   0  0  0  0  0  0
   56.1709   46.2485   28.2884 H   0  0  0  0  0  0
   60.1431   45.6538   30.4012 H   0  0  0  0  0  0
   60.6692   46.8010   27.5531 H   0  0  0  0  0  0
   58.3934   46.4473   28.0545 H   0  0  0  0  0  0
   63.0585   45.2377   35.5425 H   0  0  0  0  0  0
   64.5736   45.7902   36.1487 H   0  0  0  0  0  0
   63.0387   47.6692   35.9208 H   0  0  0  0  0  0
   64.3707   47.8635   34.8261 H   0  0  0  0  0  0
   54.4081   47.0402   28.6755 H   0  0  0  0  0  0
   61.6081   49.2768   34.2408 H   0  0  0  0  0  0
   63.2152   49.4665   33.7391 H   0  0  0  0  0  0
   61.9797   49.1520   32.5575 H   0  0  0  0  0  0
   64.8082   43.3919   35.3072 H   0  0  0  0  0  0
   63.6096   43.2510   34.0450 H   0  0  0  0  0  0
   65.3193   43.1162   33.6557 H   0  0  0  0  0  0
   66.6419   45.5414   34.9380 H   0  0  0  0  0  0
   66.6921   45.2469   33.2127 H   0  0  0  0  0  0
   66.1460   46.7996   33.8112 H   0  0  0  0  0  0
   60.7229   47.1977   35.1306 H   0  0  0  0  0  0
   60.3827   46.8765   33.4368 H   0  0  0  0  0  0
   61.1964   45.6759   34.4018 H   0  0  0  0  0  0
   64.1773   46.4772   27.8248 H   0  0  0  0  0  0
   62.8618   47.1353   26.8538 H   0  0  0  0  0  0
   63.5620   48.0935   28.1399 H   0  0  0  0  0  0
   58.4178   45.8857   31.8037 H   0  0  0  0  0  0
   56.7795   45.4040   31.9686 H   0  0  0  0  0  0
   58.0073   44.2412   31.3646 H   0  0  0  0  0  0
   63.3516   42.6841   28.1398 H   0  0  0  0  0  0
   63.2075   42.4787   29.8806 H   0  0  0  0  0  0
   62.0703   43.5252   29.0030 H   0  0  0  0  0  0
  1  2  2  0  0  0
  1  4  1  0  0  0
  1  8  1  0  0  0
  2  5  1  0  0  0
  2  7  1  0  0  0
  3  4  2  0  0  0
  3  6  1  0  0  0
  3  9  1  0  0  0
  4 28  1  0  0  0
  5  6  2  0  0  0
  5 29  1  0  0  0
  6 19  1  0  0  0
  7 22  1  0  0  0
  7 23  1  0  0  0
  7 16  1  0  0  0
  8 17  1  0  0  0
  8 21  1  0  0  0
  8 24  1  0  0  0
  9 14  2  0  0  0
  9 25  1  0  0  0
 10 13  2  0  0  0
 10 11  1  0  0  0
 10 30  1  0  0  0
 11 18  2  0  0  0
 11 20  1  0  0  0
 12 14  1  0  0  0
 12 15  2  0  0  0
 12 31  1  0  0  0
 13 15  1  0  0  0
 13 26  1  0  0  0
 14 32  1  0  0  0
 15 33  1  0  0  0
 16 17  1  0  0  0
 16 34  1  0  0  0
 16 35  1  0  0  0
 17 36  1  0  0  0
 17 37  1  0  0  0
 19 27  1  0  0  0
 20 38  1  0  0  0
 21 39  1  0  0  0
 21 40  1  0  0  0
 21 41  1  0  0  0
 22 42  1  0  0  0
 22 43  1  0  0  0
 22 44  1  0  0  0
 23 45  1  0  0  0
 23 46  1  0  0  0
 23 47  1  0  0  0
 24 48  1  0  0  0
 24 49  1  0  0  0
 24 50  1  0  0  0
 25 51  1  0  0  0
 25 52  1  0  0  0
 25 53  1  0  0  0
 26 54  1  0  0  0
 26 55  1  0  0  0
 26 56  1  0  0  0
 27 57  1  0  0  0
 27 58  1  0  0  0
 27 59  1  0  0  0
M  END
> <s_m_entry_id>
31013

> <s_m_entry_name>
dock_pv.226

> <s_m_Source_Path>
/home/csk/Desktop/cluster/DUD-E-result/rxra

> <s_m_Source_File>
dock_pv.maegz

> <i_m_Source_File_Index>
226

> <chembl_id>
CHEMBL111589

> <chembl_pref_name>
None

> <i_lp_mmshare_version>
53161

> <r_lp_tautomer_probability>
1

> <s_lp_Force_Field>
OPLS_2005

> <r_lp_Energy>
34.064123

> <b_lp_Chiralities_Consistent>
1

> <s_lp_Variant>
CHEMBL2061_lig306-1

> <s_i_glide_gridfile>
glide-grid_1mv9

> <i_i_glide_lignum>
354

> <i_i_glide_rotatable_bonds>
6

> <r_i_docking_score>
-10.3245857270937

> <r_i_glide_ligand_efficiency>
-0.382392063966433

> <r_i_glide_ligand_efficiency_sa>
-1.147176190639

> <r_i_glide_ligand_efficiency_ln>
-2.40339334316875

> <r_i_glide_gscore>
-10.3245857270937

> <r_i_glide_lipo>
-6.21388731648909

> <r_i_glide_hbond>
-0.0283609049137124

> <r_i_glide_metal>
0

> <r_i_glide_rewards>
-1.87743943246351

> <r_i_glide_evdw>
-45.5169296264648

> <r_i_glide_ecoul>
-3.3111629486084

> <r_i_glide_erotb>
0.567622850387106

> <r_i_glide_esite>
0

> <r_i_glide_emodel>
-64.0501105422094

> <r_i_glide_energy>
-48.8280925750732

> <r_i_glide_einternal>
5.85439443588257

> <i_i_glide_confnum>
31

> <i_i_glide_posenum>
282

> <r_i_glide_eff_state_penalty>
0

> <s_user_duplicate_titles>
CHEMBL2061_lig306,180821

> <i_f3d_flags>
0

> <s_m_subgroup_title>
dock_pv

> <s_m_subgroupid>
dock_pv

> <b_m_subgroup_collapsed>
1

$$$$
CHEMBL2061_lig414
                    3D
 Schrodinger Suite 2021-1.
 59 60  0  0  1  0            999 V2000
   61.6306   46.9185   32.6562 C   0  0  0  0  0  0
   61.5666   46.8994   31.2813 C   0  0  0  0  0  0
   62.6063   46.3988   30.5198 C   0  0  0  0  0  0
   63.7223   45.8996   31.2090 C   0  0  0  0  0  0
   62.7521   46.4773   33.3616 C   0  0  0  0  0  0
   63.8217   45.9057   32.6185 C   0  0  0  0  0  0
   65.0164   45.1944   33.3085 C   0  0  0  0  0  0
   65.0836   45.5240   34.8267 C   0  0  0  0  0  0
   63.7114   45.5750   35.5151 C   0  0  0  0  0  0
   62.7787   46.6452   34.8985 C   0  0  0  0  0  0
   62.4983   46.3889   29.1049 N   0  0  0  0  0  0
   61.2090   46.3030   28.3833 C   0  0  0  0  0  0
   59.9966   45.6770   29.0653 C   0  0  0  0  0  0
   58.7168   46.0749   28.8966 C   0  0  0  0  0  0
   57.5378   45.5180   29.5716 C   0  0  0  0  0  0
   56.3409   46.0911   29.2722 C   0  0  0  0  0  0
   57.7006   44.3330   30.5197 C   0  0  0  0  0  0
   55.0144   45.8449   29.8024 C   0  0  0  0  0  0
   54.9770   45.0986   30.9385 O   0  0  0  0  0  0
   54.0081   46.3739   29.3391 O   0  0  0  0  0  0
   63.7114   46.5855   28.3094 C   0  0  0  0  0  0
   63.6557   47.7961   27.3627 C   0  0  0  0  0  0
   64.8088   43.6658   33.1617 C   0  0  0  0  0  0
   66.3572   45.6724   32.6972 C   0  0  0  0  0  0
   63.3403   48.0552   35.2115 C   0  0  0  0  0  0
   61.3465   46.4582   35.4844 C   0  0  0  0  0  0
   60.7640   47.2771   33.1766 H   0  0  0  0  0  0
   60.6833   47.2771   30.8094 H   0  0  0  0  0  0
   64.5128   45.4358   30.6410 H   0  0  0  0  0  0
   65.5912   46.4747   34.9860 H   0  0  0  0  0  0
   65.7147   44.7967   35.3386 H   0  0  0  0  0  0
   63.8533   45.7685   36.5783 H   0  0  0  0  0  0
   63.2506   44.5910   35.4651 H   0  0  0  0  0  0
   61.3802   45.6867   27.4994 H   0  0  0  0  0  0
   60.9413   47.2949   28.0163 H   0  0  0  0  0  0
   60.2361   44.8610   29.7306 H   0  0  0  0  0  0
   58.5632   46.8874   28.2023 H   0  0  0  0  0  0
   56.3104   46.8768   28.5378 H   0  0  0  0  0  0
   58.4705   43.6772   30.1319 H   0  0  0  0  0  0
   58.0085   44.6499   31.5159 H   0  0  0  0  0  0
   56.8367   43.6774   30.5582 H   0  0  0  0  0  0
   55.8684   44.8629   31.2016 H   0  0  0  0  0  0
   64.6026   46.6939   28.9270 H   0  0  0  0  0  0
   63.8429   45.6730   27.7401 H   0  0  0  0  0  0
   64.6067   47.9212   26.8436 H   0  0  0  0  0  0
   62.8857   47.6795   26.5999 H   0  0  0  0  0  0
   63.4555   48.7185   27.9088 H   0  0  0  0  0  0
   65.6087   43.1043   33.6472 H   0  0  0  0  0  0
   63.8668   43.3317   33.5980 H   0  0  0  0  0  0
   64.8008   43.3620   32.1144 H   0  0  0  0  0  0
   67.2061   45.2844   33.2634 H   0  0  0  0  0  0
   66.4837   45.3349   31.6680 H   0  0  0  0  0  0
   66.4360   46.7610   32.6991 H   0  0  0  0  0  0
   63.4647   48.2100   36.2841 H   0  0  0  0  0  0
   64.3030   48.2410   34.7350 H   0  0  0  0  0  0
   62.6689   48.8331   34.8478 H   0  0  0  0  0  0
   61.3121   46.2073   36.5386 H   0  0  0  0  0  0
   60.7615   47.3726   35.3750 H   0  0  0  0  0  0
   60.7931   45.6766   34.9694 H   0  0  0  0  0  0
  1  5  2  0  0  0
  1  2  1  0  0  0
  1 27  1  0  0  0
  2  3  2  0  0  0
  2 28  1  0  0  0
  3  4  1  0  0  0
  3 11  1  0  0  0
  4  6  2  0  0  0
  4 29  1  0  0  0
  5 10  1  0  0  0
  5  6  1  0  0  0
  6  7  1  0  0  0
  7  8  1  0  0  0
  7 23  1  0  0  0
  7 24  1  0  0  0
  8  9  1  0  0  0
  8 30  1  0  0  0
  8 31  1  0  0  0
  9 10  1  0  0  0
  9 32  1  0  0  0
  9 33  1  0  0  0
 10 25  1  0  0  0
 10 26  1  0  0  0
 11 21  1  0  0  0
 11 12  1  0  0  0
 12 13  1  0  0  0
 12 34  1  0  0  0
 12 35  1  0  0  0
 13 14  2  0  0  0
 13 36  1  0  0  0
 14 15  1  0  0  0
 14 37  1  0  0  0
 15 16  2  0  0  0
 15 17  1  0  0  0
 16 18  1  0  0  0
 16 38  1  0  0  0
 17 39  1  0  0  0
 17 40  1  0  0  0
 17 41  1  0  0  0
 18 19  1  0  0  0
 18 20  2  0  0  0
 19 42  1  0  0  0
 21 22  1  0  0  0
 21 43  1  0  0  0
 21 44  1  0  0  0
 22 45  1  0  0  0
 22 46  1  0  0  0
 22 47  1  0  0  0
 23 48  1  0  0  0
 23 49  1  0  0  0
 23 50  1  0  0  0
 24 51  1  0  0  0
 24 52  1  0  0  0
 24 53  1  0  0  0
 25 54  1  0  0  0
 25 55  1  0  0  0
 25 56  1  0  0  0
 26 57  1  0  0  0
 26 58  1  0  0  0
 26 59  1  0  0  0
M  END
> <s_m_entry_id>
31014

> <s_m_entry_name>
dock_pv.227

> <s_m_Source_Path>
/home/csk/Desktop/cluster/DUD-E-result/rxra

> <s_m_Source_File>
dock_pv.maegz

> <i_m_Source_File_Index>
227

> <chembl_id>
CHEMBL378553

> <chembl_pref_name>
None

> <i_lp_mmshare_version>
53161

> <r_lp_tautomer_probability>
1

> <s_lp_Force_Field>
OPLS_2005

> <r_lp_Energy>
27.809923

> <b_lp_Chiralities_Consistent>
1

> <s_lp_Variant>
CHEMBL2061_lig414-1

> <s_i_glide_gridfile>
glide-grid_1mv9

> <i_i_glide_lignum>
485

> <i_i_glide_rotatable_bonds>
7

> <r_i_docking_score>
-10.318163728921

> <r_i_glide_ligand_efficiency>
-0.396852451112346

> <r_i_glide_ligand_efficiency_sa>
-1.17567382488133

> <r_i_glide_ligand_efficiency_ln>
-2.42318689508043

> <r_i_glide_gscore>
-10.318163728921

> <r_i_glide_lipo>
-6.07416748955586

> <r_i_glide_hbond>
-0.0533463001864491

> <r_i_glide_metal>
0

> <r_i_glide_rewards>
-2.22057439925942

> <r_i_glide_evdw>
-44.9625625610352

> <r_i_glide_ecoul>
-3.18929576873779

> <r_i_glide_erotb>
0.756446953443154

> <r_i_glide_esite>
0

> <r_i_glide_emodel>
-77.5581389071245

> <r_i_glide_energy>
-48.1518583297729

> <r_i_glide_einternal>
6.135178565979

> <i_i_glide_confnum>
302

> <i_i_glide_posenum>
226

> <r_i_glide_eff_state_penalty>
0

> <s_user_duplicate_titles>
CHEMBL2061_lig414,345846

> <i_f3d_flags>
0

> <s_m_subgroup_title>
dock_pv

> <s_m_subgroupid>
dock_pv

> <b_m_subgroup_collapsed>
1

$$$$
CHEMBL2061_lig398
                    3D
 Schrodinger Suite 2021-1.
 54 57  0  0  1  0            999 V2000
   60.2715   46.7351   29.5089 C   0  0  0  0  0  0
   58.2362   45.7729   29.3865 C   0  0  0  0  0  0
   59.2823   46.0770   30.2532 C   0  0  0  0  0  0
   59.8935   46.5494   28.2027 C   0  0  0  0  0  0
   58.6257   46.0756   28.1216 O   0  0  0  0  0  0
   63.2194   46.5054   33.1256 C   0  0  0  0  0  0
   64.0601   45.4481   32.6784 C   0  0  0  0  0  0
   61.5181   47.5312   29.8682 C   0  0  1  0  0  0
   62.4064   47.1368   32.1778 C   0  0  0  0  0  0
   62.4304   46.7996   30.8293 C   0  0  0  0  0  0
   56.9024   45.2778   29.6063 C   0  0  0  0  0  0
   63.1593   46.9970   34.5939 C   0  0  0  0  0  0
   64.9552   44.6378   33.6276 C   0  0  0  0  0  0
   64.1034   45.1585   31.3063 C   0  0  0  0  0  0
   63.2915   45.8024   30.3964 C   0  0  0  0  0  0
   56.0266   45.2774   28.7433 O   0  0  0  0  0  0
   64.2576   46.3200   35.4535 C   0  0  0  0  0  0
   64.5060   44.8594   35.0914 C   0  0  0  0  0  0
   56.7061   44.8767   30.8945 O   0  0  0  0  0  0
   60.7538   46.7616   26.9852 C   0  0  0  0  0  0
   62.2023   48.0770   28.5836 C   0  0  0  0  0  0
   63.4690   48.5005   34.6412 C   0  0  0  0  0  0
   61.7542   46.7283   35.1779 C   0  0  0  0  0  0
   64.8079   43.1134   33.3391 C   0  0  0  0  0  0
   66.4078   45.1463   33.4511 C   0  0  0  0  0  0
   62.1897   47.1322   27.3824 C   0  0  0  0  0  0
   59.2828   45.9845   31.3294 H   0  0  0  0  0  0
   61.2002   48.4195   30.4135 H   0  0  0  0  0  0
   61.7417   47.9233   32.5004 H   0  0  0  0  0  0
   64.7781   44.4132   30.9156 H   0  0  0  0  0  0
   63.3500   45.4997   29.3679 H   0  0  0  0  0  0
   64.0224   46.4076   36.5157 H   0  0  0  0  0  0
   65.2076   46.8413   35.3366 H   0  0  0  0  0  0
   63.6080   44.2884   35.3233 H   0  0  0  0  0  0
   65.2844   44.4770   35.7390 H   0  0  0  0  0  0
   57.5098   44.9253   31.4127 H   0  0  0  0  0  0
   60.8080   45.7780   26.5390 H   0  0  0  0  0  0
   60.4080   47.5219   26.2911 H   0  0  0  0  0  0
   63.2080   48.4124   28.7989 H   0  0  0  0  0  0
   61.6705   48.9743   28.2653 H   0  0  0  0  0  0
   63.5445   48.8739   35.6642 H   0  0  0  0  0  0
   64.4083   48.7159   34.1390 H   0  0  0  0  0  0
   62.7070   49.0955   34.1390 H   0  0  0  0  0  0
   61.6622   47.1253   36.1865 H   0  0  0  0  0  0
   60.9708   47.2090   34.5915 H   0  0  0  0  0  0
   61.5134   45.6770   35.2181 H   0  0  0  0  0  0
   65.6499   42.5549   33.7390 H   0  0  0  0  0  0
   63.8895   42.6915   33.7499 H   0  0  0  0  0  0
   64.8079   42.8502   32.2847 H   0  0  0  0  0  0
   67.0845   44.6931   34.1760 H   0  0  0  0  0  0
   66.7934   44.8986   32.4617 H   0  0  0  0  0  0
   66.4890   46.2284   33.5611 H   0  0  0  0  0  0
   62.7666   46.2308   27.5666 H   0  0  0  0  0  0
   62.6909   47.6096   26.5389 H   0  0  0  0  0  0
  1  3  1  0  0  0
  1  4  2  0  0  0
  1  8  1  0  0  0
  2  3  2  0  0  0
  2 11  1  0  0  0
  2  5  1  0  0  0
  3 27  1  0  0  0
  4  5  1  0  0  0
  4 20  1  0  0  0
  6  9  2  0  0  0
  6 12  1  0  0  0
  6  7  1  0  0  0
  7 14  2  0  0  0
  7 13  1  0  0  0
  8 10  1  0  0  0
  8 21  1  0  0  0
  8 28  1  0  0  0
  9 10  1  0  0  0
  9 29  1  0  0  0
 10 15  2  0  0  0
 11 16  2  0  0  0
 11 19  1  0  0  0
 12 17  1  0  0  0
 12 22  1  0  0  0
 12 23  1  0  0  0
 13 18  1  0  0  0
 13 24  1  0  0  0
 13 25  1  0  0  0
 14 15  1  0  0  0
 14 30  1  0  0  0
 15 31  1  0  0  0
 17 18  1  0  0  0
 17 32  1  0  0  0
 17 33  1  0  0  0
 18 34  1  0  0  0
 18 35  1  0  0  0
 19 36  1  0  0  0
 20 26  1  0  0  0
 20 37  1  0  0  0
 20 38  1  0  0  0
 21 26  1  0  0  0
 21 39  1  0  0  0
 21 40  1  0  0  0
 22 41  1  0  0  0
 22 42  1  0  0  0
 22 43  1  0  0  0
 23 44  1  0  0  0
 23 45  1  0  0  0
 23 46  1  0  0  0
 24 47  1  0  0  0
 24 48  1  0  0  0
 24 49  1  0  0  0
 25 50  1  0  0  0
 25 51  1  0  0  0
 25 52  1  0  0  0
 26 53  1  0  0  0
 26 54  1  0  0  0
M  END
> <s_m_entry_id>
31015

> <s_m_entry_name>
dock_pv.228

> <s_m_Source_Path>
/home/csk/Desktop/cluster/DUD-E-result/rxra

> <s_m_Source_File>
dock_pv.maegz

> <i_m_Source_File_Index>
228

> <chembl_id>
CHEMBL60089

> <chembl_pref_name>
None

> <i_lp_mmshare_version>
53161

> <r_lp_tautomer_probability>
1

> <s_lp_Force_Field>
OPLS_2005

> <r_lp_Energy>
23.45562

> <b_lp_Chiralities_Consistent>
1

> <s_lp_Variant>
CHEMBL2061_lig398-2

> <s_i_glide_gridfile>
glide-grid_1mv9

> <i_i_glide_lignum>
466

> <i_i_glide_rotatable_bonds>
3

> <r_i_docking_score>
-10.3136324897051

> <r_i_glide_ligand_efficiency>
-0.396678172680964

> <r_i_glide_ligand_efficiency_sa>
-1.17515752571412

> <r_i_glide_ligand_efficiency_ln>
-2.42212274841878

> <r_i_glide_gscore>
-10.3136324897051

> <r_i_glide_lipo>
-6.02722117869869

> <r_i_glide_hbond>
0

> <r_i_glide_metal>
0

> <r_i_glide_rewards>
-2.35590940909091

> <r_i_glide_evdw>
-44.2613143920898

> <r_i_glide_ecoul>
-0.164572894573212

> <r_i_glide_erotb>
0.307249751875004

> <r_i_glide_esite>
0

> <r_i_glide_emodel>
-41.826074493778

> <r_i_glide_energy>
-44.4258872866631

> <r_i_glide_einternal>
7.4140157699585

> <i_i_glide_confnum>
20

> <i_i_glide_posenum>
211

> <r_i_glide_eff_state_penalty>
0

> <s_user_duplicate_titles>
CHEMBL2061_lig398

> <i_f3d_flags>
0

> <s_m_subgroup_title>
dock_pv

> <s_m_subgroupid>
dock_pv

> <b_m_subgroup_collapsed>
1

$$$$
CHEMBL2061_lig20
                    3D
 Schrodinger Suite 2021-1.
 52 54  0  0  1  0            999 V2000
   65.2490   46.4764   32.7190 C   0  0  0  0  0  0
   64.7373   46.5614   34.0614 C   0  0  0  0  0  0
   63.4293   46.6575   34.3742 C   0  0  0  0  0  0
   64.2944   46.3797   31.7438 N   0  0  0  0  0  0
   62.9000   46.3799   31.9881 C   0  0  0  0  0  0
   62.4242   46.5262   33.2944 C   0  0  0  0  0  0
   61.0460   46.4760   33.4905 C   0  0  0  0  0  0
   60.2127   46.2319   32.4018 C   0  0  0  0  0  0
   60.7349   46.0889   31.0983 C   0  0  0  0  0  0
   62.0746   46.1809   30.9338 N   0  0  0  0  0  0
   66.4550   46.5403   32.5388 O   0  0  0  0  0  0
   62.9624   46.7816   35.8046 C   0  0  0  0  0  0
   59.9386   45.8957   29.9216 N   0  0  0  0  0  0
   58.5333   45.6765   29.8291 C   0  0  0  0  0  0
   57.8023   45.1136   30.8849 C   0  0  0  0  0  0
   56.4160   45.1721   30.8659 C   0  0  0  0  0  0
   55.7657   45.6772   29.7510 C   0  0  0  0  0  0
   56.5284   46.0707   28.6585 C   0  0  0  0  0  0
   57.8802   46.0771   28.6959 N   0  0  0  0  0  0
   54.2841   45.7366   29.7397 C   0  0  0  0  0  0
   53.7719   46.8347   29.1031 O   0  0  0  0  0  0
   53.6080   44.8772   30.2951 O   0  0  0  0  0  0
   60.6202   46.1647   28.6240 C   0  0  0  0  0  0
   60.7488   47.6655   28.3071 C   0  0  0  0  0  0
   64.7387   46.3553   30.3381 C   0  0  0  0  0  0
   62.2796   45.6766   36.1183 F   0  0  0  0  0  0
   62.1804   47.8543   35.9472 F   0  0  0  0  0  0
   64.0088   46.9026   36.6293 F   0  0  0  0  0  0
   65.0829   44.9816   29.7348 C   0  0  0  0  0  0
   64.0342   43.8739   29.9556 C   0  0  0  0  0  0
   66.4789   44.5325   30.1768 C   0  0  0  0  0  0
   65.4847   46.5876   34.8394 H   0  0  0  0  0  0
   60.6067   46.5788   34.4714 H   0  0  0  0  0  0
   59.1668   46.1973   32.6319 H   0  0  0  0  0  0
   58.2647   44.6690   31.7449 H   0  0  0  0  0  0
   55.8331   44.8824   31.7261 H   0  0  0  0  0  0
   56.0594   46.3876   27.7386 H   0  0  0  0  0  0
   54.4613   47.4293   28.7974 H   0  0  0  0  0  0
   61.6142   45.7182   28.6040 H   0  0  0  0  0  0
   60.1115   45.6785   27.7927 H   0  0  0  0  0  0
   61.2384   47.8167   27.3452 H   0  0  0  0  0  0
   59.7729   48.1480   28.2579 H   0  0  0  0  0  0
   61.3427   48.1834   29.0604 H   0  0  0  0  0  0
   64.0104   46.8605   29.7032 H   0  0  0  0  0  0
   65.6081   46.9845   30.2643 H   0  0  0  0  0  0
   65.1474   45.1867   28.6662 H   0  0  0  0  0  0
   63.8705   43.6840   31.0163 H   0  0  0  0  0  0
   63.0763   44.1330   29.5070 H   0  0  0  0  0  0
   64.3476   42.9313   29.5052 H   0  0  0  0  0  0
   66.5415   44.4785   31.2582 H   0  0  0  0  0  0
   66.8074   43.5888   29.7415 H   0  0  0  0  0  0
   67.2094   45.2770   29.8928 H   0  0  0  0  0  0
  1  2  1  0  0  0
  1  4  1  0  0  0
  1 11  2  0  0  0
  2  3  2  0  0  0
  2 32  1  0  0  0
  3  6  1  0  0  0
  3 12  1  0  0  0
  4  5  1  0  0  0
  4 25  1  0  0  0
  5  6  2  0  0  0
  5 10  1  0  0  0
  6  7  1  0  0  0
  7  8  2  0  0  0
  7 33  1  0  0  0
  8  9  1  0  0  0
  8 34  1  0  0  0
  9 10  2  0  0  0
  9 13  1  0  0  0
 12 26  1  0  0  0
 12 27  1  0  0  0
 12 28  1  0  0  0
 13 14  1  0  0  0
 13 23  1  0  0  0
 14 15  2  0  0  0
 14 19  1  0  0  0
 15 16  1  0  0  0
 15 35  1  0  0  0
 16 17  2  0  0  0
 16 36  1  0  0  0
 17 18  1  0  0  0
 17 20  1  0  0  0
 18 19  2  0  0  0
 18 37  1  0  0  0
 20 21  1  0  0  0
 20 22  2  0  0  0
 21 38  1  0  0  0
 23 24  1  0  0  0
 23 39  1  0  0  0
 23 40  1  0  0  0
 24 41  1  0  0  0
 24 42  1  0  0  0
 24 43  1  0  0  0
 25 29  1  0  0  0
 25 44  1  0  0  0
 25 45  1  0  0  0
 29 30  1  0  0  0
 29 31  1  0  0  0
 29 46  1  0  0  0
 30 47  1  0  0  0
 30 48  1  0  0  0
 30 49  1  0  0  0
 31 50  1  0  0  0
 31 51  1  0  0  0
 31 52  1  0  0  0
M  END
> <s_m_entry_id>
31016

> <s_m_entry_name>
dock_pv.229

> <s_m_Source_Path>
/home/csk/Desktop/cluster/DUD-E-result/rxra

> <s_m_Source_File>
dock_pv.maegz

> <i_m_Source_File_Index>
229

> <chembl_id>
CHEMBL1223375

> <chembl_pref_name>
None

> <i_lp_mmshare_version>
53161

> <r_lp_tautomer_probability>
1

> <s_lp_Force_Field>
OPLS_2005

> <r_lp_Energy>
35.205219

> <b_lp_Chiralities_Consistent>
1

> <s_lp_Variant>
CHEMBL2061_lig20-1

> <s_i_glide_gridfile>
glide-grid_1mv9

> <i_i_glide_lignum>
24

> <i_i_glide_rotatable_bonds>
8

> <r_i_docking_score>
-10.3064229991609

> <r_i_glide_ligand_efficiency>
-0.332465258037448

> <r_i_glide_ligand_efficiency_sa>
-1.04439992799566

> <r_i_glide_ligand_efficiency_ln>
-2.32441424024308

> <r_i_glide_gscore>
-10.3064229991609

> <r_i_glide_lipo>
-4.80822566850282

> <r_i_glide_hbond>
-0.373621047249719

> <r_i_glide_metal>
0

> <r_i_glide_rewards>
-3.07603247770748

> <r_i_glide_evdw>
-30.0908355712891

> <r_i_glide_ecoul>
-6.16613388061523

> <r_i_glide_erotb>
0.422132409670448

> <r_i_glide_esite>
-0.0412143547145662

> <r_i_glide_emodel>
-42.8172649200359

> <r_i_glide_energy>
-36.2569694519043

> <r_i_glide_einternal>
6.71584367752075

> <i_i_glide_confnum>
2

> <i_i_glide_posenum>
15

> <r_i_glide_eff_state_penalty>
0

> <s_user_duplicate_titles>
CHEMBL2061_lig20

> <i_f3d_flags>
0

> <s_m_subgroup_title>
dock_pv

> <s_m_subgroupid>
dock_pv

> <b_m_subgroup_collapsed>
1

$$$$
CHEMBL2061_lig330
                    3D
 Schrodinger Suite 2021-1.
 53 55  0  0  1  0            999 V2000
   61.7264   46.6744   28.8980 S   0  0  0  0  0  0
   62.8197   46.4127   30.3298 C   0  0  0  0  0  0
   63.1108   46.5574   32.7637 C   0  0  0  0  0  0
   64.3701   45.9063   32.6564 C   0  0  0  0  0  0
   62.4140   46.8627   31.5839 C   0  0  0  0  0  0
   64.8224   45.5641   31.3799 C   0  0  0  0  0  0
   64.0742   45.8012   30.2340 C   0  0  0  0  0  0
   62.4945   46.9767   34.1211 C   0  0  0  0  0  0
   65.2303   45.5165   33.8816 C   0  0  0  0  0  0
   60.0188   46.2642   29.3015 C   0  0  0  0  0  0
   55.9023   45.2304   30.0490 C   0  0  0  0  0  0
   62.0833   45.7229   27.8407 O   0  0  0  0  0  0
   61.7452   48.1114   28.6201 O   0  0  0  0  0  0
   57.3446   45.5553   29.7762 C   0  0  0  0  0  0
   63.2757   46.3539   35.3078 C   0  0  0  0  0  0
   64.7912   46.3564   35.1025 C   0  0  0  0  0  0
   55.3989   45.2767   31.1707 O   0  0  0  0  0  0
   59.0644   46.4348   28.3051 C   0  0  0  0  0  0
   59.6246   45.7595   30.5389 C   0  0  0  0  0  0
   58.3015   45.4043   30.7795 C   0  0  0  0  0  0
   57.7391   46.0769   28.5390 C   0  0  0  0  0  0
   55.2059   44.8756   28.9383 O   0  0  0  0  0  0
   64.6977   45.4232   28.9181 C   0  0  0  0  0  0
   62.5922   48.5126   34.2294 C   0  0  0  0  0  0
   61.0359   46.4560   34.2454 C   0  0  0  0  0  0
   65.0203   44.0078   34.1494 C   0  0  0  0  0  0
   66.7338   45.8463   33.6631 C   0  0  0  0  0  0
   61.4974   47.4312   31.6514 H   0  0  0  0  0  0
   65.7762   45.0727   31.2712 H   0  0  0  0  0  0
   63.0434   46.9028   36.2151 H   0  0  0  0  0  0
   62.9475   45.3319   35.5037 H   0  0  0  0  0  0
   65.1171   47.3852   34.9519 H   0  0  0  0  0  0
   65.2839   46.0073   36.0106 H   0  0  0  0  0  0
   59.3535   46.8274   27.3393 H   0  0  0  0  0  0
   60.3198   45.6770   31.3485 H   0  0  0  0  0  0
   58.0246   45.0355   31.7590 H   0  0  0  0  0  0
   57.0252   46.2136   27.7396 H   0  0  0  0  0  0
   55.7866   44.6661   28.2042 H   0  0  0  0  0  0
   65.7736   45.2768   28.9995 H   0  0  0  0  0  0
   64.2313   44.5132   28.5431 H   0  0  0  0  0  0
   64.5551   46.2217   28.1897 H   0  0  0  0  0  0
   62.2142   48.8623   35.1902 H   0  0  0  0  0  0
   63.6169   48.8739   34.1392 H   0  0  0  0  0  0
   62.0089   49.0139   33.4562 H   0  0  0  0  0  0
   60.6153   46.7100   35.2188 H   0  0  0  0  0  0
   60.3619   46.8773   33.4990 H   0  0  0  0  0  0
   60.9763   45.3728   34.1388 H   0  0  0  0  0  0
   65.6414   43.6757   34.9751 H   0  0  0  0  0  0
   63.9861   43.7493   34.3752 H   0  0  0  0  0  0
   65.3116   43.4056   33.2875 H   0  0  0  0  0  0
   67.3040   45.7113   34.5833 H   0  0  0  0  0  0
   67.2056   45.1857   32.9403 H   0  0  0  0  0  0
   66.8838   46.8742   33.3288 H   0  0  0  0  0  0
  1  2  1  0  0  0
  1 10  1  0  0  0
  1 12  2  0  0  0
  1 13  2  0  0  0
  2  5  2  0  0  0
  2  7  1  0  0  0
  3  5  1  0  0  0
  3  8  1  0  0  0
  3  4  2  0  0  0
  4  6  1  0  0  0
  4  9  1  0  0  0
  5 28  1  0  0  0
  6  7  2  0  0  0
  6 29  1  0  0  0
  7 23  1  0  0  0
  8 15  1  0  0  0
  8 24  1  0  0  0
  8 25  1  0  0  0
  9 16  1  0  0  0
  9 26  1  0  0  0
  9 27  1  0  0  0
 10 18  1  0  0  0
 10 19  2  0  0  0
 11 14  1  0  0  0
 11 17  2  0  0  0
 11 22  1  0  0  0
 14 20  2  0  0  0
 14 21  1  0  0  0
 15 16  1  0  0  0
 15 30  1  0  0  0
 15 31  1  0  0  0
 16 32  1  0  0  0
 16 33  1  0  0  0
 18 21  2  0  0  0
 18 34  1  0  0  0
 19 20  1  0  0  0
 19 35  1  0  0  0
 20 36  1  0  0  0
 21 37  1  0  0  0
 22 38  1  0  0  0
 23 39  1  0  0  0
 23 40  1  0  0  0
 23 41  1  0  0  0
 24 42  1  0  0  0
 24 43  1  0  0  0
 24 44  1  0  0  0
 25 45  1  0  0  0
 25 46  1  0  0  0
 25 47  1  0  0  0
 26 48  1  0  0  0
 26 49  1  0  0  0
 26 50  1  0  0  0
 27 51  1  0  0  0
 27 52  1  0  0  0
 27 53  1  0  0  0
M  END
> <s_m_entry_id>
31017

> <s_m_entry_name>
dock_pv.230

> <s_m_Source_Path>
/home/csk/Desktop/cluster/DUD-E-result/rxra

> <s_m_Source_File>
dock_pv.maegz

> <i_m_Source_File_Index>
230

> <chembl_id>
CHEMBL118307

> <chembl_pref_name>
None

> <i_lp_mmshare_version>
53161

> <r_lp_tautomer_probability>
1

> <s_lp_Force_Field>
OPLS_2005

> <r_lp_Energy>
27.251535

> <b_lp_Chiralities_Consistent>
1

> <s_lp_Variant>
CHEMBL2061_lig330-1

> <s_i_glide_gridfile>
glide-grid_1mv9

> <i_i_glide_lignum>
390

> <i_i_glide_rotatable_bonds>
4

> <r_i_docking_score>
-10.3062909598268

> <r_i_glide_ligand_efficiency>
-0.381714479993584

> <r_i_glide_ligand_efficiency_sa>
-1.14514343872268

> <r_i_glide_ligand_efficiency_ln>
-2.39913462296181

> <r_i_glide_gscore>
-10.3062909598268

> <r_i_glide_lipo>
-5.59112206704335

> <r_i_glide_hbond>
0

> <r_i_glide_metal>
0

> <r_i_glide_rewards>
-2.47612823273722

> <r_i_glide_evdw>
-47.2717628479004

> <r_i_glide_ecoul>
-1.77555358409882

> <r_i_glide_erotb>
0.390880519963663

> <r_i_glide_esite>
0

> <r_i_glide_emodel>
-74.3191388558684

> <r_i_glide_energy>
-49.0473164319992

> <r_i_glide_einternal>
7.17319488525391

> <i_i_glide_confnum>
24

> <i_i_glide_posenum>
190

> <r_i_glide_eff_state_penalty>
0

> <s_user_duplicate_titles>
CHEMBL2061_lig330

> <i_f3d_flags>
0

> <s_m_subgroup_title>
dock_pv

> <s_m_subgroupid>
dock_pv

> <b_m_subgroup_collapsed>
1

$$$$
CHEMBL2061_lig309
                    3D
 Schrodinger Suite 2021-1.
 60 62  0  0  1  0            999 V2000
   62.7249   46.5971   31.2020 C   0  0  0  0  0  0
   59.8975   46.0773   30.3024 O   0  0  0  0  0  0
   58.7329   46.0627   29.5824 C   0  0  0  0  0  0
   60.8751   46.5642   29.4793 C   0  0  0  0  0  0
   63.7663   45.7008   31.5051 C   0  0  0  0  0  0
   62.2208   46.7758   29.8156 C   0  0  0  0  0  0
   64.1995   45.5490   32.8323 C   0  0  0  0  0  0
   58.9869   46.4723   28.2810 C   0  0  0  0  0  0
   62.1496   47.3438   32.2356 C   0  0  0  0  0  0
   57.4841   45.6770   30.2409 C   0  0  0  0  0  0
   60.3559   46.8305   28.1990 C   0  0  0  0  0  0
   63.6126   46.3150   33.8343 C   0  0  0  0  0  0
   62.6104   47.2310   33.5485 C   0  0  0  0  0  0
   56.2993   45.7543   29.5793 C   0  0  0  0  0  0
   54.9824   45.4550   30.0810 C   0  0  0  0  0  0
   53.9833   46.0769   29.7390 O   0  0  0  0  0  0
   65.3193   44.5791   33.1960 C   0  0  0  0  0  0
   62.0502   48.1149   34.6539 C   0  0  0  0  0  0
   64.3107   44.9177   30.5133 O   0  0  0  0  0  0
   54.9409   44.4041   30.9390 O   0  0  0  0  0  0
   63.0551   47.1705   28.7636 C   0  0  0  0  0  0
   61.2006   47.3395   27.2092 C   0  0  0  0  0  0
   57.6729   45.2768   31.7045 C   0  0  0  0  0  0
   62.5593   47.4714   27.4967 C   0  0  0  0  0  0
   65.2616   44.0500   34.6386 C   0  0  0  0  0  0
   66.6680   45.2480   32.9372 C   0  0  0  0  0  0
   63.4940   43.7901   30.2413 C   0  0  0  0  0  0
   63.0897   48.4798   35.7409 C   0  0  0  0  0  0
   60.8090   47.4921   35.2990 C   0  0  0  0  0  0
   63.8042   43.1121   28.9390 C   0  0  0  0  0  0
   58.2647   46.5063   27.4888 H   0  0  0  0  0  0
   61.3631   48.0479   32.0065 H   0  0  0  0  0  0
   63.9543   46.2188   34.8499 H   0  0  0  0  0  0
   56.2743   46.0993   28.5579 H   0  0  0  0  0  0
   65.2147   43.7020   32.5583 H   0  0  0  0  0  0
   61.7628   49.0431   34.1583 H   0  0  0  0  0  0
   55.8158   44.0239   31.0366 H   0  0  0  0  0  0
   64.1135   47.2764   28.9384 H   0  0  0  0  0  0
   60.8151   47.5880   26.2307 H   0  0  0  0  0  0
   58.0998   44.2756   31.7601 H   0  0  0  0  0  0
   58.3407   45.9648   32.2273 H   0  0  0  0  0  0
   56.7491   45.2833   32.2727 H   0  0  0  0  0  0
   63.2399   47.8104   26.7273 H   0  0  0  0  0  0
   64.2892   43.6175   34.8777 H   0  0  0  0  0  0
   66.0079   43.2770   34.7748 H   0  0  0  0  0  0
   65.4896   44.8238   35.3707 H   0  0  0  0  0  0
   66.8079   45.3843   31.8645 H   0  0  0  0  0  0
   66.7346   46.2275   33.4143 H   0  0  0  0  0  0
   67.4797   44.6456   33.3390 H   0  0  0  0  0  0
   63.6079   43.0669   31.0522 H   0  0  0  0  0  0
   62.4522   44.0952   30.1390 H   0  0  0  0  0  0
   64.0060   48.8771   35.3023 H   0  0  0  0  0  0
   62.7016   49.2368   36.4213 H   0  0  0  0  0  0
   63.3589   47.6297   36.3675 H   0  0  0  0  0  0
   60.0323   47.2769   34.5647 H   0  0  0  0  0  0
   61.0510   46.5578   35.8083 H   0  0  0  0  0  0
   60.4080   48.1811   36.0418 H   0  0  0  0  0  0
   62.9813   42.4769   28.6080 H   0  0  0  0  0  0
   63.9898   43.8692   28.1818 H   0  0  0  0  0  0
   64.6700   42.4769   29.0872 H   0  0  0  0  0  0
  1  5  1  0  0  0
  1  6  1  0  0  0
  1  9  2  0  0  0
  2  4  1  0  0  0
  2  3  1  0  0  0
  3 10  1  0  0  0
  3  8  2  0  0  0
  4  6  1  0  0  0
  4 11  2  0  0  0
  5  7  2  0  0  0
  5 19  1  0  0  0
  6 21  2  0  0  0
  7 17  1  0  0  0
  7 12  1  0  0  0
  8 11  1  0  0  0
  8 31  1  0  0  0
  9 13  1  0  0  0
  9 32  1  0  0  0
 10 14  2  0  0  0
 10 23  1  0  0  0
 11 22  1  0  0  0
 12 13  2  0  0  0
 12 33  1  0  0  0
 13 18  1  0  0  0
 14 15  1  0  0  0
 14 34  1  0  0  0
 15 16  2  0  0  0
 15 20  1  0  0  0
 17 25  1  0  0  0
 17 26  1  0  0  0
 17 35  1  0  0  0
 18 28  1  0  0  0
 18 29  1  0  0  0
 18 36  1  0  0  0
 19 27  1  0  0  0
 20 37  1  0  0  0
 21 24  1  0  0  0
 21 38  1  0  0  0
 22 24  2  0  0  0
 22 39  1  0  0  0
 23 40  1  0  0  0
 23 41  1  0  0  0
 23 42  1  0  0  0
 24 43  1  0  0  0
 25 44  1  0  0  0
 25 45  1  0  0  0
 25 46  1  0  0  0
 26 47  1  0  0  0
 26 48  1  0  0  0
 26 49  1  0  0  0
 27 30  1  0  0  0
 27 50  1  0  0  0
 27 51  1  0  0  0
 28 52  1  0  0  0
 28 53  1  0  0  0
 28 54  1  0  0  0
 29 55  1  0  0  0
 29 56  1  0  0  0
 29 57  1  0  0  0
 30 58  1  0  0  0
 30 59  1  0  0  0
 30 60  1  0  0  0
M  END
> <s_m_entry_id>
31018

> <s_m_entry_name>
dock_pv.231

> <s_m_Source_Path>
/home/csk/Desktop/cluster/DUD-E-result/rxra

> <s_m_Source_File>
dock_pv.maegz

> <i_m_Source_File_Index>
231

> <chembl_id>
CHEMBL289057

> <chembl_pref_name>
None

> <i_lp_mmshare_version>
53161

> <r_lp_tautomer_probability>
1

> <s_lp_Force_Field>
OPLS_2005

> <r_lp_Energy>
27.620135

> <b_lp_Chiralities_Consistent>
1

> <s_lp_Variant>
CHEMBL2061_lig309-1

> <s_i_glide_gridfile>
glide-grid_1mv9

> <i_i_glide_lignum>
357

> <i_i_glide_rotatable_bonds>
8

> <r_i_docking_score>
-10.2935650321269

> <r_i_glide_ligand_efficiency>
-0.343118834404229

> <r_i_glide_ligand_efficiency_sa>
-1.06614999445709

> <r_i_glide_ligand_efficiency_ln>
-2.33881013267335

> <r_i_glide_gscore>
-10.2935650321269

> <r_i_glide_lipo>
-6.46668604913049

> <r_i_glide_hbond>
-0.150201431018854

> <r_i_glide_metal>
0

> <r_i_glide_rewards>
-1.68113563423721

> <r_i_glide_evdw>
-40.7641181945801

> <r_i_glide_ecoul>
-2.88855719566345

> <r_i_glide_erotb>
0.475947571338199

> <r_i_glide_esite>
0

> <r_i_glide_emodel>
-52.6333179431846

> <r_i_glide_energy>
-43.6526753902435

> <r_i_glide_einternal>
3.40203404426575

> <i_i_glide_confnum>
2

> <i_i_glide_posenum>
42

> <r_i_glide_eff_state_penalty>
0

> <s_user_duplicate_titles>
CHEMBL2061_lig309,60606

> <i_f3d_flags>
0

> <s_m_subgroup_title>
dock_pv

> <s_m_subgroupid>
dock_pv

> <b_m_subgroup_collapsed>
1

$$$$
CHEMBL2061_lig312
                    3D
 Schrodinger Suite 2021-1.
 60 62  0  0  1  0            999 V2000
   59.5536   45.6770   30.5389 S   0  0  0  0  0  0
   62.6097   46.5963   31.1905 C   0  0  0  0  0  0
   58.3142   45.8860   29.3487 C   0  0  0  0  0  0
   60.7330   46.4989   29.5236 C   0  0  0  0  0  0
   63.6055   45.6440   31.4654 C   0  0  0  0  0  0
   62.0730   46.7889   29.8245 C   0  0  0  0  0  0
   64.0361   45.4795   32.7939 C   0  0  0  0  0  0
   58.8085   46.4645   28.2058 C   0  0  0  0  0  0
   62.0911   47.3764   32.2311 C   0  0  0  0  0  0
   56.9409   45.4827   29.6011 C   0  0  0  0  0  0
   60.1765   46.8108   28.2606 C   0  0  0  0  0  0
   63.4939   46.2532   33.8123 C   0  0  0  0  0  0
   62.5465   47.2272   33.5414 C   0  0  0  0  0  0
   55.9145   46.3016   29.2697 C   0  0  0  0  0  0
   54.5092   46.0770   29.4875 C   0  0  0  0  0  0
   54.0080   45.1662   30.1405 O   0  0  0  0  0  0
   65.1505   44.5418   33.1869 C   0  0  0  0  0  0
   62.0357   48.1251   34.6584 C   0  0  0  0  0  0
   64.1189   44.8591   30.4459 O   0  0  0  0  0  0
   53.7709   47.0821   28.9366 O   0  0  0  0  0  0
   62.8823   47.2180   28.7751 C   0  0  0  0  0  0
   60.9965   47.3903   27.2828 C   0  0  0  0  0  0
   56.8464   44.0993   30.2397 C   0  0  0  0  0  0
   62.3564   47.5431   27.5328 C   0  0  0  0  0  0
   66.4268   44.9667   32.4872 C   0  0  0  0  0  0
   64.8073   43.0533   33.0571 C   0  0  0  0  0  0
   63.2080   43.8620   29.9876 C   0  0  0  0  0  0
   63.1095   48.4773   35.7145 C   0  0  0  0  0  0
   60.8082   47.5188   35.3389 C   0  0  0  0  0  0
   63.2081   43.5593   28.5079 C   0  0  0  0  0  0
   58.2129   46.6088   27.3390 H   0  0  0  0  0  0
   61.3394   48.1198   32.0100 H   0  0  0  0  0  0
   63.8435   46.1137   34.8230 H   0  0  0  0  0  0
   56.1467   47.2495   28.8120 H   0  0  0  0  0  0
   65.3562   44.6823   34.2509 H   0  0  0  0  0  0
   61.7443   49.0557   34.1692 H   0  0  0  0  0  0
   54.3288   47.7260   28.4935 H   0  0  0  0  0  0
   63.9474   47.2770   28.9363 H   0  0  0  0  0  0
   60.5968   47.6607   26.3181 H   0  0  0  0  0  0
   57.5167   43.3992   29.7392 H   0  0  0  0  0  0
   57.1380   44.1474   31.2895 H   0  0  0  0  0  0
   55.8515   43.6771   30.1852 H   0  0  0  0  0  0
   63.0099   47.9116   26.7545 H   0  0  0  0  0  0
   66.6530   46.0214   32.6510 H   0  0  0  0  0  0
   67.2083   44.3932   32.9399 H   0  0  0  0  0  0
   66.4250   44.7806   31.4135 H   0  0  0  0  0  0
   63.8378   42.8183   33.4985 H   0  0  0  0  0  0
   64.8078   42.7074   32.0281 H   0  0  0  0  0  0
   65.5604   42.4769   33.5872 H   0  0  0  0  0  0
   63.3365   42.9323   30.5347 H   0  0  0  0  0  0
   62.1923   44.2076   30.1377 H   0  0  0  0  0  0
   64.0070   48.8796   35.2461 H   0  0  0  0  0  0
   62.7426   49.2245   36.4151 H   0  0  0  0  0  0
   63.4028   47.6194   36.3196 H   0  0  0  0  0  0
   60.0251   47.2767   34.6188 H   0  0  0  0  0  0
   61.0594   46.5996   35.8702 H   0  0  0  0  0  0
   60.4080   48.2258   36.0646 H   0  0  0  0  0  0
   62.2876   43.0461   28.2276 H   0  0  0  0  0  0
   63.2458   44.4769   27.9223 H   0  0  0  0  0  0
   64.0080   42.8798   28.2371 H   0  0  0  0  0  0
  1  3  1  0  0  0
  1  4  1  0  0  0
  2  6  1  0  0  0
  2  5  1  0  0  0
  2  9  2  0  0  0
  3  8  2  0  0  0
  3 10  1  0  0  0
  4  6  1  0  0  0
  4 11  2  0  0  0
  5  7  2  0  0  0
  5 19  1  0  0  0
  6 21  2  0  0  0
  7 17  1  0  0  0
  7 12  1  0  0  0
  8 11  1  0  0  0
  8 31  1  0  0  0
  9 13  1  0  0  0
  9 32  1  0  0  0
 10 14  2  0  0  0
 10 23  1  0  0  0
 11 22  1  0  0  0
 12 13  2  0  0  0
 12 33  1  0  0  0
 13 18  1  0  0  0
 14 15  1  0  0  0
 14 34  1  0  0  0
 15 16  2  0  0  0
 15 20  1  0  0  0
 17 25  1  0  0  0
 17 26  1  0  0  0
 17 35  1  0  0  0
 18 28  1  0  0  0
 18 29  1  0  0  0
 18 36  1  0  0  0
 19 27  1  0  0  0
 20 37  1  0  0  0
 21 24  1  0  0  0
 21 38  1  0  0  0
 22 24  2  0  0  0
 22 39  1  0  0  0
 23 40  1  0  0  0
 23 41  1  0  0  0
 23 42  1  0  0  0
 24 43  1  0  0  0
 25 44  1  0  0  0
 25 45  1  0  0  0
 25 46  1  0  0  0
 26 47  1  0  0  0
 26 48  1  0  0  0
 26 49  1  0  0  0
 27 30  1  0  0  0
 27 50  1  0  0  0
 27 51  1  0  0  0
 28 52  1  0  0  0
 28 53  1  0  0  0
 28 54  1  0  0  0
 29 55  1  0  0  0
 29 56  1  0  0  0
 29 57  1  0  0  0
 30 58  1  0  0  0
 30 59  1  0  0  0
 30 60  1  0  0  0
M  END
> <s_m_entry_id>
31019

> <s_m_entry_name>
dock_pv.232

> <s_m_Source_Path>
/home/csk/Desktop/cluster/DUD-E-result/rxra

> <s_m_Source_File>
dock_pv.maegz

> <i_m_Source_File_Index>
232

> <chembl_id>
CHEMBL417520

> <chembl_pref_name>
None

> <i_lp_mmshare_version>
53161

> <r_lp_tautomer_probability>
1

> <s_lp_Force_Field>
OPLS_2005

> <r_lp_Energy>
30.548514

> <b_lp_Chiralities_Consistent>
1

> <s_lp_Variant>
CHEMBL2061_lig312-1

> <s_i_glide_gridfile>
glide-grid_1mv9

> <i_i_glide_lignum>
360

> <i_i_glide_rotatable_bonds>
8

> <r_i_docking_score>
-10.2854120871176

> <r_i_glide_ligand_efficiency>
-0.342847069570587

> <r_i_glide_ligand_efficiency_sa>
-1.06530555793298

> <r_i_glide_ligand_efficiency_ln>
-2.33695769473379

> <r_i_glide_gscore>
-10.2854120871176

> <r_i_glide_lipo>
-6.60974511295136

> <r_i_glide_hbond>
-0.148561189490398

> <r_i_glide_metal>
0

> <r_i_glide_rewards>
-1.42785954545454

> <r_i_glide_evdw>
-38.9218711853027

> <r_i_glide_ecoul>
-3.79010438919067

> <r_i_glide_erotb>
0.443775413267677

> <r_i_glide_esite>
-0.0284124348452367

> <r_i_glide_emodel>
-46.892221836568

> <r_i_glide_energy>
-42.7119755744934

> <r_i_glide_einternal>
4.2975926399231

> <i_i_glide_confnum>
45

> <i_i_glide_posenum>
219

> <r_i_glide_eff_state_penalty>
0

> <s_user_duplicate_titles>
CHEMBL2061_lig312,60761

> <i_f3d_flags>
0

> <s_m_subgroup_title>
dock_pv

> <s_m_subgroupid>
dock_pv

> <b_m_subgroup_collapsed>
1

$$$$
CHEMBL2061_lig285
                    3D
 Schrodinger Suite 2021-1.
 54 56  0  0  1  0            999 V2000
   63.0990   46.4951   33.0694 C   0  0  0  0  0  0
   64.1927   45.6620   32.7109 C   0  0  0  0  0  0
   62.2218   46.2833   30.7908 C   0  0  0  0  0  0
   61.0108   46.3676   29.9591 C   0  0  0  0  0  0
   62.1953   46.8535   32.0639 C   0  0  0  0  0  0
   64.2484   45.1547   31.4031 C   0  0  0  0  0  0
   63.2636   45.4168   30.4653 C   0  0  0  0  0  0
   59.8790   45.9141   30.5435 C   0  0  0  0  0  0
   65.2692   45.2296   33.7233 C   0  0  0  0  0  0
   62.8577   47.0110   34.5118 C   0  0  0  0  0  0
   54.4081   46.3240   29.3337 C   0  0  0  0  0  0
   55.8094   45.8847   29.5364 C   0  0  0  0  0  0
   63.7678   46.2661   35.5209 C   0  0  0  0  0  0
   65.1895   46.1046   34.9903 C   0  0  0  0  0  0
   53.4649   45.6772   29.7395 O   0  0  0  0  0  0
   58.5052   45.7165   30.0793 C   0  0  0  0  0  0
   56.2165   45.3547   30.7597 C   0  0  0  0  0  0
   56.7297   46.0767   28.5167 C   0  0  0  0  0  0
   63.3068   44.4545   28.8198 Br  0  0  0  0  0  0
   54.2747   47.5169   28.6884 O   0  0  0  0  0  0
   57.5756   45.2756   31.0282 C   0  0  0  0  0  0
   58.0836   46.0246   28.7894 C   0  0  0  0  0  0
   61.1444   46.9445   28.5575 C   0  0  0  0  0  0
   63.1971   48.5129   34.5460 C   0  0  0  0  0  0
   65.0295   43.7462   34.0970 C   0  0  0  0  0  0
   66.6734   45.4695   33.1331 C   0  0  0  0  0  0
   61.3993   46.7313   34.9648 C   0  0  0  0  0  0
   61.3693   47.5018   32.3142 H   0  0  0  0  0  0
   65.0279   44.4641   31.1216 H   0  0  0  0  0  0
   59.9841   45.6770   31.5885 H   0  0  0  0  0  0
   63.3653   45.2795   35.7553 H   0  0  0  0  0  0
   63.7924   46.7928   36.4765 H   0  0  0  0  0  0
   65.8258   45.6822   35.7538 H   0  0  0  0  0  0
   65.5930   47.0956   34.7873 H   0  0  0  0  0  0
   55.5093   45.1354   31.5471 H   0  0  0  0  0  0
   56.4055   46.3832   27.5322 H   0  0  0  0  0  0
   55.1337   47.9224   28.5495 H   0  0  0  0  0  0
   57.8917   44.9838   32.0194 H   0  0  0  0  0  0
   58.7684   46.2839   28.0011 H   0  0  0  0  0  0
   61.0289   46.1648   27.8045 H   0  0  0  0  0  0
   60.4125   47.7343   28.3868 H   0  0  0  0  0  0
   62.1305   47.3902   28.4148 H   0  0  0  0  0  0
   63.1543   48.8928   35.5665 H   0  0  0  0  0  0
   64.1874   48.7186   34.1435 H   0  0  0  0  0  0
   62.4920   49.0895   33.9465 H   0  0  0  0  0  0
   65.7240   43.4240   34.8706 H   0  0  0  0  0  0
   64.0181   43.5614   34.4593 H   0  0  0  0  0  0
   65.1851   43.0868   33.2428 H   0  0  0  0  0  0
   67.4569   45.1821   33.8366 H   0  0  0  0  0  0
   66.8133   44.8862   32.2266 H   0  0  0  0  0  0
   66.8287   46.5179   32.8718 H   0  0  0  0  0  0
   61.2412   47.0186   36.0060 H   0  0  0  0  0  0
   60.6636   47.2773   34.3799 H   0  0  0  0  0  0
   61.1426   45.6778   34.8750 H   0  0  0  0  0  0
  1  2  2  0  0  0
  1  5  1  0  0  0
  1 10  1  0  0  0
  2  6  1  0  0  0
  2  9  1  0  0  0
  3  5  2  0  0  0
  3  4  1  0  0  0
  3  7  1  0  0  0
  4  8  2  0  0  0
  4 23  1  0  0  0
  5 28  1  0  0  0
  6  7  2  0  0  0
  6 29  1  0  0  0
  7 19  1  0  0  0
  8 16  1  0  0  0
  8 30  1  0  0  0
  9 25  1  0  0  0
  9 26  1  0  0  0
  9 14  1  0  0  0
 10 13  1  0  0  0
 10 24  1  0  0  0
 10 27  1  0  0  0
 11 12  1  0  0  0
 11 15  2  0  0  0
 11 20  1  0  0  0
 12 18  1  0  0  0
 12 17  2  0  0  0
 13 14  1  0  0  0
 13 31  1  0  0  0
 13 32  1  0  0  0
 14 33  1  0  0  0
 14 34  1  0  0  0
 16 21  2  0  0  0
 16 22  1  0  0  0
 17 21  1  0  0  0
 17 35  1  0  0  0
 18 22  2  0  0  0
 18 36  1  0  0  0
 20 37  1  0  0  0
 21 38  1  0  0  0
 22 39  1  0  0  0
 23 40  1  0  0  0
 23 41  1  0  0  0
 23 42  1  0  0  0
 24 43  1  0  0  0
 24 44  1  0  0  0
 24 45  1  0  0  0
 25 46  1  0  0  0
 25 47  1  0  0  0
 25 48  1  0  0  0
 26 49  1  0  0  0
 26 50  1  0  0  0
 26 51  1  0  0  0
 27 52  1  0  0  0
 27 53  1  0  0  0
 27 54  1  0  0  0
M  END
> <s_m_entry_id>
31020

> <s_m_entry_name>
dock_pv.233

> <s_m_Source_Path>
/home/csk/Desktop/cluster/DUD-E-result/rxra

> <s_m_Source_File>
dock_pv.maegz

> <i_m_Source_File_Index>
233

> <chembl_id>
CHEMBL284167

> <chembl_pref_name>
None

> <i_lp_mmshare_version>
53161

> <r_lp_tautomer_probability>
1

> <s_lp_Force_Field>
OPLS_2005

> <r_lp_Energy>
34.560112

> <b_lp_Chiralities_Consistent>
1

> <s_lp_Variant>
CHEMBL2061_lig285-1

> <s_i_glide_gridfile>
glide-grid_1mv9

> <i_i_glide_lignum>
330

> <i_i_glide_rotatable_bonds>
4

> <r_i_docking_score>
-10.2831368449365

> <r_i_glide_ligand_efficiency>
-0.380856920182833

> <r_i_glide_ligand_efficiency_sa>
-1.14257075929326

> <r_i_glide_ligand_efficiency_ln>
-2.39374472674078

> <r_i_glide_gscore>
-10.2831368449365

> <r_i_glide_lipo>
-6.61603802351977

> <r_i_glide_hbond>
-0.144375534755508

> <r_i_glide_metal>
0

> <r_i_glide_rewards>
-1.32983932514724

> <r_i_glide_evdw>
-42.3108863830566

> <r_i_glide_ecoul>
-2.43964910507202

> <r_i_glide_erotb>
0.326107332036208

> <r_i_glide_esite>
-0.0374996086365479

> <r_i_glide_emodel>
-53.3009173184216

> <r_i_glide_energy>
-44.7505354881287

> <r_i_glide_einternal>
8.1795129776001

> <i_i_glide_confnum>
17

> <i_i_glide_posenum>
49

> <r_i_glide_eff_state_penalty>
0

> <s_user_duplicate_titles>
CHEMBL2061_lig285,48751

> <i_f3d_flags>
0

> <s_m_subgroup_title>
dock_pv

> <s_m_subgroupid>
dock_pv

> <b_m_subgroup_collapsed>
1

$$$$
CHEMBL2061_lig270
                    3D
 Schrodinger Suite 2021-1.
 51 53  0  0  1  0            999 V2000
   62.8079   46.4770   32.6308 C   0  0  0  0  0  0
   63.9527   45.6818   32.3540 C   0  0  0  0  0  0
   61.9705   46.8250   31.5581 C   0  0  0  0  0  0
   62.0935   46.2539   30.2908 C   0  0  0  0  0  0
   62.4201   46.9312   34.0616 C   0  0  0  0  0  0
   64.9839   45.3072   33.4439 C   0  0  0  0  0  0
   55.4669   45.0378   30.2640 C   0  0  0  0  0  0
   64.1158   45.1872   31.0474 C   0  0  0  0  0  0
   61.0398   46.4983   29.2007 C   0  0  1  0  0  0
   56.9089   45.3352   29.9805 C   0  0  0  0  0  0
   59.5858   46.0773   29.5071 C   0  0  0  0  0  0
   63.1950   45.4421   30.0381 C   0  0  0  0  0  0
   63.3286   46.2787   35.1399 C   0  0  0  0  0  0
   64.7913   46.1848   34.7086 C   0  0  0  0  0  0
   54.9270   45.2770   31.3390 O   0  0  0  0  0  0
   57.8442   45.2899   31.0130 C   0  0  0  0  0  0
   57.3176   45.7495   28.7088 C   0  0  0  0  0  0
   59.1568   45.6770   30.7763 C   0  0  0  0  0  0
   58.6448   46.1026   28.4761 C   0  0  0  0  0  0
   54.8080   44.4770   29.2260 O   0  0  0  0  0  0
   61.1080   47.8266   28.7267 O   0  0  0  0  0  0
   62.5706   48.4619   34.1749 C   0  0  0  0  0  0
   60.9773   46.4524   34.3702 C   0  0  0  0  0  0
   64.7989   43.8154   33.8140 C   0  0  0  0  0  0
   66.4080   45.6139   32.9391 C   0  0  0  0  0  0
   61.1341   47.4825   31.7390 H   0  0  0  0  0  0
   64.9555   44.5514   30.8109 H   0  0  0  0  0  0
   61.3223   45.8836   28.3434 H   0  0  0  0  0  0
   63.3427   44.9973   29.0644 H   0  0  0  0  0  0
   62.9815   45.2770   35.3861 H   0  0  0  0  0  0
   63.2590   46.8271   36.0811 H   0  0  0  0  0  0
   65.3922   45.7981   35.5338 H   0  0  0  0  0  0
   65.1663   47.1945   34.5331 H   0  0  0  0  0  0
   57.5629   45.0066   32.0170 H   0  0  0  0  0  0
   56.6161   45.8282   27.8899 H   0  0  0  0  0  0
   59.8169   45.6770   31.6226 H   0  0  0  0  0  0
   58.9421   46.4228   27.4879 H   0  0  0  0  0  0
   55.4050   44.1905   28.5298 H   0  0  0  0  0  0
   61.9996   47.9855   28.4089 H   0  0  0  0  0  0
   62.2010   48.8050   35.1402 H   0  0  0  0  0  0
   63.6080   48.7860   34.1088 H   0  0  0  0  0  0
   62.0080   48.9931   33.4069 H   0  0  0  0  0  0
   60.6885   46.7097   35.3883 H   0  0  0  0  0  0
   60.2281   46.8771   33.7082 H   0  0  0  0  0  0
   60.8730   45.3733   34.2613 H   0  0  0  0  0  0
   65.4721   43.5239   34.6201 H   0  0  0  0  0  0
   63.7822   43.5855   34.1329 H   0  0  0  0  0  0
   65.0187   43.1641   32.9675 H   0  0  0  0  0  0
   67.1498   45.4686   33.7266 H   0  0  0  0  0  0
   66.7042   44.9627   32.1171 H   0  0  0  0  0  0
   66.5017   46.6436   32.5900 H   0  0  0  0  0  0
  1  2  2  0  0  0
  1  3  1  0  0  0
  1  5  1  0  0  0
  2  6  1  0  0  0
  2  8  1  0  0  0
  3  4  2  0  0  0
  3 26  1  0  0  0
  4  9  1  0  0  0
  4 12  1  0  0  0
  5 13  1  0  0  0
  5 22  1  0  0  0
  5 23  1  0  0  0
  6 24  1  0  0  0
  6 25  1  0  0  0
  6 14  1  0  0  0
  7 10  1  0  0  0
  7 15  2  0  0  0
  7 20  1  0  0  0
  8 12  2  0  0  0
  8 27  1  0  0  0
  9 11  1  0  0  0
  9 21  1  0  0  0
  9 28  1  0  0  0
 10 17  1  0  0  0
 10 16  2  0  0  0
 11 18  2  0  0  0
 11 19  1  0  0  0
 12 29  1  0  0  0
 13 14  1  0  0  0
 13 30  1  0  0  0
 13 31  1  0  0  0
 14 32  1  0  0  0
 14 33  1  0  0  0
 16 18  1  0  0  0
 16 34  1  0  0  0
 17 19  2  0  0  0
 17 35  1  0  0  0
 18 36  1  0  0  0
 19 37  1  0  0  0
 20 38  1  0  0  0
 21 39  1  0  0  0
 22 40  1  0  0  0
 22 41  1  0  0  0
 22 42  1  0  0  0
 23 43  1  0  0  0
 23 44  1  0  0  0
 23 45  1  0  0  0
 24 46  1  0  0  0
 24 47  1  0  0  0
 24 48  1  0  0  0
 25 49  1  0  0  0
 25 50  1  0  0  0
 25 51  1  0  0  0
M  END
> <s_m_entry_id>
31021

> <s_m_entry_name>
dock_pv.234

> <s_m_Source_Path>
/home/csk/Desktop/cluster/DUD-E-result/rxra

> <s_m_Source_File>
dock_pv.maegz

> <i_m_Source_File_Index>
234

> <chembl_id>
CHEMBL115558

> <chembl_pref_name>
None

> <i_lp_mmshare_version>
53161

> <r_lp_tautomer_probability>
1

> <s_lp_Force_Field>
OPLS_2005

> <r_lp_Energy>
23.90141

> <b_lp_Chiralities_Consistent>
1

> <s_lp_Variant>
CHEMBL2061_lig270-2

> <s_i_glide_gridfile>
glide-grid_1mv9

> <i_i_glide_lignum>
314

> <i_i_glide_rotatable_bonds>
5

> <r_i_docking_score>
-10.2821437530858

> <r_i_glide_ligand_efficiency>
-0.411285750123432

> <r_i_glide_ligand_efficiency_sa>
-1.20260682754475

> <r_i_glide_ligand_efficiency_ln>
-2.43717620046497

> <r_i_glide_gscore>
-10.2821437530858

> <r_i_glide_lipo>
-5.71343212657584

> <r_i_glide_hbond>
0

> <r_i_glide_metal>
0

> <r_i_glide_rewards>
-2.31864777530816

> <r_i_glide_evdw>
-45.9142837524414

> <r_i_glide_ecoul>
-2.99787020683289

> <r_i_glide_erotb>
0.495330867445198

> <r_i_glide_esite>
0

> <r_i_glide_emodel>
-74.4273615987591

> <r_i_glide_energy>
-48.9121539592743

> <r_i_glide_einternal>
6.74022579193115

> <i_i_glide_confnum>
10

> <i_i_glide_posenum>
83

> <r_i_glide_eff_state_penalty>
0

> <s_user_duplicate_titles>
CHEMBL2061_lig270

> <i_f3d_flags>
0

> <s_m_subgroup_title>
dock_pv

> <s_m_subgroupid>
dock_pv

> <b_m_subgroup_collapsed>
1

$$$$
CHEMBL2061_lig413
                    3D
 Schrodinger Suite 2021-1.
 62 63  0  0  1  0            999 V2000
   64.8266   45.7190   31.3124 C   0  0  0  0  0  0
   64.1143   45.8829   30.1318 C   0  0  0  0  0  0
   62.7638   46.2739   30.1759 C   0  0  0  0  0  0
   62.2340   46.6076   31.4296 C   0  0  0  0  0  0
   64.2828   45.9844   32.5727 C   0  0  0  0  0  0
   62.9517   46.4783   32.6361 C   0  0  0  0  0  0
   62.3052   46.9326   33.9720 C   0  0  0  0  0  0
   63.0596   46.3385   35.1944 C   0  0  0  0  0  0
   64.5810   46.4285   35.0622 C   0  0  0  0  0  0
   65.1267   45.6625   33.8309 C   0  0  0  0  0  0
   61.9355   46.3247   29.0192 N   0  0  0  0  0  0
   60.9504   47.3984   28.8291 C   0  0  0  0  0  0
   59.4868   47.0935   29.1430 C   0  0  0  0  0  0
   59.0320   45.9396   29.6708 C   0  0  0  0  0  0
   57.6692   45.6281   30.0628 C   0  0  0  0  0  0
   56.6052   45.9658   29.2836 C   0  0  0  0  0  0
   57.5406   44.9844   31.4301 C   0  0  0  0  0  0
   55.2102   45.7045   29.5749 C   0  0  0  0  0  0
   54.9951   44.4769   30.1194 O   0  0  0  0  0  0
   54.2997   46.4924   29.3348 O   0  0  0  0  0  0
   61.8984   45.2284   28.0417 C   0  0  0  0  0  0
   62.0422   43.7990   28.6271 C   0  0  0  0  0  0
   62.3978   48.4768   34.0301 C   0  0  0  0  0  0
   60.8408   46.4342   34.0855 C   0  0  0  0  0  0
   65.0372   44.1350   34.0700 C   0  0  0  0  0  0
   66.5964   46.1269   33.6622 C   0  0  0  0  0  0
   64.8854   45.6769   28.8405 C   0  0  0  0  0  0
   65.8438   45.3632   31.2395 H   0  0  0  0  0  0
   61.2182   46.9652   31.4661 H   0  0  0  0  0  0
   62.7486   46.8392   36.1141 H   0  0  0  0  0  0
   62.8007   45.2914   35.3443 H   0  0  0  0  0  0
   64.8633   47.4787   34.9968 H   0  0  0  0  0  0
   65.0517   46.0595   35.9756 H   0  0  0  0  0  0
   61.0181   47.7436   27.7964 H   0  0  0  0  0  0
   61.2370   48.2541   29.4398 H   0  0  0  0  0  0
   58.7928   47.8965   28.9386 H   0  0  0  0  0  0
   59.7548   45.1608   29.8593 H   0  0  0  0  0  0
   56.7553   46.4773   28.3457 H   0  0  0  0  0  0
   58.3382   45.3273   32.0937 H   0  0  0  0  0  0
   56.6200   45.2777   31.9353 H   0  0  0  0  0  0
   57.6119   43.9006   31.3401 H   0  0  0  0  0  0
   55.8249   43.9989   30.1724 H   0  0  0  0  0  0
   60.9340   45.2773   27.5367 H   0  0  0  0  0  0
   62.6188   45.4153   27.2473 H   0  0  0  0  0  0
   62.0078   43.0566   27.8293 H   0  0  0  0  0  0
   62.9792   43.6342   29.1546 H   0  0  0  0  0  0
   61.2466   43.5690   29.3381 H   0  0  0  0  0  0
   61.8220   48.8745   34.8654 H   0  0  0  0  0  0
   63.4181   48.8424   34.1396 H   0  0  0  0  0  0
   62.0080   48.9388   33.1223 H   0  0  0  0  0  0
   60.4088   46.6961   35.0495 H   0  0  0  0  0  0
   60.1882   46.8769   33.3371 H   0  0  0  0  0  0
   60.7683   45.3514   33.9843 H   0  0  0  0  0  0
   65.6155   43.8321   34.9395 H   0  0  0  0  0  0
   64.0133   43.7898   34.2158 H   0  0  0  0  0  0
   65.4399   43.5794   33.2219 H   0  0  0  0  0  0
   67.1502   46.0339   34.5955 H   0  0  0  0  0  0
   67.1391   45.5224   32.9399 H   0  0  0  0  0  0
   66.6570   47.1672   33.3380 H   0  0  0  0  0  0
   65.8865   45.2772   29.0107 H   0  0  0  0  0  0
   64.4081   44.9599   28.1869 H   0  0  0  0  0  0
   64.9548   46.6129   28.2886 H   0  0  0  0  0  0
  1  2  2  0  0  0
  1  5  1  0  0  0
  1 28  1  0  0  0
  2  3  1  0  0  0
  2 27  1  0  0  0
  3  4  2  0  0  0
  3 11  1  0  0  0
  4  6  1  0  0  0
  4 29  1  0  0  0
  5 10  1  0  0  0
  5  6  2  0  0  0
  6  7  1  0  0  0
  7  8  1  0  0  0
  7 23  1  0  0  0
  7 24  1  0  0  0
  8  9  1  0  0  0
  8 30  1  0  0  0
  8 31  1  0  0  0
  9 10  1  0  0  0
  9 32  1  0  0  0
  9 33  1  0  0  0
 10 25  1  0  0  0
 10 26  1  0  0  0
 11 21  1  0  0  0
 11 12  1  0  0  0
 12 13  1  0  0  0
 12 34  1  0  0  0
 12 35  1  0  0  0
 13 14  2  0  0  0
 13 36  1  0  0  0
 14 15  1  0  0  0
 14 37  1  0  0  0
 15 16  2  0  0  0
 15 17  1  0  0  0
 16 18  1  0  0  0
 16 38  1  0  0  0
 17 39  1  0  0  0
 17 40  1  0  0  0
 17 41  1  0  0  0
 18 19  1  0  0  0
 18 20  2  0  0  0
 19 42  1  0  0  0
 21 22  1  0  0  0
 21 43  1  0  0  0
 21 44  1  0  0  0
 22 45  1  0  0  0
 22 46  1  0  0  0
 22 47  1  0  0  0
 23 48  1  0  0  0
 23 49  1  0  0  0
 23 50  1  0  0  0
 24 51  1  0  0  0
 24 52  1  0  0  0
 24 53  1  0  0  0
 25 54  1  0  0  0
 25 55  1  0  0  0
 25 56  1  0  0  0
 26 57  1  0  0  0
 26 58  1  0  0  0
 26 59  1  0  0  0
 27 60  1  0  0  0
 27 61  1  0  0  0
 27 62  1  0  0  0
M  END
> <s_m_entry_id>
31022

> <s_m_entry_name>
dock_pv.235

> <s_m_Source_Path>
/home/csk/Desktop/cluster/DUD-E-result/rxra

> <s_m_Source_File>
dock_pv.maegz

> <i_m_Source_File_Index>
235

> <chembl_id>
CHEMBL427391

> <chembl_pref_name>
None

> <i_lp_mmshare_version>
53161

> <r_lp_tautomer_probability>
1

> <s_lp_Force_Field>
OPLS_2005

> <r_lp_Energy>
31.496141

> <b_lp_Chiralities_Consistent>
1

> <s_lp_Variant>
CHEMBL2061_lig413-1

> <s_i_glide_gridfile>
glide-grid_1mv9

> <i_i_glide_lignum>
484

> <i_i_glide_rotatable_bonds>
7

> <r_i_docking_score>
-10.2815179203436

> <r_i_glide_ligand_efficiency>
-0.380796960012726

> <r_i_glide_ligand_efficiency_sa>
-1.14239087878313

> <r_i_glide_ligand_efficiency_ln>
-2.39336786778561

> <r_i_glide_gscore>
-10.2815179203436

> <r_i_glide_lipo>
-6.0885284490524

> <r_i_glide_hbond>
0

> <r_i_glide_metal>
0

> <r_i_glide_rewards>
-2.20827479791616

> <r_i_glide_evdw>
-46.1321334838867

> <r_i_glide_ecoul>
-2.56068658828735

> <r_i_glide_erotb>
0.705994989062395

> <r_i_glide_esite>
0

> <r_i_glide_emodel>
-65.7042709458975

> <r_i_glide_energy>
-48.6928200721741

> <r_i_glide_einternal>
17.742374420166

> <i_i_glide_confnum>
153

> <i_i_glide_posenum>
311

> <r_i_glide_eff_state_penalty>
0

> <s_user_duplicate_titles>
CHEMBL2061_lig413,345775

> <i_f3d_flags>
0

> <s_m_subgroup_title>
dock_pv

> <s_m_subgroupid>
dock_pv

> <b_m_subgroup_collapsed>
1

$$$$
CHEMBL2061_lig257
                    3D
 Schrodinger Suite 2021-1.
 51 53  0  0  1  0            999 V2000
   59.4126   46.1278   29.7872 C   0  0  0  0  0  0
   58.1907   46.0770   28.5451 S   0  0  0  0  0  0
   60.7659   46.6804   29.5734 C   0  0  0  0  0  0
   61.8534   46.3351   30.5328 C   0  0  0  0  0  0
   62.7759   46.4770   32.8241 C   0  0  0  0  0  0
   63.8944   45.6989   32.4117 C   0  0  0  0  0  0
   56.9579   45.5571   29.6676 C   0  0  0  0  0  0
   61.8053   46.7973   31.8537 C   0  0  0  0  0  0
   63.9438   45.2627   31.0777 C   0  0  0  0  0  0
   62.9503   45.5542   30.1472 C   0  0  0  0  0  0
   58.8607   45.6770   30.9838 C   0  0  0  0  0  0
   57.5248   45.2770   30.8987 C   0  0  0  0  0  0
   55.5542   45.4971   29.3390 C   0  0  0  0  0  0
   62.5963   46.9704   34.2900 C   0  0  0  0  0  0
   65.0125   45.2460   33.3859 C   0  0  0  0  0  0
   61.0690   47.4881   28.5350 C   0  0  0  0  0  0
   54.7006   45.0513   30.1081 O   0  0  0  0  0  0
   64.9659   46.0672   34.6989 C   0  0  0  0  0  0
   63.5482   46.2121   35.2546 C   0  0  0  0  0  0
   55.2630   46.0767   28.1390 O   0  0  0  0  0  0
   63.0684   44.9608   28.7479 C   0  0  0  0  0  0
   62.9312   48.4770   34.3750 C   0  0  0  0  0  0
   64.7952   43.7475   33.7167 C   0  0  0  0  0  0
   66.4080   45.5135   32.7700 C   0  0  0  0  0  0
   61.1575   46.6766   34.7879 C   0  0  0  0  0  0
   60.9715   47.4191   32.1390 H   0  0  0  0  0  0
   64.7650   44.6394   30.7583 H   0  0  0  0  0  0
   59.4027   45.6770   31.9166 H   0  0  0  0  0  0
   56.9568   44.9153   31.7390 H   0  0  0  0  0  0
   62.0693   47.8764   28.4050 H   0  0  0  0  0  0
   60.3358   47.7824   27.7990 H   0  0  0  0  0  0
   65.6080   45.6100   35.4534 H   0  0  0  0  0  0
   65.3871   47.0602   34.5390 H   0  0  0  0  0  0
   63.1612   45.2190   35.4792 H   0  0  0  0  0  0
   63.5923   46.7180   36.2206 H   0  0  0  0  0  0
   56.0610   46.3568   27.6868 H   0  0  0  0  0  0
   63.7413   44.1031   28.7274 H   0  0  0  0  0  0
   62.1019   44.5966   28.3977 H   0  0  0  0  0  0
   63.4276   45.7110   28.0439 H   0  0  0  0  0  0
   62.7677   48.8567   35.3843 H   0  0  0  0  0  0
   63.9713   48.6904   34.1390 H   0  0  0  0  0  0
   62.3128   49.0679   33.6987 H   0  0  0  0  0  0
   65.5320   43.3888   34.4359 H   0  0  0  0  0  0
   63.8067   43.5485   34.1309 H   0  0  0  0  0  0
   64.8912   43.1243   32.8273 H   0  0  0  0  0  0
   67.2037   45.3186   33.4911 H   0  0  0  0  0  0
   66.6125   44.8770   31.9097 H   0  0  0  0  0  0
   66.5103   46.5495   32.4439 H   0  0  0  0  0  0
   61.0531   46.8890   35.8528 H   0  0  0  0  0  0
   60.4080   47.2770   34.2801 H   0  0  0  0  0  0
   60.8753   45.6384   34.6312 H   0  0  0  0  0  0
  1  2  1  0  0  0
  1  3  1  0  0  0
  1 11  2  0  0  0
  2  7  1  0  0  0
  3  4  1  0  0  0
  3 16  2  0  0  0
  4  8  2  0  0  0
  4 10  1  0  0  0
  5  8  1  0  0  0
  5 14  1  0  0  0
  5  6  2  0  0  0
  6  9  1  0  0  0
  6 15  1  0  0  0
  7 13  1  0  0  0
  7 12  2  0  0  0
  8 26  1  0  0  0
  9 10  2  0  0  0
  9 27  1  0  0  0
 10 21  1  0  0  0
 11 12  1  0  0  0
 11 28  1  0  0  0
 12 29  1  0  0  0
 13 17  2  0  0  0
 13 20  1  0  0  0
 14 19  1  0  0  0
 14 22  1  0  0  0
 14 25  1  0  0  0
 15 18  1  0  0  0
 15 23  1  0  0  0
 15 24  1  0  0  0
 16 30  1  0  0  0
 16 31  1  0  0  0
 18 19  1  0  0  0
 18 32  1  0  0  0
 18 33  1  0  0  0
 19 34  1  0  0  0
 19 35  1  0  0  0
 20 36  1  0  0  0
 21 37  1  0  0  0
 21 38  1  0  0  0
 21 39  1  0  0  0
 22 40  1  0  0  0
 22 41  1  0  0  0
 22 42  1  0  0  0
 23 43  1  0  0  0
 23 44  1  0  0  0
 23 45  1  0  0  0
 24 46  1  0  0  0
 24 47  1  0  0  0
 24 48  1  0  0  0
 25 49  1  0  0  0
 25 50  1  0  0  0
 25 51  1  0  0  0
M  END
> <s_m_entry_id>
31023

> <s_m_entry_name>
dock_pv.236

> <s_m_Source_Path>
/home/csk/Desktop/cluster/DUD-E-result/rxra

> <s_m_Source_File>
dock_pv.maegz

> <i_m_Source_File_Index>
236

> <chembl_id>
CHEMBL111983

> <chembl_pref_name>
None

> <i_lp_mmshare_version>
53161

> <r_lp_tautomer_probability>
1

> <s_lp_Force_Field>
OPLS_2005

> <r_lp_Energy>
23.502867

> <b_lp_Chiralities_Consistent>
1

> <s_lp_Variant>
CHEMBL2061_lig257-1

> <s_i_glide_gridfile>
glide-grid_1mv9

> <i_i_glide_lignum>
299

> <i_i_glide_rotatable_bonds>
4

> <r_i_docking_score>
-10.2765890263104

> <r_i_glide_ligand_efficiency>
-0.411063561052416

> <r_i_glide_ligand_efficiency_sa>
-1.20195714276056

> <r_i_glide_ligand_efficiency_ln>
-2.43585956375747

> <r_i_glide_gscore>
-10.2765890263104

> <r_i_glide_lipo>
-6.12393386881317

> <r_i_glide_hbond>
0

> <r_i_glide_metal>
0

> <r_i_glide_rewards>
-2.19064314959809

> <r_i_glide_evdw>
-43.2563285827637

> <r_i_glide_ecoul>
-1.70240926742554

> <r_i_glide_erotb>
0.456165811352881

> <r_i_glide_esite>
0

> <r_i_glide_emodel>
-70.1304251841849

> <r_i_glide_energy>
-44.9587378501892

> <r_i_glide_einternal>
0.745791673660278

> <i_i_glide_confnum>
22

> <i_i_glide_posenum>
76

> <r_i_glide_eff_state_penalty>
0

> <s_user_duplicate_titles>
CHEMBL2061_lig257,187839

> <i_f3d_flags>
0

> <s_m_subgroup_title>
dock_pv

> <s_m_subgroupid>
dock_pv

> <b_m_subgroup_collapsed>
1

$$$$
CHEMBL2061_lig403
                    3D
 Schrodinger Suite 2021-1.
 62 64  0  0  1  0            999 V2000
   63.9974   46.0686   33.0101 C   0  0  0  0  0  0
   63.0701   46.9176   33.6681 C   0  0  0  0  0  0
   63.9530   46.0048   31.6179 C   0  0  0  0  0  0
   63.0139   46.7030   30.8609 C   0  0  0  0  0  0
   62.9409   46.5088   29.3510 C   0  0  2  0  0  0
   61.5660   46.6422   28.6646 C   0  0  2  0  0  0
   65.0151   45.1787   33.7535 C   0  0  0  0  0  0
   60.3934   46.0596   29.4608 C   0  0  0  0  0  0
   63.0565   47.1119   35.1949 C   0  0  0  0  0  0
   62.5697   44.6798   27.8005 C   0  0  0  0  0  0
   62.2164   47.6974   32.8786 C   0  0  0  0  0  0
   56.7936   45.7219   29.5000 C   0  0  0  0  0  0
   55.5749   45.2937   30.1426 C   0  0  0  0  0  0
   59.0980   46.3815   29.2823 C   0  0  0  0  0  0
   63.5114   45.1604   28.8695 C   0  0  0  0  0  0
   61.8139   45.9123   27.3470 C   0  0  0  0  0  0
   57.9975   45.8883   30.1055 C   0  0  0  0  0  0
   62.1641   47.5872   31.5025 C   0  0  0  0  0  0
   65.1278   45.6275   35.2271 C   0  0  0  0  0  0
   63.7991   45.9518   35.8968 C   0  0  0  0  0  0
   55.1927   45.6504   31.2567 O   0  0  0  0  0  0
   62.4007   43.4033   27.4391 C   0  0  0  0  0  0
   54.8457   44.4788   29.3370 O   0  0  0  0  0  0
   64.5208   43.7126   33.6703 C   0  0  0  0  0  0
   66.4331   45.3398   33.1495 C   0  0  0  0  0  0
   63.8220   48.4194   35.4730 C   0  0  0  0  0  0
   61.6009   47.1409   35.7443 C   0  0  0  0  0  0
   58.2276   45.5979   31.5884 C   0  0  0  0  0  0
   64.6615   45.3607   31.1224 H   0  0  0  0  0  0
   63.5740   47.2980   28.9431 H   0  0  0  0  0  0
   61.3531   47.6895   28.4450 H   0  0  0  0  0  0
   60.6660   45.3487   30.2295 H   0  0  0  0  0  0
   61.6113   48.4554   33.3371 H   0  0  0  0  0  0
   56.6880   45.9185   28.4440 H   0  0  0  0  0  0
   58.8653   47.0628   28.4771 H   0  0  0  0  0  0
   64.5436   45.2833   28.5398 H   0  0  0  0  0  0
   63.5139   44.3889   29.6426 H   0  0  0  0  0  0
   60.8784   45.7120   26.8310 H   0  0  0  0  0  0
   62.4432   46.5237   26.6972 H   0  0  0  0  0  0
   61.4736   48.2005   30.9427 H   0  0  0  0  0  0
   65.7965   46.4735   35.3245 H   0  0  0  0  0  0
   65.6071   44.8743   35.8128 H   0  0  0  0  0  0
   63.9992   46.1959   36.9415 H   0  0  0  0  0  0
   63.1941   45.0458   35.9106 H   0  0  0  0  0  0
   61.7049   43.1592   26.6609 H   0  0  0  0  0  0
   62.9619   42.6036   27.9049 H   0  0  0  0  0  0
   55.3051   44.2272   28.5320 H   0  0  0  0  0  0
   65.2384   43.0340   34.1245 H   0  0  0  0  0  0
   63.5429   43.5666   34.1304 H   0  0  0  0  0  0
   64.4230   43.3854   32.6371 H   0  0  0  0  0  0
   67.1851   44.8480   33.7658 H   0  0  0  0  0  0
   66.5144   44.8931   32.1591 H   0  0  0  0  0  0
   66.7224   46.3863   33.0649 H   0  0  0  0  0  0
   63.9796   48.5757   36.5368 H   0  0  0  0  0  0
   64.7967   48.4211   34.9897 H   0  0  0  0  0  0
   63.2748   49.2731   35.0862 H   0  0  0  0  0  0
   61.5568   47.6932   36.6751 H   0  0  0  0  0  0
   60.8821   47.6411   35.1074 H   0  0  0  0  0  0
   61.1986   46.1457   35.9233 H   0  0  0  0  0  0
   59.2264   45.8560   31.9423 H   0  0  0  0  0  0
   57.5035   46.1033   32.2242 H   0  0  0  0  0  0
   58.0521   44.5355   31.7653 H   0  0  0  0  0  0
  1  2  2  0  0  0
  1  3  1  0  0  0
  1  7  1  0  0  0
  2  9  1  0  0  0
  2 11  1  0  0  0
  3  4  2  0  0  0
  3 29  1  0  0  0
  4  5  1  0  0  0
  4 18  1  0  0  0
  5  6  1  0  0  0
  5 15  1  0  0  0
  5 30  1  0  0  0
  6  8  1  0  0  0
  6 16  1  0  0  0
  6 31  1  0  0  0
  7 19  1  0  0  0
  7 24  1  0  0  0
  7 25  1  0  0  0
  8 14  2  0  0  0
  8 32  1  0  0  0
  9 26  1  0  0  0
  9 27  1  0  0  0
  9 20  1  0  0  0
 10 15  1  0  0  0
 10 22  2  0  0  0
 10 16  1  0  0  0
 11 18  2  0  0  0
 11 33  1  0  0  0
 12 17  2  0  0  0
 12 13  1  0  0  0
 12 34  1  0  0  0
 13 21  2  0  0  0
 13 23  1  0  0  0
 14 17  1  0  0  0
 14 35  1  0  0  0
 15 36  1  0  0  0
 15 37  1  0  0  0
 16 38  1  0  0  0
 16 39  1  0  0  0
 17 28  1  0  0  0
 18 40  1  0  0  0
 19 20  1  0  0  0
 19 41  1  0  0  0
 19 42  1  0  0  0
 20 43  1  0  0  0
 20 44  1  0  0  0
 22 45  1  0  0  0
 22 46  1  0  0  0
 23 47  1  0  0  0
 24 48  1  0  0  0
 24 49  1  0  0  0
 24 50  1  0  0  0
 25 51  1  0  0  0
 25 52  1  0  0  0
 25 53  1  0  0  0
 26 54  1  0  0  0
 26 55  1  0  0  0
 26 56  1  0  0  0
 27 57  1  0  0  0
 27 58  1  0  0  0
 27 59  1  0  0  0
 28 60  1  0  0  0
 28 61  1  0  0  0
 28 62  1  0  0  0
M  END
> <s_m_entry_id>
31024

> <s_m_entry_name>
dock_pv.237

> <s_m_Source_Path>
/home/csk/Desktop/cluster/DUD-E-result/rxra

> <s_m_Source_File>
dock_pv.maegz

> <i_m_Source_File_Index>
237

> <chembl_id>
CHEMBL80424

> <chembl_pref_name>
None

> <i_lp_mmshare_version>
53161

> <r_lp_tautomer_probability>
1

> <s_lp_Force_Field>
OPLS_2005

> <r_lp_Energy>
36.532737

> <b_lp_Chiralities_Consistent>
1

> <s_lp_Variant>
CHEMBL2061_lig403-1

> <s_i_glide_gridfile>
glide-grid_1mv9

> <i_i_glide_lignum>
474

> <i_i_glide_rotatable_bonds>
5

> <r_i_docking_score>
-10.2514081674474

> <r_i_glide_ligand_efficiency>
-0.366121720265977

> <r_i_glide_ligand_efficiency_sa>
-1.11176117688894

> <r_i_glide_ligand_efficiency_ln>
-2.36632599946967

> <r_i_glide_gscore>
-10.2514081674474

> <r_i_glide_lipo>
-6.4136209001091

> <r_i_glide_hbond>
0

> <r_i_glide_metal>
0

> <r_i_glide_rewards>
-2.08962420085108

> <r_i_glide_evdw>
-37.1872367858887

> <r_i_glide_ecoul>
-2.8652126789093

> <r_i_glide_erotb>
0.540980674643655

> <r_i_glide_esite>
0

> <r_i_glide_emodel>
-38.2179793488588

> <r_i_glide_energy>
-40.052449464798

> <r_i_glide_einternal>
13.0274238586426

> <i_i_glide_confnum>
56

> <i_i_glide_posenum>
294

> <r_i_glide_eff_state_penalty>
0

> <s_user_duplicate_titles>
CHEMBL2061_lig403,125186

> <i_f3d_flags>
0

> <s_m_subgroup_title>
dock_pv

> <s_m_subgroupid>
dock_pv

> <b_m_subgroup_collapsed>
1

$$$$
CHEMBL2061_lig416
                    3D
 Schrodinger Suite 2021-1.
 65 66  0  0  1  0            999 V2000
   62.0839   47.0810   31.3492 C   0  0  0  0  0  0
   62.8586   46.4796   30.3429 C   0  0  0  0  0  0
   63.9302   45.6758   30.7521 C   0  0  0  0  0  0
   62.3111   46.8172   32.7085 C   0  0  0  0  0  0
   63.4044   46.0431   33.0929 C   0  0  0  0  0  0
   64.1935   45.4664   32.1084 C   0  0  0  0  0  0
   65.2191   44.5747   32.7524 C   0  0  0  0  0  0
   65.2103   45.0017   34.2252 C   0  0  0  0  0  0
   63.8446   45.5637   34.4753 C   0  0  0  0  0  0
   61.3874   47.2770   33.6604 N   0  0  0  0  0  0
   60.2591   46.3392   33.8500 C   0  0  0  0  0  0
   59.4637   45.8773   32.6272 C   0  0  0  0  0  0
   58.1305   45.6894   32.5457 C   0  0  0  0  0  0
   57.4065   45.2769   31.3396 C   0  0  0  0  0  0
   56.0512   45.3576   31.3795 C   0  0  0  0  0  0
   58.1797   44.7498   30.1307 C   0  0  0  0  0  0
   55.1130   45.0613   30.3237 C   0  0  0  0  0  0
   55.5247   45.4923   29.0993 O   0  0  0  0  0  0
   54.0080   44.5673   30.5321 O   0  0  0  0  0  0
   61.9190   47.9986   34.8409 C   0  0  0  0  0  0
   60.8635   48.8561   35.5505 C   0  0  0  0  0  0
   62.5015   46.5865   28.8337 C   0  0  0  0  0  0
   63.7110   47.0427   27.9726 C   0  0  0  0  0  0
   61.3478   47.5815   28.5484 C   0  0  0  0  0  0
   62.0467   45.1902   28.3444 C   0  0  0  0  0  0
   64.8079   43.0903   32.6482 C   0  0  0  0  0  0
   66.6034   44.8771   32.2097 C   0  0  0  0  0  0
   63.1747   48.8770   34.5594 C   0  0  0  0  0  0
   61.2342   47.6955   31.0976 H   0  0  0  0  0  0
   64.5368   45.1716   30.0148 H   0  0  0  0  0  0
   65.9174   45.8184   34.3969 H   0  0  0  0  0  0
   65.5125   44.2174   34.9222 H   0  0  0  0  0  0
   63.9455   46.3235   35.2444 H   0  0  0  0  0  0
   63.2081   44.7798   34.8673 H   0  0  0  0  0  0
   59.5457   46.7699   34.5389 H   0  0  0  0  0  0
   60.6442   45.4433   34.3368 H   0  0  0  0  0  0
   60.0514   45.6770   31.7485 H   0  0  0  0  0  0
   57.5548   45.8897   33.4356 H   0  0  0  0  0  0
   55.5609   45.6775   32.2877 H   0  0  0  0  0  0
   58.9396   44.0678   30.4998 H   0  0  0  0  0  0
   57.5951   44.1419   29.4407 H   0  0  0  0  0  0
   58.7098   45.5484   29.6115 H   0  0  0  0  0  0
   56.4050   45.8684   29.1484 H   0  0  0  0  0  0
   62.1725   47.2448   35.5832 H   0  0  0  0  0  0
   61.2566   49.2765   36.4795 H   0  0  0  0  0  0
   60.4626   49.6645   34.9390 H   0  0  0  0  0  0
   60.0081   48.2836   35.8367 H   0  0  0  0  0  0
   64.6088   46.4495   28.1417 H   0  0  0  0  0  0
   63.4858   46.9597   26.9081 H   0  0  0  0  0  0
   63.9702   48.0880   28.1388 H   0  0  0  0  0  0
   60.4197   47.2912   29.0421 H   0  0  0  0  0  0
   61.6076   48.5856   28.8824 H   0  0  0  0  0  0
   61.1273   47.6467   27.4818 H   0  0  0  0  0  0
   61.2086   44.8202   28.9374 H   0  0  0  0  0  0
   61.7251   45.2093   27.3024 H   0  0  0  0  0  0
   62.8456   44.4508   28.4161 H   0  0  0  0  0  0
   65.4855   42.4770   33.2403 H   0  0  0  0  0  0
   63.8060   42.9178   33.0438 H   0  0  0  0  0  0
   64.8079   42.7304   31.6182 H   0  0  0  0  0  0
   67.2940   44.4764   32.9389 H   0  0  0  0  0  0
   66.7848   44.4775   31.2112 H   0  0  0  0  0  0
   66.7915   45.9509   32.1627 H   0  0  0  0  0  0
   63.5694   49.3205   35.4751 H   0  0  0  0  0  0
   64.0139   48.3280   34.1402 H   0  0  0  0  0  0
   62.9393   49.6680   33.8460 H   0  0  0  0  0  0
  1  2  2  0  0  0
  1  4  1  0  0  0
  1 29  1  0  0  0
  2 22  1  0  0  0
  2  3  1  0  0  0
  3  6  2  0  0  0
  3 30  1  0  0  0
  4  5  2  0  0  0
  4 10  1  0  0  0
  5  9  1  0  0  0
  5  6  1  0  0  0
  6  7  1  0  0  0
  7  8  1  0  0  0
  7 26  1  0  0  0
  7 27  1  0  0  0
  8  9  1  0  0  0
  8 31  1  0  0  0
  8 32  1  0  0  0
  9 33  1  0  0  0
  9 34  1  0  0  0
 10 20  1  0  0  0
 10 11  1  0  0  0
 11 12  1  0  0  0
 11 35  1  0  0  0
 11 36  1  0  0  0
 12 13  2  0  0  0
 12 37  1  0  0  0
 13 14  1  0  0  0
 13 38  1  0  0  0
 14 15  2  0  0  0
 14 16  1  0  0  0
 15 17  1  0  0  0
 15 39  1  0  0  0
 16 40  1  0  0  0
 16 41  1  0  0  0
 16 42  1  0  0  0
 17 18  1  0  0  0
 17 19  2  0  0  0
 18 43  1  0  0  0
 20 21  1  0  0  0
 20 28  1  0  0  0
 20 44  1  0  0  0
 21 45  1  0  0  0
 21 46  1  0  0  0
 21 47  1  0  0  0
 22 23  1  0  0  0
 22 24  1  0  0  0
 22 25  1  0  0  0
 23 48  1  0  0  0
 23 49  1  0  0  0
 23 50  1  0  0  0
 24 51  1  0  0  0
 24 52  1  0  0  0
 24 53  1  0  0  0
 25 54  1  0  0  0
 25 55  1  0  0  0
 25 56  1  0  0  0
 26 57  1  0  0  0
 26 58  1  0  0  0
 26 59  1  0  0  0
 27 60  1  0  0  0
 27 61  1  0  0  0
 27 62  1  0  0  0
 28 63  1  0  0  0
 28 64  1  0  0  0
 28 65  1  0  0  0
M  END
> <s_m_entry_id>
31025

> <s_m_entry_name>
dock_pv.238

> <s_m_Source_Path>
/home/csk/Desktop/cluster/DUD-E-result/rxra

> <s_m_Source_File>
dock_pv.maegz

> <i_m_Source_File_Index>
238

> <chembl_id>
CHEMBL205694

> <chembl_pref_name>
None

> <i_lp_mmshare_version>
53161

> <r_lp_tautomer_probability>
1

> <s_lp_Force_Field>
OPLS_2005

> <r_lp_Energy>
36.206617

> <b_lp_Chiralities_Consistent>
1

> <s_lp_Variant>
CHEMBL2061_lig416-1

> <s_i_glide_gridfile>
glide-grid_1mv9

> <i_i_glide_lignum>
487

> <i_i_glide_rotatable_bonds>
8

> <r_i_docking_score>
-10.2470197655356

> <r_i_glide_ligand_efficiency>
-0.365964991626271

> <r_i_glide_ligand_efficiency_sa>
-1.11128525643056

> <r_i_glide_ligand_efficiency_ln>
-2.36531302745936

> <r_i_glide_gscore>
-10.2470197655356

> <r_i_glide_lipo>
-5.88347491668471

> <r_i_glide_hbond>
-0.32

> <r_i_glide_metal>
0

> <r_i_glide_rewards>
-2.67167234767568

> <r_i_glide_evdw>
-27.600227355957

> <r_i_glide_ecoul>
-4.34872770309448

> <r_i_glide_erotb>
0.660448022086818

> <r_i_glide_esite>
0

> <r_i_glide_emodel>
-34.9678840147626

> <r_i_glide_energy>
-31.9489550590515

> <r_i_glide_einternal>
23.6363830566406

> <i_i_glide_confnum>
46

> <i_i_glide_posenum>
347

> <r_i_glide_eff_state_penalty>
0

> <s_user_duplicate_titles>
CHEMBL2061_lig416,345695

> <i_f3d_flags>
0

> <s_m_subgroup_title>
dock_pv

> <s_m_subgroupid>
dock_pv

> <b_m_subgroup_collapsed>
1

$$$$
CHEMBL2061_lig502
                    3D
 Schrodinger Suite 2021-1.
 54 55  0  0  1  0            999 V2000
   63.6999   45.1416   30.7965 C   0  0  0  0  0  0
   62.8413   46.0738   31.4122 C   0  0  0  0  0  0
   61.7009   46.5080   30.7232 C   0  0  0  0  0  0
   61.3876   46.0044   29.4628 C   0  0  0  0  0  0
   62.2353   45.0659   28.8700 C   0  0  0  0  0  0
   63.3828   44.6448   29.5279 C   0  0  0  0  0  0
   64.9351   44.5727   31.5035 C   0  0  0  0  0  0
   64.5373   43.4958   32.5330 C   0  0  0  0  0  0
   65.8820   45.6405   32.0837 C   0  0  0  0  0  0
   60.2331   46.4589   28.7994 N   0  0  0  0  0  0
   58.9200   46.0430   29.1606 C   0  0  0  0  0  0
   60.4584   46.9353   27.4153 C   0  0  0  0  0  0
   61.7045   47.8162   27.1912 C   0  0  0  0  0  0
   58.6010   45.5987   30.4551 C   0  0  0  0  0  0
   57.2775   45.2771   30.7779 C   0  0  0  0  0  0
   56.2724   45.4530   29.8199 C   0  0  0  0  0  0
   56.6682   45.8153   28.5393 C   0  0  0  0  0  0
   57.9513   46.0769   28.2110 N   0  0  0  0  0  0
   63.1455   46.5019   32.6868 O   0  0  0  0  0  0
   62.1840   47.2156   33.4558 C   0  0  0  0  0  0
   62.7460   47.4930   34.8637 C   0  0  2  0  0  0
   54.8192   45.2831   30.1393 C   0  0  0  0  0  0
   54.0077   46.1783   29.5060 O   0  0  0  0  0  0
   54.4078   44.4545   30.9391 O   0  0  0  0  0  0
   63.9195   48.4787   34.8197 C   0  0  0  0  0  0
   63.1486   46.2156   35.6187 C   0  0  0  0  0  0
   64.0679   45.4533   35.0340 F   0  0  0  0  0  0
   61.0383   47.2388   31.1579 H   0  0  0  0  0  0
   62.0052   44.6571   27.8975 H   0  0  0  0  0  0
   64.0085   43.9054   29.0517 H   0  0  0  0  0  0
   65.5343   44.0768   30.7381 H   0  0  0  0  0  0
   64.0917   42.6289   32.0431 H   0  0  0  0  0  0
   65.3935   43.1443   33.1083 H   0  0  0  0  0  0
   63.8064   43.8705   33.2468 H   0  0  0  0  0  0
   66.1277   46.4019   31.3430 H   0  0  0  0  0  0
   65.4789   46.1428   32.9601 H   0  0  0  0  0  0
   66.8077   45.1756   32.4075 H   0  0  0  0  0  0
   60.4877   46.0773   26.7455 H   0  0  0  0  0  0
   59.6065   47.5287   27.0922 H   0  0  0  0  0  0
   61.7855   48.0768   26.1387 H   0  0  0  0  0  0
   61.6411   48.7429   27.7623 H   0  0  0  0  0  0
   62.6366   47.3182   27.4529 H   0  0  0  0  0  0
   59.3467   45.5469   31.2291 H   0  0  0  0  0  0
   57.0384   44.9821   31.7875 H   0  0  0  0  0  0
   55.9639   45.9069   27.7249 H   0  0  0  0  0  0
   61.2583   46.6415   33.5322 H   0  0  0  0  0  0
   61.9441   48.1639   32.9722 H   0  0  0  0  0  0
   61.9523   47.9706   35.4400 H   0  0  0  0  0  0
   54.5212   46.7849   28.9680 H   0  0  0  0  0  0
   64.7585   48.0775   34.2487 H   0  0  0  0  0  0
   63.6102   49.4193   34.3621 H   0  0  0  0  0  0
   64.2771   48.7111   35.8231 H   0  0  0  0  0  0
   62.2831   45.5918   35.8341 H   0  0  0  0  0  0
   63.6080   46.4916   36.5562 H   0  0  0  0  0  0
  1  2  2  0  0  0
  1  6  1  0  0  0
  1  7  1  0  0  0
  2  3  1  0  0  0
  2 19  1  0  0  0
  3  4  2  0  0  0
  3 28  1  0  0  0
  4  5  1  0  0  0
  4 10  1  0  0  0
  5  6  2  0  0  0
  5 29  1  0  0  0
  6 30  1  0  0  0
  7  8  1  0  0  0
  7  9  1  0  0  0
  7 31  1  0  0  0
  8 32  1  0  0  0
  8 33  1  0  0  0
  8 34  1  0  0  0
  9 35  1  0  0  0
  9 36  1  0  0  0
  9 37  1  0  0  0
 10 11  1  0  0  0
 10 12  1  0  0  0
 11 14  2  0  0  0
 11 18  1  0  0  0
 12 13  1  0  0  0
 12 38  1  0  0  0
 12 39  1  0  0  0
 13 40  1  0  0  0
 13 41  1  0  0  0
 13 42  1  0  0  0
 14 15  1  0  0  0
 14 43  1  0  0  0
 15 16  2  0  0  0
 15 44  1  0  0  0
 16 17  1  0  0  0
 16 22  1  0  0  0
 17 18  2  0  0  0
 17 45  1  0  0  0
 19 20  1  0  0  0
 20 21  1  0  0  0
 20 46  1  0  0  0
 20 47  1  0  0  0
 21 25  1  0  0  0
 21 26  1  0  0  0
 21 48  1  0  0  0
 22 23  1  0  0  0
 22 24  2  0  0  0
 23 49  1  0  0  0
 25 50  1  0  0  0
 25 51  1  0  0  0
 25 52  1  0  0  0
 26 27  1  0  0  0
 26 53  1  0  0  0
 26 54  1  0  0  0
M  END
> <s_m_entry_id>
31026

> <s_m_entry_name>
dock_pv.239

> <s_m_Source_Path>
/home/csk/Desktop/cluster/DUD-E-result/rxra

> <s_m_Source_File>
dock_pv.maegz

> <i_m_Source_File_Index>
239

> <chembl_id>
CHEMBL3425764

> <chembl_pref_name>
None

> <i_lp_mmshare_version>
53161

> <r_lp_tautomer_probability>
1

> <s_lp_Force_Field>
OPLS_2005

> <r_lp_Energy>
22.284639

> <b_lp_Chiralities_Consistent>
1

> <s_lp_Variant>
CHEMBL2061_lig502-1

> <s_i_glide_gridfile>
glide-grid_1mv9

> <i_i_glide_lignum>
594

> <i_i_glide_rotatable_bonds>
10

> <r_i_docking_score>
-10.2469412620459

> <r_i_glide_ligand_efficiency>
-0.379516343038738

> <r_i_glide_ligand_efficiency_sa>
-1.13854902786539

> <r_i_glide_ligand_efficiency_ln>
-2.38531899177468

> <r_i_glide_gscore>
-10.2469412620459

> <r_i_glide_lipo>
-5.72080932786237

> <r_i_glide_hbond>
-0.32

> <r_i_glide_metal>
0

> <r_i_glide_rewards>
-1.99252553762705

> <r_i_glide_evdw>
-47.657642364502

> <r_i_glide_ecoul>
-4.3877420425415

> <r_i_glide_erotb>
0.827437028049809

> <r_i_glide_esite>
0

> <r_i_glide_emodel>
-76.427661149601

> <r_i_glide_energy>
-52.0453844070435

> <r_i_glide_einternal>
11.211576461792

> <i_i_glide_confnum>
56

> <i_i_glide_posenum>
381

> <r_i_glide_eff_state_penalty>
0

> <s_user_duplicate_titles>
CHEMBL2061_lig502

> <i_f3d_flags>
0

> <s_m_subgroup_title>
dock_pv

> <s_m_subgroupid>
dock_pv

> <b_m_subgroup_collapsed>
1

$$$$
CHEMBL2061_lig13
                    3D
 Schrodinger Suite 2021-1.
 53 55  0  0  1  0            999 V2000
   63.8432   45.1084   30.8120 C   0  0  0  0  0  0
   62.9168   45.5307   29.8644 C   0  0  0  0  0  0
   61.9767   46.4999   30.2193 C   0  0  0  0  0  0
   62.0458   47.0655   31.4973 C   0  0  0  0  0  0
   63.8238   45.5488   32.1450 C   0  0  0  0  0  0
   62.9182   46.5901   32.4954 C   0  0  0  0  0  0
   62.7445   47.0695   33.9635 C   0  0  0  0  0  0
   63.9780   46.6676   34.8174 C   0  0  0  0  0  0
   64.3836   45.2099   34.6308 C   0  0  0  0  0  0
   64.7704   44.8635   33.1671 C   0  0  0  0  0  0
   62.9150   44.8632   28.4982 C   0  0  0  0  0  0
   64.6405   43.3163   33.0724 C   0  0  0  0  0  0
   66.2097   45.3639   32.8936 C   0  0  0  0  0  0
   62.6355   48.6099   34.1111 C   0  0  0  0  0  0
   61.4663   46.3732   34.4970 C   0  0  0  0  0  0
   60.8409   46.9141   29.2699 C   0  0  0  0  0  0
   59.4754   46.2587   29.5315 C   0  0  0  0  0  0
   59.1776   45.6776   30.7660 C   0  0  0  0  0  0
   57.8978   45.2320   31.0693 C   0  0  0  0  0  0
   56.8650   45.3724   30.1395 C   0  0  0  0  0  0
   57.1583   45.9044   28.8782 C   0  0  0  0  0  0
   58.4611   46.3213   28.5716 C   0  0  0  0  0  0
   55.4507   45.0949   30.5500 C   0  0  0  0  0  0
   54.6431   44.4770   29.8620 O   0  0  0  0  0  0
   55.1352   45.6768   31.7386 O   0  0  0  0  0  0
   56.1729   46.0756   27.9641 F   0  0  0  0  0  0
   64.5596   44.3578   30.5149 H   0  0  0  0  0  0
   61.3044   47.8053   31.7568 H   0  0  0  0  0  0
   63.7874   46.8609   35.8750 H   0  0  0  0  0  0
   64.8381   47.2891   34.5631 H   0  0  0  0  0  0
   63.5562   44.5909   34.9747 H   0  0  0  0  0  0
   65.2048   44.9670   35.3084 H   0  0  0  0  0  0
   63.5888   44.0058   28.4708 H   0  0  0  0  0  0
   61.9184   44.4940   28.2551 H   0  0  0  0  0  0
   63.2083   45.5737   27.7260 H   0  0  0  0  0  0
   65.3652   42.8295   33.7249 H   0  0  0  0  0  0
   63.6496   42.9676   33.3677 H   0  0  0  0  0  0
   64.8080   42.9212   32.0731 H   0  0  0  0  0  0
   66.9211   44.9475   33.6081 H   0  0  0  0  0  0
   66.5483   45.0686   31.8999 H   0  0  0  0  0  0
   66.2864   46.4504   32.9496 H   0  0  0  0  0  0
   62.1695   48.8547   35.0654 H   0  0  0  0  0  0
   63.6036   49.1104   34.1374 H   0  0  0  0  0  0
   62.0375   49.0879   33.3378 H   0  0  0  0  0  0
   61.4173   46.3753   35.5868 H   0  0  0  0  0  0
   60.5675   46.8762   34.1388 H   0  0  0  0  0  0
   61.3866   45.3437   34.1489 H   0  0  0  0  0  0
   61.1288   46.7607   28.2302 H   0  0  0  0  0  0
   60.7054   47.9932   29.3584 H   0  0  0  0  0  0
   59.9096   45.6770   31.5558 H   0  0  0  0  0  0
   57.7140   44.8522   32.0636 H   0  0  0  0  0  0
   58.6686   46.7612   27.6085 H   0  0  0  0  0  0
   55.8978   46.1513   32.0806 H   0  0  0  0  0  0
  1  5  1  0  0  0
  1  2  2  0  0  0
  1 27  1  0  0  0
  2  3  1  0  0  0
  2 11  1  0  0  0
  3  4  2  0  0  0
  3 16  1  0  0  0
  4  6  1  0  0  0
  4 28  1  0  0  0
  5 10  1  0  0  0
  5  6  2  0  0  0
  6  7  1  0  0  0
  7 14  1  0  0  0
  7 15  1  0  0  0
  7  8  1  0  0  0
  8  9  1  0  0  0
  8 29  1  0  0  0
  8 30  1  0  0  0
  9 10  1  0  0  0
  9 31  1  0  0  0
  9 32  1  0  0  0
 10 13  1  0  0  0
 10 12  1  0  0  0
 11 33  1  0  0  0
 11 34  1  0  0  0
 11 35  1  0  0  0
 12 36  1  0  0  0
 12 37  1  0  0  0
 12 38  1  0  0  0
 13 39  1  0  0  0
 13 40  1  0  0  0
 13 41  1  0  0  0
 14 42  1  0  0  0
 14 43  1  0  0  0
 14 44  1  0  0  0
 15 45  1  0  0  0
 15 46  1  0  0  0
 15 47  1  0  0  0
 16 17  1  0  0  0
 16 48  1  0  0  0
 16 49  1  0  0  0
 17 18  2  0  0  0
 17 22  1  0  0  0
 18 19  1  0  0  0
 18 50  1  0  0  0
 19 20  2  0  0  0
 19 51  1  0  0  0
 20 21  1  0  0  0
 20 23  1  0  0  0
 21 22  2  0  0  0
 21 26  1  0  0  0
 22 52  1  0  0  0
 23 24  2  0  0  0
 23 25  1  0  0  0
 25 53  1  0  0  0
M  END
> <s_m_entry_id>
31027

> <s_m_entry_name>
dock_pv.240

> <s_m_Source_Path>
/home/csk/Desktop/cluster/DUD-E-result/rxra

> <s_m_Source_File>
dock_pv.maegz

> <i_m_Source_File_Index>
240

> <chembl_id>
CHEMBL583996

> <chembl_pref_name>
None

> <i_lp_mmshare_version>
53161

> <r_lp_tautomer_probability>
1

> <s_lp_Force_Field>
OPLS_2005

> <r_lp_Energy>
25.035648

> <b_lp_Chiralities_Consistent>
1

> <s_lp_Variant>
CHEMBL2061_lig13-1

> <s_i_glide_gridfile>
glide-grid_1mv9

> <i_i_glide_lignum>
16

> <i_i_glide_rotatable_bonds>
4

> <r_i_docking_score>
-10.2426529120938

> <r_i_glide_ligand_efficiency>
-0.393948188926686

> <r_i_glide_ligand_efficiency_sa>
-1.16706995958404

> <r_i_glide_ligand_efficiency_ln>
-2.40545342751977

> <r_i_glide_gscore>
-10.2426529120938

> <r_i_glide_lipo>
-6.03437079605124

> <r_i_glide_hbond>
0

> <r_i_glide_metal>
0

> <r_i_glide_rewards>
-2.31260770593867

> <r_i_glide_evdw>
-41.6732597351074

> <r_i_glide_ecoul>
-1.7885959148407

> <r_i_glide_erotb>
0.456277963877534

> <r_i_glide_esite>
0

> <r_i_glide_emodel>
-58.6087481364884

> <r_i_glide_energy>
-43.4618556499481

> <r_i_glide_einternal>
4.72164440155029

> <i_i_glide_confnum>
10

> <i_i_glide_posenum>
69

> <r_i_glide_eff_state_penalty>
0

> <s_user_duplicate_titles>
CHEMBL2061_lig13,572096

> <i_f3d_flags>
0

> <s_m_subgroup_title>
dock_pv

> <s_m_subgroupid>
dock_pv

> <b_m_subgroup_collapsed>
1

$$$$
CHEMBL2061_lig298
                    3D
 Schrodinger Suite 2021-1.
 48 50  0  0  1  0            999 V2000
   61.8640   46.3628   30.4975 C   0  0  0  0  0  0
   60.7758   46.7182   29.5374 C   0  0  0  0  0  0
   62.7858   46.4770   32.7881 C   0  0  0  0  0  0
   61.8238   46.8246   31.8209 C   0  0  0  0  0  0
   62.9627   45.5838   30.1024 C   0  0  0  0  0  0
   63.8837   45.6869   32.3629 C   0  0  0  0  0  0
   55.2856   44.9372   30.3172 C   0  0  0  0  0  0
   63.9582   45.2776   31.0285 C   0  0  0  0  0  0
   62.6350   46.9530   34.2642 C   0  0  0  0  0  0
   59.4000   46.1270   29.6962 C   0  0  0  0  0  0
   56.7264   45.2753   30.0691 C   0  0  0  0  0  0
   61.0838   47.5588   28.5257 C   0  0  0  0  0  0
   54.7024   45.2770   31.3390 O   0  0  0  0  0  0
   58.9421   45.6770   30.9390 C   0  0  0  0  0  0
   58.4894   46.0928   28.6271 C   0  0  0  0  0  0
   57.1696   45.6770   28.8080 C   0  0  0  0  0  0
   57.6274   45.2770   31.1325 C   0  0  0  0  0  0
   54.6804   44.2196   29.3390 O   0  0  0  0  0  0
   64.9566   45.1971   33.3342 C   0  0  0  0  0  0
   63.6122   46.1818   35.2024 C   0  0  0  0  0  0
   63.0805   45.0130   28.6939 C   0  0  0  0  0  0
   62.9717   48.4586   34.3664 C   0  0  0  0  0  0
   61.2026   46.6543   34.7757 C   0  0  0  0  0  0
   65.0217   46.0305   34.6165 C   0  0  0  0  0  0
   60.9993   47.4551   32.1154 H   0  0  0  0  0  0
   64.7921   44.6639   30.7185 H   0  0  0  0  0  0
   62.0819   47.9611   28.4259 H   0  0  0  0  0  0
   60.3646   47.8728   27.7855 H   0  0  0  0  0  0
   59.5786   45.6771   31.8074 H   0  0  0  0  0  0
   58.7884   46.4116   27.6406 H   0  0  0  0  0  0
   56.4962   45.7074   27.9625 H   0  0  0  0  0  0
   57.3200   45.0062   32.1303 H   0  0  0  0  0  0
   55.2881   43.9058   28.6626 H   0  0  0  0  0  0
   64.7280   44.1623   33.5949 H   0  0  0  0  0  0
   65.9352   45.1813   32.8518 H   0  0  0  0  0  0
   63.2264   45.1808   35.4051 H   0  0  0  0  0  0
   63.6704   46.6682   36.1776 H   0  0  0  0  0  0
   63.7801   44.1778   28.6515 H   0  0  0  0  0  0
   62.1196   44.6253   28.3535 H   0  0  0  0  0  0
   63.4038   45.7834   27.9944 H   0  0  0  0  0  0
   62.8047   48.8280   35.3789 H   0  0  0  0  0  0
   64.0136   48.6691   34.1390 H   0  0  0  0  0  0
   62.3584   49.0585   33.6934 H   0  0  0  0  0  0
   61.1156   46.8338   35.8482 H   0  0  0  0  0  0
   60.4518   47.2770   34.2959 H   0  0  0  0  0  0
   60.9086   45.6244   34.5892 H   0  0  0  0  0  0
   65.6759   45.5417   35.3390 H   0  0  0  0  0  0
   65.4712   47.0026   34.4134 H   0  0  0  0  0  0
  1  2  1  0  0  0
  1  4  2  0  0  0
  1  5  1  0  0  0
  2 10  1  0  0  0
  2 12  2  0  0  0
  3  4  1  0  0  0
  3  9  1  0  0  0
  3  6  2  0  0  0
  4 25  1  0  0  0
  5  8  2  0  0  0
  5 21  1  0  0  0
  6  8  1  0  0  0
  6 19  1  0  0  0
  7 11  1  0  0  0
  7 13  2  0  0  0
  7 18  1  0  0  0
  8 26  1  0  0  0
  9 20  1  0  0  0
  9 22  1  0  0  0
  9 23  1  0  0  0
 10 14  1  0  0  0
 10 15  2  0  0  0
 11 16  2  0  0  0
 11 17  1  0  0  0
 12 27  1  0  0  0
 12 28  1  0  0  0
 14 17  2  0  0  0
 14 29  1  0  0  0
 15 16  1  0  0  0
 15 30  1  0  0  0
 16 31  1  0  0  0
 17 32  1  0  0  0
 18 33  1  0  0  0
 19 24  1  0  0  0
 19 34  1  0  0  0
 19 35  1  0  0  0
 20 24  1  0  0  0
 20 36  1  0  0  0
 20 37  1  0  0  0
 21 38  1  0  0  0
 21 39  1  0  0  0
 21 40  1  0  0  0
 22 41  1  0  0  0
 22 42  1  0  0  0
 22 43  1  0  0  0
 23 44  1  0  0  0
 23 45  1  0  0  0
 23 46  1  0  0  0
 24 47  1  0  0  0
 24 48  1  0  0  0
M  END
> <s_m_entry_id>
31028

> <s_m_entry_name>
dock_pv.241

> <s_m_Source_Path>
/home/csk/Desktop/cluster/DUD-E-result/rxra

> <s_m_Source_File>
dock_pv.maegz

> <i_m_Source_File_Index>
241

> <chembl_id>
CHEMBL107039

> <chembl_pref_name>
None

> <i_lp_mmshare_version>
53161

> <r_lp_tautomer_probability>
1

> <s_lp_Force_Field>
OPLS_2005

> <r_lp_Energy>
26.236148

> <b_lp_Chiralities_Consistent>
1

> <s_lp_Variant>
CHEMBL2061_lig298-1

> <s_i_glide_gridfile>
glide-grid_1mv9

> <i_i_glide_lignum>
344

> <i_i_glide_rotatable_bonds>
4

> <r_i_docking_score>
-10.2402814126223

> <r_i_glide_ligand_efficiency>
-0.426678392192597

> <r_i_glide_ligand_efficiency_sa>
-1.23075345429466

> <r_i_glide_ligand_efficiency_ln>
-2.45096923793572

> <r_i_glide_gscore>
-10.2402814126223

> <r_i_glide_lipo>
-5.89678308850336

> <r_i_glide_hbond>
-0.0601258061080715

> <r_i_glide_metal>
0

> <r_i_glide_rewards>
-2.29758405730832

> <r_i_glide_evdw>
-38.2339706420898

> <r_i_glide_ecoul>
-4.13125467300415

> <r_i_glide_erotb>
0.545598272352537

> <r_i_glide_esite>
0

> <r_i_glide_emodel>
-64.0498277368478

> <r_i_glide_energy>
-42.365225315094

> <r_i_glide_einternal>
5.97727155685425

> <i_i_glide_confnum>
19

> <i_i_glide_posenum>
165

> <r_i_glide_eff_state_penalty>
0

> <s_user_duplicate_titles>
CHEMBL2061_lig298

> <i_f3d_flags>
0

> <s_m_subgroup_title>
dock_pv

> <s_m_subgroupid>
dock_pv

> <b_m_subgroup_collapsed>
1

$$$$
CHEMBL2061_lig5
                    3D
 Schrodinger Suite 2021-1.
 52 54  0  0  1  0            999 V2000
   63.9550   45.3163   30.8900 C   0  0  0  0  0  0
   62.9509   45.5030   29.9400 C   0  0  0  0  0  0
   61.7954   46.2209   30.2881 C   0  0  0  0  0  0
   61.7169   46.7385   31.5843 C   0  0  0  0  0  0
   63.8545   45.7814   32.2111 C   0  0  0  0  0  0
   62.6731   46.4772   32.5803 C   0  0  0  0  0  0
   62.3810   46.9323   34.0338 C   0  0  0  0  0  0
   63.3961   46.3199   35.0379 C   0  0  0  0  0  0
   64.8324   46.3096   34.5058 C   0  0  0  0  0  0
   64.9849   45.4531   33.2212 C   0  0  0  0  0  0
   63.1286   44.8559   28.5717 C   0  0  0  0  0  0
   64.8860   43.9526   33.5977 C   0  0  0  0  0  0
   66.3698   45.8162   32.6261 C   0  0  0  0  0  0
   62.4854   48.4747   34.1225 C   0  0  0  0  0  0
   60.9833   46.3972   34.4585 C   0  0  0  0  0  0
   60.6889   46.4924   29.3019 C   0  0  0  0  0  0
   59.2603   46.0761   29.5811 C   0  0  0  0  0  0
   58.8170   45.6769   30.8476 C   0  0  0  0  0  0
   57.4938   45.3137   31.0733 C   0  0  0  0  0  0
   56.5515   45.4104   30.0451 C   0  0  0  0  0  0
   56.9812   45.7885   28.7719 C   0  0  0  0  0  0
   58.3223   46.0912   28.5403 C   0  0  0  0  0  0
   55.0838   45.2325   30.3237 C   0  0  0  0  0  0
   54.2085   45.8683   29.7384 O   0  0  0  0  0  0
   54.8080   44.3294   31.3006 O   0  0  0  0  0  0
   60.9823   46.9315   28.1863 O   0  0  0  0  0  0
   64.8261   44.7474   30.6027 H   0  0  0  0  0  0
   60.8595   47.3352   31.8537 H   0  0  0  0  0  0
   63.1193   45.2975   35.2954 H   0  0  0  0  0  0
   63.3617   46.8590   35.9866 H   0  0  0  0  0  0
   65.5072   45.9503   35.2844 H   0  0  0  0  0  0
   65.1472   47.3368   34.3152 H   0  0  0  0  0  0
   64.0061   44.2106   28.5389 H   0  0  0  0  0  0
   62.2638   44.2377   28.3318 H   0  0  0  0  0  0
   63.2164   45.6136   27.7919 H   0  0  0  0  0  0
   65.6193   43.6821   34.3590 H   0  0  0  0  0  0
   63.9014   43.6787   33.9768 H   0  0  0  0  0  0
   65.0732   43.3135   32.7336 H   0  0  0  0  0  0
   67.1624   45.6969   33.3661 H   0  0  0  0  0  0
   66.6379   45.1788   31.7836 H   0  0  0  0  0  0
   66.3991   46.8495   32.2796 H   0  0  0  0  0  0
   62.0071   48.8300   35.0345 H   0  0  0  0  0  0
   63.5154   48.8283   34.1390 H   0  0  0  0  0  0
   62.0079   48.9784   33.2836 H   0  0  0  0  0  0
   60.8070   46.5464   35.5248 H   0  0  0  0  0  0
   60.1630   46.8790   33.9328 H   0  0  0  0  0  0
   60.8749   45.3334   34.2501 H   0  0  0  0  0  0
   59.4698   45.6771   31.7021 H   0  0  0  0  0  0
   57.2095   45.0893   32.0896 H   0  0  0  0  0  0
   56.2810   45.8713   27.9528 H   0  0  0  0  0  0
   58.6201   46.3832   27.5435 H   0  0  0  0  0  0
   55.6171   43.8915   31.5717 H   0  0  0  0  0  0
  1  5  1  0  0  0
  1  2  2  0  0  0
  1 27  1  0  0  0
  2  3  1  0  0  0
  2 11  1  0  0  0
  3  4  2  0  0  0
  3 16  1  0  0  0
  4  6  1  0  0  0
  4 28  1  0  0  0
  5 10  1  0  0  0
  5  6  2  0  0  0
  6  7  1  0  0  0
  7 14  1  0  0  0
  7 15  1  0  0  0
  7  8  1  0  0  0
  8  9  1  0  0  0
  8 29  1  0  0  0
  8 30  1  0  0  0
  9 10  1  0  0  0
  9 31  1  0  0  0
  9 32  1  0  0  0
 10 13  1  0  0  0
 10 12  1  0  0  0
 11 33  1  0  0  0
 11 34  1  0  0  0
 11 35  1  0  0  0
 12 36  1  0  0  0
 12 37  1  0  0  0
 12 38  1  0  0  0
 13 39  1  0  0  0
 13 40  1  0  0  0
 13 41  1  0  0  0
 14 42  1  0  0  0
 14 43  1  0  0  0
 14 44  1  0  0  0
 15 45  1  0  0  0
 15 46  1  0  0  0
 15 47  1  0  0  0
 16 17  1  0  0  0
 16 26  2  0  0  0
 17 18  2  0  0  0
 17 22  1  0  0  0
 18 19  1  0  0  0
 18 48  1  0  0  0
 19 20  2  0  0  0
 19 49  1  0  0  0
 20 21  1  0  0  0
 20 23  1  0  0  0
 21 22  2  0  0  0
 21 50  1  0  0  0
 22 51  1  0  0  0
 23 24  2  0  0  0
 23 25  1  0  0  0
 25 52  1  0  0  0
M  END
> <s_m_entry_id>
31029

> <s_m_entry_name>
dock_pv.242

> <s_m_Source_Path>
/home/csk/Desktop/cluster/DUD-E-result/rxra

> <s_m_Source_File>
dock_pv.maegz

> <i_m_Source_File_Index>
242

> <chembl_id>
CHEMBL98172

> <chembl_pref_name>
None

> <i_lp_mmshare_version>
53161

> <r_lp_tautomer_probability>
1

> <s_lp_Force_Field>
OPLS_2005

> <r_lp_Energy>
33.51848

> <b_lp_Chiralities_Consistent>
1

> <s_lp_Variant>
CHEMBL2061_lig5-1

> <s_i_glide_gridfile>
glide-grid_1mv9

> <i_i_glide_lignum>
8

> <i_i_glide_rotatable_bonds>
4

> <r_i_docking_score>
-10.228884192405

> <r_i_glide_ligand_efficiency>
-0.393418622784809

> <r_i_glide_ligand_efficiency_sa>
-1.16550112197247

> <r_i_glide_ligand_efficiency_ln>
-2.40221988887971

> <r_i_glide_gscore>
-10.228884192405

> <r_i_glide_lipo>
-5.75563485101

> <r_i_glide_hbond>
-0.0737123059660674

> <r_i_glide_metal>
0

> <r_i_glide_rewards>
-2.3166333780584

> <r_i_glide_evdw>
-44.4547538757324

> <r_i_glide_ecoul>
-2.17177367210388

> <r_i_glide_erotb>
0.465600087231636

> <r_i_glide_esite>
0

> <r_i_glide_emodel>
-72.698260391246

> <r_i_glide_energy>
-46.6265275478363

> <r_i_glide_einternal>
3.31066250801086

> <i_i_glide_confnum>
25

> <i_i_glide_posenum>
303

> <r_i_glide_eff_state_penalty>
0

> <s_user_duplicate_titles>
CHEMBL2061_lig5,163325

> <i_f3d_flags>
0

> <s_m_subgroup_title>
dock_pv

> <s_m_subgroupid>
dock_pv

> <b_m_subgroup_collapsed>
1

$$$$
CHEMBL2061_lig296
                    3D
 Schrodinger Suite 2021-1.
 53 55  0  0  1  0            999 V2000
   63.1325   46.5408   32.9622 C   0  0  0  0  0  0
   64.0087   45.4769   32.6009 C   0  0  0  0  0  0
   62.2489   47.0189   31.9742 C   0  0  0  0  0  0
   63.9983   45.0192   31.2725 C   0  0  0  0  0  0
   62.1858   46.4811   30.6816 C   0  0  0  0  0  0
   63.0691   47.1242   34.4100 C   0  0  0  0  0  0
   64.9894   44.8302   33.6059 C   0  0  0  0  0  0
   55.6112   45.2769   29.8854 C   0  0  0  0  0  0
   63.0956   45.4839   30.3224 C   0  0  0  0  0  0
   57.0977   45.5061   29.7685 C   0  0  0  0  0  0
   61.1575   47.0192   29.6772 C   0  0  0  0  0  0
   64.5371   45.1185   35.0565 C   0  0  0  0  0  0
   64.2259   46.5835   35.2925 C   0  0  0  0  0  0
   54.8078   45.8153   29.1282 O   0  0  0  0  0  0
   57.9524   45.2771   30.8533 C   0  0  0  0  0  0
   57.6254   46.0734   28.6007 C   0  0  0  0  0  0
   59.7772   46.3480   29.6631 C   0  0  0  0  0  0
   55.2292   44.4770   30.9211 O   0  0  0  0  0  0
   58.9586   46.4773   28.5412 C   0  0  0  0  0  0
   59.2712   45.7083   30.7955 C   0  0  0  0  0  0
   63.2772   48.6507   34.4341 C   0  0  0  0  0  0
   61.7093   46.7452   35.0427 C   0  0  0  0  0  0
   64.9827   43.2857   33.5035 C   0  0  0  0  0  0
   66.4000   45.4217   33.3501 C   0  0  0  0  0  0
   63.0999   44.8554   28.9342 C   0  0  0  0  0  0
   61.5580   47.8066   32.2330 H   0  0  0  0  0  0
   64.6963   44.2562   30.9654 H   0  0  0  0  0  0
   61.5814   47.0107   28.6726 H   0  0  0  0  0  0
   60.9966   48.0761   29.8905 H   0  0  0  0  0  0
   63.6576   44.5302   35.3251 H   0  0  0  0  0  0
   65.3262   44.8172   35.7390 H   0  0  0  0  0  0
   64.0218   46.7579   36.3507 H   0  0  0  0  0  0
   65.1481   47.1264   35.0886 H   0  0  0  0  0  0
   57.6030   44.8770   31.7927 H   0  0  0  0  0  0
   56.9903   46.2282   27.7394 H   0  0  0  0  0  0
   56.0047   44.0986   31.3383 H   0  0  0  0  0  0
   59.3280   46.9590   27.6474 H   0  0  0  0  0  0
   59.8688   45.6771   31.6923 H   0  0  0  0  0  0
   63.1982   49.0345   35.4520 H   0  0  0  0  0  0
   64.2892   48.9026   34.1389 H   0  0  0  0  0  0
   62.5781   49.1951   33.7981 H   0  0  0  0  0  0
   61.6438   47.0684   36.0822 H   0  0  0  0  0  0
   60.8782   47.2156   34.5165 H   0  0  0  0  0  0
   61.5311   45.6770   35.0224 H   0  0  0  0  0  0
   65.7651   42.8818   34.1390 H   0  0  0  0  0  0
   64.0297   42.8459   33.8026 H   0  0  0  0  0  0
   65.2002   42.9112   32.5128 H   0  0  0  0  0  0
   67.1167   45.0964   34.1056 H   0  0  0  0  0  0
   66.7883   45.0992   32.3835 H   0  0  0  0  0  0
   66.4024   46.5122   33.3418 H   0  0  0  0  0  0
   63.6669   43.9243   28.9082 H   0  0  0  0  0  0
   62.0845   44.6079   28.6227 H   0  0  0  0  0  0
   63.5192   45.5458   28.2020 H   0  0  0  0  0  0
  1  2  2  0  0  0
  1  3  1  0  0  0
  1  6  1  0  0  0
  2  4  1  0  0  0
  2  7  1  0  0  0
  3  5  2  0  0  0
  3 26  1  0  0  0
  4  9  2  0  0  0
  4 27  1  0  0  0
  5  9  1  0  0  0
  5 11  1  0  0  0
  6 13  1  0  0  0
  6 21  1  0  0  0
  6 22  1  0  0  0
  7 23  1  0  0  0
  7 24  1  0  0  0
  7 12  1  0  0  0
  8 10  1  0  0  0
  8 14  2  0  0  0
  8 18  1  0  0  0
  9 25  1  0  0  0
 10 15  2  0  0  0
 10 16  1  0  0  0
 11 17  1  0  0  0
 11 28  1  0  0  0
 11 29  1  0  0  0
 12 13  1  0  0  0
 12 30  1  0  0  0
 12 31  1  0  0  0
 13 32  1  0  0  0
 13 33  1  0  0  0
 15 20  1  0  0  0
 15 34  1  0  0  0
 16 19  2  0  0  0
 16 35  1  0  0  0
 17 19  1  0  0  0
 17 20  2  0  0  0
 18 36  1  0  0  0
 19 37  1  0  0  0
 20 38  1  0  0  0
 21 39  1  0  0  0
 21 40  1  0  0  0
 21 41  1  0  0  0
 22 42  1  0  0  0
 22 43  1  0  0  0
 22 44  1  0  0  0
 23 45  1  0  0  0
 23 46  1  0  0  0
 23 47  1  0  0  0
 24 48  1  0  0  0
 24 49  1  0  0  0
 24 50  1  0  0  0
 25 51  1  0  0  0
 25 52  1  0  0  0
 25 53  1  0  0  0
M  END
> <s_m_entry_id>
31030

> <s_m_entry_name>
dock_pv.243

> <s_m_Source_Path>
/home/csk/Desktop/cluster/DUD-E-result/rxra

> <s_m_Source_File>
dock_pv.maegz

> <i_m_Source_File_Index>
243

> <chembl_id>
CHEMBL432587

> <chembl_pref_name>
None

> <i_lp_mmshare_version>
53161

> <r_lp_tautomer_probability>
1

> <s_lp_Force_Field>
OPLS_2005

> <r_lp_Energy>
24.123481

> <b_lp_Chiralities_Consistent>
1

> <s_lp_Variant>
CHEMBL2061_lig296-1

> <s_i_glide_gridfile>
glide-grid_1mv9

> <i_i_glide_lignum>
342

> <i_i_glide_rotatable_bonds>
4

> <r_i_docking_score>
-10.2115669397089

> <r_i_glide_ligand_efficiency>
-0.408462677588357

> <r_i_glide_ligand_efficiency_sa>
-1.19435211338479

> <r_i_glide_ligand_efficiency_ln>
-2.42044738067823

> <r_i_glide_gscore>
-10.2115669397089

> <r_i_glide_lipo>
-6.17795315955232

> <r_i_glide_hbond>
0

> <r_i_glide_metal>
0

> <r_i_glide_rewards>
-2.42251303593487

> <r_i_glide_evdw>
-40.1541023254395

> <r_i_glide_ecoul>
-0.692551970481873

> <r_i_glide_erotb>
0.500487167622524

> <r_i_glide_esite>
0

> <r_i_glide_emodel>
-58.1235617059172

> <r_i_glide_energy>
-40.8466542959213

> <r_i_glide_einternal>
2.66220474243164

> <i_i_glide_confnum>
2

> <i_i_glide_posenum>
337

> <r_i_glide_eff_state_penalty>
0

> <s_user_duplicate_titles>
CHEMBL2061_lig296,176490

> <i_f3d_flags>
0

> <s_m_subgroup_title>
dock_pv

> <s_m_subgroupid>
dock_pv

> <b_m_subgroup_collapsed>
1

$$$$
CHEMBL2061_lig507
                    3D
 Schrodinger Suite 2021-1.
 63 64  0  0  1  0            999 V2000
   63.4783   46.7581   29.9169 C   0  0  0  0  0  0
   62.4090   47.2897   29.2636 C   0  0  0  0  0  0
   62.1685   47.3816   27.8297 C   0  0  0  0  0  0
   60.9135   47.2872   27.3311 C   0  0  0  0  0  0
   63.3087   47.7367   26.8835 C   0  0  0  0  0  0
   59.6653   46.9967   28.0302 C   0  0  0  0  0  0
   59.4301   45.9716   28.8760 C   0  0  0  0  0  0
   58.1354   45.6858   29.5028 C   0  0  0  0  0  0
   56.9937   45.8561   28.7843 C   0  0  0  0  0  0
   58.1432   45.2791   30.9675 C   0  0  0  0  0  0
   55.6386   45.6749   29.2558 C   0  0  0  0  0  0
   54.7910   46.5258   28.6149 O   0  0  0  0  0  0
   55.2668   44.8747   30.1122 O   0  0  0  0  0  0
   64.5226   45.9155   29.1613 C   0  0  0  0  0  0
   65.2889   44.9399   30.0893 C   0  0  0  0  0  0
   65.7786   45.6511   31.3405 C   0  0  0  0  0  0
   63.5830   46.8616   31.3936 C   0  0  0  0  0  0
   64.5656   46.1928   32.0642 C   0  0  0  0  0  0
   62.5145   47.6429   32.1675 C   0  0  0  0  0  0
   61.3008   46.7866   32.5168 C   0  0  0  0  0  0
   64.5696   46.0117   33.5244 C   0  0  0  0  0  0
   64.3991   44.7066   33.9891 C   0  0  0  0  0  0
   64.1878   44.4774   35.3390 C   0  0  0  0  0  0
   64.1798   45.5438   36.2298 C   0  0  0  0  0  0
   64.4080   46.8372   35.7827 C   0  0  0  0  0  0
   64.6535   47.0686   34.4343 C   0  0  0  0  0  0
   61.1780   46.3528   33.9844 C   0  0  0  0  0  0
   59.9083   45.5455   34.1391 C   0  0  0  0  0  0
   61.2030   47.4645   35.0567 C   0  0  0  0  0  0
   61.6164   47.7427   29.8324 H   0  0  0  0  0  0
   60.8069   47.4405   26.2679 H   0  0  0  0  0  0
   63.9634   48.4683   27.3592 H   0  0  0  0  0  0
   63.9172   46.8767   26.6216 H   0  0  0  0  0  0
   62.9504   48.2179   25.9732 H   0  0  0  0  0  0
   58.8542   47.6753   27.8407 H   0  0  0  0  0  0
   60.2512   45.3035   29.0994 H   0  0  0  0  0  0
   57.0608   46.1463   27.7470 H   0  0  0  0  0  0
   58.8994   45.8641   31.4773 H   0  0  0  0  0  0
   57.2228   45.5006   31.5045 H   0  0  0  0  0  0
   58.4073   44.2274   31.0732 H   0  0  0  0  0  0
   55.2634   47.0895   28.0009 H   0  0  0  0  0  0
   64.0242   45.3195   28.3961 H   0  0  0  0  0  0
   65.2077   46.5659   28.6235 H   0  0  0  0  0  0
   64.6552   44.0914   30.3549 H   0  0  0  0  0  0
   66.1757   44.5364   29.6075 H   0  0  0  0  0  0
   66.4087   46.4774   31.0280 H   0  0  0  0  0  0
   66.3705   44.9749   31.9596 H   0  0  0  0  0  0
   62.9219   48.1329   33.0377 H   0  0  0  0  0  0
   62.2058   48.5189   31.6007 H   0  0  0  0  0  0
   60.4079   47.3014   32.2220 H   0  0  0  0  0  0
   61.2967   45.8989   31.8814 H   0  0  0  0  0  0
   64.3507   43.8760   33.2992 H   0  0  0  0  0  0
   64.0075   43.4723   35.6923 H   0  0  0  0  0  0
   64.0168   45.3589   37.2813 H   0  0  0  0  0  0
   64.4060   47.6572   36.4847 H   0  0  0  0  0  0
   64.8309   48.0782   34.0969 H   0  0  0  0  0  0
   62.0008   45.6791   34.1903 H   0  0  0  0  0  0
   59.0272   46.1820   34.1389 H   0  0  0  0  0  0
   59.7146   44.8768   33.3391 H   0  0  0  0  0  0
   60.0080   44.9022   35.0078 H   0  0  0  0  0  0
   60.3086   48.0765   35.0226 H   0  0  0  0  0  0
   61.2385   47.0269   36.0542 H   0  0  0  0  0  0
   62.0579   48.1318   34.9810 H   0  0  0  0  0  0
  1  2  2  0  0  0
  1 14  1  0  0  0
  1 17  1  0  0  0
  2  3  1  0  0  0
  2 30  1  0  0  0
  3  4  2  0  0  0
  3  5  1  0  0  0
  4  6  1  0  0  0
  4 31  1  0  0  0
  5 32  1  0  0  0
  5 33  1  0  0  0
  5 34  1  0  0  0
  6  7  2  0  0  0
  6 35  1  0  0  0
  7  8  1  0  0  0
  7 36  1  0  0  0
  8  9  2  0  0  0
  8 10  1  0  0  0
  9 11  1  0  0  0
  9 37  1  0  0  0
 10 38  1  0  0  0
 10 39  1  0  0  0
 10 40  1  0  0  0
 11 12  1  0  0  0
 11 13  2  0  0  0
 12 41  1  0  0  0
 14 15  1  0  0  0
 14 42  1  0  0  0
 14 43  1  0  0  0
 15 16  1  0  0  0
 15 44  1  0  0  0
 15 45  1  0  0  0
 16 18  1  0  0  0
 16 46  1  0  0  0
 16 47  1  0  0  0
 17 18  2  0  0  0
 17 19  1  0  0  0
 18 21  1  0  0  0
 19 20  1  0  0  0
 19 48  1  0  0  0
 19 49  1  0  0  0
 20 27  1  0  0  0
 20 50  1  0  0  0
 20 51  1  0  0  0
 21 22  2  0  0  0
 21 26  1  0  0  0
 22 23  1  0  0  0
 22 52  1  0  0  0
 23 24  2  0  0  0
 23 53  1  0  0  0
 24 25  1  0  0  0
 24 54  1  0  0  0
 25 26  2  0  0  0
 25 55  1  0  0  0
 26 56  1  0  0  0
 27 28  1  0  0  0
 27 29  1  0  0  0
 27 57  1  0  0  0
 28 58  1  0  0  0
 28 59  1  0  0  0
 28 60  1  0  0  0
 29 61  1  0  0  0
 29 62  1  0  0  0
 29 63  1  0  0  0
M  END
> <s_m_entry_id>
31031

> <s_m_entry_name>
dock_pv.244

> <s_m_Source_Path>
/home/csk/Desktop/cluster/DUD-E-result/rxra

> <s_m_Source_File>
dock_pv.maegz

> <i_m_Source_File_Index>
244

> <chembl_id>
CHEMBL3622725

> <chembl_pref_name>
None

> <i_lp_mmshare_version>
53161

> <r_lp_tautomer_probability>
1

> <s_lp_Force_Field>
OPLS_2005

> <r_lp_Energy>
39.805074

> <b_lp_Chiralities_Consistent>
1

> <s_lp_Variant>
CHEMBL2061_lig507-1

> <s_i_glide_gridfile>
glide-grid_1mv9

> <i_i_glide_lignum>
600

> <i_i_glide_rotatable_bonds>
9

> <r_i_docking_score>
-10.208017096867

> <r_i_glide_ligand_efficiency>
-0.352000589547137

> <r_i_glide_ligand_efficiency_sa>
-1.08145733270315

> <r_i_glide_ligand_efficiency_ln>
-2.33737706220341

> <r_i_glide_gscore>
-10.208017096867

> <r_i_glide_lipo>
-6.85003350220045

> <r_i_glide_hbond>
0

> <r_i_glide_metal>
0

> <r_i_glide_rewards>
-2.03982457720701

> <r_i_glide_evdw>
-39.8233947753906

> <r_i_glide_ecoul>
-1.48083353042603

> <r_i_glide_erotb>
0.89513575087392

> <r_i_glide_esite>
0

> <r_i_glide_emodel>
-40.7469433880843

> <r_i_glide_energy>
-41.3042283058167

> <r_i_glide_einternal>
11.5429048538208

> <i_i_glide_confnum>
196

> <i_i_glide_posenum>
333

> <r_i_glide_eff_state_penalty>
0

> <s_user_duplicate_titles>
CHEMBL2061_lig507

> <i_f3d_flags>
0

> <s_m_subgroup_title>
dock_pv

> <s_m_subgroupid>
dock_pv

> <b_m_subgroup_collapsed>
1

$$$$
CHEMBL2061_lig311
                    3D
 Schrodinger Suite 2021-1.
 62 64  0  0  1  0            999 V2000
   62.8718   46.4683   31.1742 C   0  0  0  0  0  0
   58.6953   45.9907   29.7957 C   0  0  0  0  0  0
   60.9756   46.5619   29.5563 C   0  0  0  0  0  0
   59.9394   46.0677   30.4006 C   0  0  0  0  0  0
   58.8084   46.4770   28.1390 S   0  0  0  0  0  0
   63.0345   46.8113   33.6042 C   0  0  0  0  0  0
   62.3393   46.7729   29.8249 C   0  0  0  0  0  0
   62.5752   47.2324   32.3241 C   0  0  0  0  0  0
   60.4880   46.8767   28.2688 C   0  0  0  0  0  0
   63.6183   45.3131   31.2898 C   0  0  0  0  0  0
   64.0080   44.8427   32.5373 C   0  0  0  0  0  0
   57.3952   45.6232   30.3831 C   0  0  0  0  0  0
   63.7063   45.5949   33.6627 C   0  0  0  0  0  0
   56.2384   45.6312   29.6634 C   0  0  0  0  0  0
   54.9084   45.3472   30.1364 C   0  0  0  0  0  0
   62.9198   47.6252   34.9283 C   0  0  0  0  0  0
   64.6638   43.4868   32.7287 C   0  0  0  0  0  0
   54.5928   44.4768   30.9390 O   0  0  0  0  0  0
   54.0082   46.1872   29.5543 O   0  0  0  0  0  0
   63.1701   47.1921   28.7803 C   0  0  0  0  0  0
   61.7867   48.5084   32.0842 C   0  0  0  0  0  0
   61.3042   47.4154   27.2711 C   0  0  0  0  0  0
   57.4986   45.3071   31.8696 C   0  0  0  0  0  0
   62.6605   47.5408   27.5376 C   0  0  0  0  0  0
   63.6093   48.9788   34.7203 C   0  0  0  0  0  0
   63.6935   47.0043   36.1326 C   0  0  0  0  0  0
   61.4580   47.7451   35.3974 C   0  0  0  0  0  0
   64.6807   42.6532   31.4058 C   0  0  0  0  0  0
   63.9294   42.6387   33.7715 C   0  0  0  0  0  0
   66.0328   43.7326   33.3726 C   0  0  0  0  0  0
   60.1287   45.7997   31.4279 H   0  0  0  0  0  0
   63.8062   44.7532   30.3874 H   0  0  0  0  0  0
   64.0236   45.1897   34.6043 H   0  0  0  0  0  0
   56.2525   45.8801   28.6140 H   0  0  0  0  0  0
   54.4532   46.7785   28.9427 H   0  0  0  0  0  0
   64.2327   47.2742   28.9380 H   0  0  0  0  0  0
   61.6082   49.1523   32.9266 H   0  0  0  0  0  0
   62.3080   49.1051   31.3365 H   0  0  0  0  0  0
   60.8080   48.2617   31.6875 H   0  0  0  0  0  0
   60.9048   47.6770   26.3012 H   0  0  0  0  0  0
   58.0541   46.0771   32.4043 H   0  0  0  0  0  0
   56.5224   45.2772   32.3411 H   0  0  0  0  0  0
   58.0082   44.3549   32.0219 H   0  0  0  0  0  0
   63.3285   47.8998   26.7672 H   0  0  0  0  0  0
   63.0632   49.6949   34.1389 H   0  0  0  0  0  0
   63.8656   49.4774   35.6565 H   0  0  0  0  0  0
   64.5188   48.8139   34.1430 H   0  0  0  0  0  0
   63.2998   46.0305   36.4258 H   0  0  0  0  0  0
   64.7540   46.8745   35.9110 H   0  0  0  0  0  0
   63.6406   47.6453   37.0107 H   0  0  0  0  0  0
   61.0695   46.7825   35.7331 H   0  0  0  0  0  0
   61.3512   48.4482   36.2250 H   0  0  0  0  0  0
   60.8080   48.0707   34.6018 H   0  0  0  0  0  0
   65.2079   43.1555   30.5939 H   0  0  0  0  0  0
   65.1448   41.6771   31.5121 H   0  0  0  0  0  0
   63.6672   42.4582   31.0520 H   0  0  0  0  0  0
   64.0081   43.0087   34.7945 H   0  0  0  0  0  0
   62.8856   42.4770   33.5737 H   0  0  0  0  0  0
   64.4088   41.6770   33.7389 H   0  0  0  0  0  0
   65.9892   44.3560   34.2657 H   0  0  0  0  0  0
   66.4080   42.7811   33.7390 H   0  0  0  0  0  0
   66.7425   44.2300   32.7132 H   0  0  0  0  0  0
  1  7  1  0  0  0
  1  8  1  0  0  0
  1 10  2  0  0  0
  2  4  2  0  0  0
  2 12  1  0  0  0
  2  5  1  0  0  0
  3  7  1  0  0  0
  3  4  1  0  0  0
  3  9  2  0  0  0
  4 31  1  0  0  0
  5  9  1  0  0  0
  6  8  2  0  0  0
  6 16  1  0  0  0
  6 13  1  0  0  0
  7 20  2  0  0  0
  8 21  1  0  0  0
  9 22  1  0  0  0
 10 11  1  0  0  0
 10 32  1  0  0  0
 11 13  2  0  0  0
 11 17  1  0  0  0
 12 14  2  0  0  0
 12 23  1  0  0  0
 13 33  1  0  0  0
 14 15  1  0  0  0
 14 34  1  0  0  0
 15 18  2  0  0  0
 15 19  1  0  0  0
 16 25  1  0  0  0
 16 26  1  0  0  0
 16 27  1  0  0  0
 17 28  1  0  0  0
 17 29  1  0  0  0
 17 30  1  0  0  0
 19 35  1  0  0  0
 20 24  1  0  0  0
 20 36  1  0  0  0
 21 37  1  0  0  0
 21 38  1  0  0  0
 21 39  1  0  0  0
 22 24  2  0  0  0
 22 40  1  0  0  0
 23 41  1  0  0  0
 23 42  1  0  0  0
 23 43  1  0  0  0
 24 44  1  0  0  0
 25 45  1  0  0  0
 25 46  1  0  0  0
 25 47  1  0  0  0
 26 48  1  0  0  0
 26 49  1  0  0  0
 26 50  1  0  0  0
 27 51  1  0  0  0
 27 52  1  0  0  0
 27 53  1  0  0  0
 28 54  1  0  0  0
 28 55  1  0  0  0
 28 56  1  0  0  0
 29 57  1  0  0  0
 29 58  1  0  0  0
 29 59  1  0  0  0
 30 60  1  0  0  0
 30 61  1  0  0  0
 30 62  1  0  0  0
M  END
> <s_m_entry_id>
31032

> <s_m_entry_name>
dock_pv.245

> <s_m_Source_Path>
/home/csk/Desktop/cluster/DUD-E-result/rxra

> <s_m_Source_File>
dock_pv.maegz

> <i_m_Source_File_Index>
245

> <chembl_id>
CHEMBL44420

> <chembl_pref_name>
None

> <i_lp_mmshare_version>
53161

> <r_lp_tautomer_probability>
1

> <s_lp_Force_Field>
OPLS_2005

> <r_lp_Energy>
41.488383

> <b_lp_Chiralities_Consistent>
1

> <s_lp_Variant>
CHEMBL2061_lig311-1

> <s_i_glide_gridfile>
glide-grid_1mv9

> <i_i_glide_lignum>
359

> <i_i_glide_rotatable_bonds>
6

> <r_i_docking_score>
-10.2046140198221

> <r_i_glide_ligand_efficiency>
-0.340153800660735

> <r_i_glide_ligand_efficiency_sa>
-1.0569369452385

> <r_i_glide_ligand_efficiency_ln>
-2.31859949347879

> <r_i_glide_gscore>
-10.2046140198221

> <r_i_glide_lipo>
-6.5926169708525

> <r_i_glide_hbond>
-0.254510376261678

> <r_i_glide_metal>
0

> <r_i_glide_rewards>
-1.88958546922028

> <r_i_glide_evdw>
-24.9657325744629

> <r_i_glide_ecoul>
-3.70182943344116

> <r_i_glide_erotb>
0.335659840251715

> <r_i_glide_esite>
0

> <r_i_glide_emodel>
-44.2020464713825

> <r_i_glide_energy>
-28.6675620079041

> <r_i_glide_einternal>
4.30427312850952

> <i_i_glide_confnum>
10

> <i_i_glide_posenum>
122

> <r_i_glide_eff_state_penalty>
0

> <s_user_duplicate_titles>
CHEMBL2061_lig311,61071

> <i_f3d_flags>
0

> <s_m_subgroup_title>
dock_pv

> <s_m_subgroupid>
dock_pv

> <b_m_subgroup_collapsed>
1

$$$$
CHEMBL2061_lig21
                    3D
 Schrodinger Suite 2021-1.
 54 56  0  0  1  0            999 V2000
   64.8505   46.3002   34.7421 C   0  0  0  0  0  0
   63.3886   46.3024   35.1923 C   0  0  0  0  0  0
   62.4330   46.9397   34.1487 C   0  0  0  0  0  0
   65.0734   45.4676   33.4553 C   0  0  0  0  0  0
   64.0011   45.8119   32.3905 C   0  0  0  0  0  0
   62.7820   46.4743   32.7098 C   0  0  0  0  0  0
   61.8528   46.6899   31.6742 C   0  0  0  0  0  0
   62.0309   46.2196   30.3686 C   0  0  0  0  0  0
   63.2346   45.5743   30.0808 C   0  0  0  0  0  0
   64.1942   45.3881   31.0662 C   0  0  0  0  0  0
   64.9584   43.9600   33.7976 C   0  0  0  0  0  0
   66.4855   45.8425   32.9465 C   0  0  0  0  0  0
   62.5791   48.4769   34.2330 C   0  0  0  0  0  0
   61.0058   46.4618   34.5324 C   0  0  0  0  0  0
   61.0029   46.3358   29.3893 N   0  0  0  0  0  0
   61.4583   46.7517   28.0473 C   0  0  0  0  0  0
   61.1760   48.2306   27.7537 C   0  0  0  0  0  0
   59.6100   46.0770   29.5778 C   0  0  0  0  0  0
   58.6648   46.1561   28.5390 C   0  0  0  0  0  0
   57.3345   45.8001   28.7737 C   0  0  0  0  0  0
   56.9415   45.3590   30.0397 C   0  0  0  0  0  0
   57.9173   45.3175   31.0353 C   0  0  0  0  0  0
   59.2050   45.6770   30.8132 N   0  0  0  0  0  0
   55.5084   45.0440   30.3537 C   0  0  0  0  0  0
   55.0100   45.2770   31.4474 O   0  0  0  0  0  0
   54.8080   44.4770   29.3390 O   0  0  0  0  0  0
   65.4801   45.9239   35.5504 H   0  0  0  0  0  0
   65.1771   47.3291   34.5864 H   0  0  0  0  0  0
   63.0923   45.2770   35.4140 H   0  0  0  0  0  0
   63.3056   46.8284   36.1435 H   0  0  0  0  0  0
   60.9408   47.2175   31.9034 H   0  0  0  0  0  0
   63.4239   45.1561   29.1040 H   0  0  0  0  0  0
   65.0898   44.8513   30.7933 H   0  0  0  0  0  0
   65.6410   43.6778   34.5998 H   0  0  0  0  0  0
   63.9523   43.6755   34.1061 H   0  0  0  0  0  0
   65.2080   43.3371   32.9390 H   0  0  0  0  0  0
   67.2308   45.7253   33.7344 H   0  0  0  0  0  0
   66.8075   45.2085   32.1211 H   0  0  0  0  0  0
   66.5313   46.8770   32.6043 H   0  0  0  0  0  0
   62.2224   48.8372   35.1967 H   0  0  0  0  0  0
   63.6104   48.8114   34.1390 H   0  0  0  0  0  0
   62.0080   48.9871   33.4581 H   0  0  0  0  0  0
   60.8080   46.6144   35.5941 H   0  0  0  0  0  0
   60.2268   46.9932   33.9941 H   0  0  0  0  0  0
   60.8522   45.4049   34.3158 H   0  0  0  0  0  0
   62.5272   46.6060   27.9000 H   0  0  0  0  0  0
   60.9963   46.1265   27.2829 H   0  0  0  0  0  0
   61.5023   48.4770   26.7469 H   0  0  0  0  0  0
   60.1176   48.4770   27.8284 H   0  0  0  0  0  0
   61.7206   48.8770   28.4413 H   0  0  0  0  0  0
   58.9326   46.4766   27.5459 H   0  0  0  0  0  0
   56.6214   45.8892   27.9664 H   0  0  0  0  0  0
   57.6788   45.0266   32.0488 H   0  0  0  0  0  0
   55.3597   44.1811   28.6098 H   0  0  0  0  0  0
  1  4  1  0  0  0
  1  2  1  0  0  0
  1 27  1  0  0  0
  1 28  1  0  0  0
  2  3  1  0  0  0
  2 29  1  0  0  0
  2 30  1  0  0  0
  3 13  1  0  0  0
  3 14  1  0  0  0
  3  6  1  0  0  0
  4  5  1  0  0  0
  4 11  1  0  0  0
  4 12  1  0  0  0
  5  6  2  0  0  0
  5 10  1  0  0  0
  6  7  1  0  0  0
  7  8  2  0  0  0
  7 31  1  0  0  0
  8 15  1  0  0  0
  8  9  1  0  0  0
  9 10  2  0  0  0
  9 32  1  0  0  0
 10 33  1  0  0  0
 11 34  1  0  0  0
 11 35  1  0  0  0
 11 36  1  0  0  0
 12 37  1  0  0  0
 12 38  1  0  0  0
 12 39  1  0  0  0
 13 40  1  0  0  0
 13 41  1  0  0  0
 13 42  1  0  0  0
 14 43  1  0  0  0
 14 44  1  0  0  0
 14 45  1  0  0  0
 15 16  1  0  0  0
 15 18  1  0  0  0
 16 17  1  0  0  0
 16 46  1  0  0  0
 16 47  1  0  0  0
 17 48  1  0  0  0
 17 49  1  0  0  0
 17 50  1  0  0  0
 18 19  2  0  0  0
 18 23  1  0  0  0
 19 20  1  0  0  0
 19 51  1  0  0  0
 20 21  2  0  0  0
 20 52  1  0  0  0
 21 22  1  0  0  0
 21 24  1  0  0  0
 22 23  2  0  0  0
 22 53  1  0  0  0
 24 25  2  0  0  0
 24 26  1  0  0  0
 26 54  1  0  0  0
M  END
> <s_m_entry_id>
31034

> <s_m_entry_name>
dock_pv.247

> <s_m_Source_Path>
/home/csk/Desktop/cluster/DUD-E-result/rxra

> <s_m_Source_File>
dock_pv.maegz

> <i_m_Source_File_Index>
247

> <chembl_id>
CHEMBL1221641

> <chembl_pref_name>
None

> <i_lp_mmshare_version>
53161

> <r_lp_tautomer_probability>
1

> <s_lp_Force_Field>
OPLS_2005

> <r_lp_Energy>
26.169969

> <b_lp_Chiralities_Consistent>
1

> <s_lp_Variant>
CHEMBL2061_lig21-1

> <s_i_glide_gridfile>
glide-grid_1mv9

> <i_i_glide_lignum>
25

> <i_i_glide_rotatable_bonds>
5

> <r_i_docking_score>
-10.1993157214533

> <r_i_glide_ligand_efficiency>
-0.39228137390205

> <r_i_glide_ligand_efficiency_sa>
-1.16213202663215

> <r_i_glide_ligand_efficiency_ln>
-2.39527583049876

> <r_i_glide_gscore>
-10.1993157214533

> <r_i_glide_lipo>
-6.00381654011913

> <r_i_glide_hbond>
0

> <r_i_glide_metal>
0

> <r_i_glide_rewards>
-1.85804523154699

> <r_i_glide_evdw>
-45.9161758422852

> <r_i_glide_ecoul>
-3.35008072853088

> <r_i_glide_erotb>
0.460866951606708

> <r_i_glide_esite>
0

> <r_i_glide_emodel>
-73.2006840527592

> <r_i_glide_energy>
-49.266256570816

> <r_i_glide_einternal>
10.4288311004639

> <i_i_glide_confnum>
32

> <i_i_glide_posenum>
270

> <r_i_glide_eff_state_penalty>
0

> <s_user_duplicate_titles>
CHEMBL2061_lig21,688069

> <i_f3d_flags>
0

> <s_m_subgroup_title>
dock_pv

> <s_m_subgroupid>
dock_pv

> <b_m_subgroup_collapsed>
1

$$$$
CHEMBL2061_lig295
                    3D
 Schrodinger Suite 2021-1.
 54 56  0  0  1  0            999 V2000
   63.1205   46.5949   33.1446 C   0  0  0  0  0  0
   64.2171   45.7809   32.7496 C   0  0  0  0  0  0
   62.2435   46.4773   30.8557 C   0  0  0  0  0  0
   61.0329   46.5810   30.0233 C   0  0  0  0  0  0
   62.2022   46.9754   32.1591 C   0  0  0  0  0  0
   64.2784   45.3368   31.4191 C   0  0  0  0  0  0
   63.3006   45.6479   30.4892 C   0  0  0  0  0  0
   59.9350   46.0089   30.5605 C   0  0  0  0  0  0
   65.3009   45.3243   33.7441 C   0  0  0  0  0  0
   62.9023   47.0827   34.6025 C   0  0  0  0  0  0
   54.4080   46.0094   29.3415 C   0  0  0  0  0  0
   55.8580   45.7504   29.5460 C   0  0  0  0  0  0
   63.8636   46.3634   35.5833 C   0  0  0  0  0  0
   65.2633   46.2256   34.9925 C   0  0  0  0  0  0
   53.9689   46.8770   28.5879 O   0  0  0  0  0  0
   58.5707   45.7687   30.0881 C   0  0  0  0  0  0
   56.3162   45.2771   30.7760 C   0  0  0  0  0  0
   56.7617   46.0770   28.5390 C   0  0  0  0  0  0
   63.3728   44.8896   28.9391 Cl  0  0  0  0  0  0
   53.6080   45.1862   30.0705 O   0  0  0  0  0  0
   57.6736   45.2770   31.0394 C   0  0  0  0  0  0
   58.1237   46.0781   28.8047 C   0  0  0  0  0  0
   61.1282   47.2974   28.6852 C   0  0  0  0  0  0
   63.2069   48.5952   34.6448 C   0  0  0  0  0  0
   65.0312   43.8527   34.1385 C   0  0  0  0  0  0
   66.7015   45.5149   33.1300 C   0  0  0  0  0  0
   61.4655   46.7449   35.0835 C   0  0  0  0  0  0
   61.3655   47.5974   32.4393 H   0  0  0  0  0  0
   65.0636   44.6686   31.1025 H   0  0  0  0  0  0
   60.0737   45.6770   31.5746 H   0  0  0  0  0  0
   63.4894   45.3735   35.8460 H   0  0  0  0  0  0
   63.9178   46.8997   36.5326 H   0  0  0  0  0  0
   65.9604   45.8613   35.7390 H   0  0  0  0  0  0
   65.6086   47.2228   34.7256 H   0  0  0  0  0  0
   55.6350   44.9926   31.5655 H   0  0  0  0  0  0
   56.4079   46.3991   27.5702 H   0  0  0  0  0  0
   52.7082   45.2768   29.7531 H   0  0  0  0  0  0
   58.0079   44.9941   32.0277 H   0  0  0  0  0  0
   58.7975   46.3935   28.0258 H   0  0  0  0  0  0
   61.1838   46.5772   27.8687 H   0  0  0  0  0  0
   60.2749   47.9570   28.5275 H   0  0  0  0  0  0
   62.0270   47.9139   28.6404 H   0  0  0  0  0  0
   63.2079   48.9770   35.6664 H   0  0  0  0  0  0
   64.1747   48.8307   34.2083 H   0  0  0  0  0  0
   62.4670   49.1588   34.0768 H   0  0  0  0  0  0
   65.7039   43.5363   34.9340 H   0  0  0  0  0  0
   64.0094   43.6874   34.4807 H   0  0  0  0  0  0
   65.1939   43.1786   33.2968 H   0  0  0  0  0  0
   67.4909   45.2532   33.8362 H   0  0  0  0  0  0
   66.8209   44.8770   32.2584 H   0  0  0  0  0  0
   66.8633   46.5459   32.8118 H   0  0  0  0  0  0
   61.3232   47.0167   36.1304 H   0  0  0  0  0  0
   60.6987   47.2774   34.5233 H   0  0  0  0  0  0
   61.2480   45.6797   34.9906 H   0  0  0  0  0  0
  1  2  2  0  0  0
  1  5  1  0  0  0
  1 10  1  0  0  0
  2  6  1  0  0  0
  2  9  1  0  0  0
  3  5  2  0  0  0
  3  4  1  0  0  0
  3  7  1  0  0  0
  4  8  2  0  0  0
  4 23  1  0  0  0
  5 28  1  0  0  0
  6  7  2  0  0  0
  6 29  1  0  0  0
  7 19  1  0  0  0
  8 16  1  0  0  0
  8 30  1  0  0  0
  9 25  1  0  0  0
  9 26  1  0  0  0
  9 14  1  0  0  0
 10 13  1  0  0  0
 10 24  1  0  0  0
 10 27  1  0  0  0
 11 12  1  0  0  0
 11 15  2  0  0  0
 11 20  1  0  0  0
 12 18  1  0  0  0
 12 17  2  0  0  0
 13 14  1  0  0  0
 13 31  1  0  0  0
 13 32  1  0  0  0
 14 33  1  0  0  0
 14 34  1  0  0  0
 16 21  2  0  0  0
 16 22  1  0  0  0
 17 21  1  0  0  0
 17 35  1  0  0  0
 18 22  2  0  0  0
 18 36  1  0  0  0
 20 37  1  0  0  0
 21 38  1  0  0  0
 22 39  1  0  0  0
 23 40  1  0  0  0
 23 41  1  0  0  0
 23 42  1  0  0  0
 24 43  1  0  0  0
 24 44  1  0  0  0
 24 45  1  0  0  0
 25 46  1  0  0  0
 25 47  1  0  0  0
 25 48  1  0  0  0
 26 49  1  0  0  0
 26 50  1  0  0  0
 26 51  1  0  0  0
 27 52  1  0  0  0
 27 53  1  0  0  0
 27 54  1  0  0  0
M  END
> <s_m_entry_id>
31035

> <s_m_entry_name>
dock_pv.248

> <s_m_Source_Path>
/home/csk/Desktop/cluster/DUD-E-result/rxra

> <s_m_Source_File>
dock_pv.maegz

> <i_m_Source_File_Index>
248

> <chembl_id>
CHEMBL36464

> <chembl_pref_name>
None

> <i_lp_mmshare_version>
53161

> <r_lp_tautomer_probability>
1

> <s_lp_Force_Field>
OPLS_2005

> <r_lp_Energy>
34.916044

> <b_lp_Chiralities_Consistent>
1

> <s_lp_Variant>
CHEMBL2061_lig295-1

> <s_i_glide_gridfile>
glide-grid_1mv9

> <i_i_glide_lignum>
341

> <i_i_glide_rotatable_bonds>
4

> <r_i_docking_score>
-10.18869076843

> <r_i_glide_ligand_efficiency>
-0.377358917349261

> <r_i_glide_ligand_efficiency_sa>
-1.13207675080407

> <r_i_glide_ligand_efficiency_ln>
-2.37175923719534

> <r_i_glide_gscore>
-10.18869076843

> <r_i_glide_lipo>
-6.66043373906411

> <r_i_glide_hbond>
-0.0419281293035024

> <r_i_glide_metal>
0

> <r_i_glide_rewards>
-1.62667598376291

> <r_i_glide_evdw>
-43.9207458496094

> <r_i_glide_ecoul>
-0.226940661668777

> <r_i_glide_erotb>
0.397464776367568

> <r_i_glide_esite>
-0.0270393009363162

> <r_i_glide_emodel>
-54.9591034200946

> <r_i_glide_energy>
-44.1476865112782

> <r_i_glide_einternal>
6.76287794113159

> <i_i_glide_confnum>
25

> <i_i_glide_posenum>
377

> <r_i_glide_eff_state_penalty>
0

> <s_user_duplicate_titles>
CHEMBL2061_lig295,47698

> <i_f3d_flags>
0

> <s_m_subgroup_title>
dock_pv

> <s_m_subgroupid>
dock_pv

> <b_m_subgroup_collapsed>
1

$$$$
CHEMBL2061_lig301
                    3D
 Schrodinger Suite 2021-1.
 56 58  0  0  1  0            999 V2000
   62.8104   46.4317   32.3737 C   0  0  0  0  0  0
   63.8053   45.4381   32.1619 C   0  0  0  0  0  0
   61.9289   46.0238   30.1072 C   0  0  0  0  0  0
   61.9197   46.7068   31.3248 C   0  0  0  0  0  0
   63.8760   44.8369   30.8929 C   0  0  0  0  0  0
   62.9442   45.0847   29.8847 C   0  0  0  0  0  0
   64.7903   44.9842   33.2735 C   0  0  0  0  0  0
   62.5653   47.0768   33.7594 C   0  0  0  0  0  0
   60.8682   46.3719   29.0422 C   0  0  1  0  0  0
   55.1712   45.4096   30.0274 C   0  0  0  0  0  0
   56.6508   45.5414   29.7987 C   0  0  0  0  0  0
   59.3917   46.0479   29.3607 C   0  0  0  0  0  0
   63.8089   46.9044   34.6716 C   0  0  0  0  0  0
   64.3368   45.4742   34.6768 C   0  0  0  0  0  0
   54.3401   46.0896   29.4279 O   0  0  0  0  0  0
   57.5755   45.3944   30.8421 C   0  0  0  0  0  0
   57.1107   45.9145   28.5391 C   0  0  0  0  0  0
   58.9260   45.6771   30.6269 C   0  0  0  0  0  0
   58.4680   46.1253   28.3213 C   0  0  0  0  0  0
   54.8313   44.4748   30.9475 O   0  0  0  0  0  0
   63.0345   44.2819   28.5943 C   0  0  0  0  0  0
   62.3084   48.6005   33.6845 C   0  0  0  0  0  0
   61.3401   46.3455   34.3683 C   0  0  0  0  0  0
   64.8074   43.4367   33.3873 C   0  0  0  0  0  0
   66.1823   45.5801   32.9507 C   0  0  0  0  0  0
   61.0395   47.8373   28.6093 C   0  0  0  0  0  0
   61.1281   47.4188   31.4868 H   0  0  0  0  0  0
   64.6493   44.1101   30.6986 H   0  0  0  0  0  0
   61.0751   45.7882   28.1467 H   0  0  0  0  0  0
   63.5767   47.2138   35.6921 H   0  0  0  0  0  0
   64.6172   47.5630   34.3489 H   0  0  0  0  0  0
   63.5498   44.8348   35.0776 H   0  0  0  0  0  0
   65.1561   45.3868   35.3933 H   0  0  0  0  0  0
   57.2568   45.1649   31.8479 H   0  0  0  0  0  0
   56.4197   46.0427   27.7175 H   0  0  0  0  0  0
   59.5886   45.6768   31.4759 H   0  0  0  0  0  0
   58.8083   46.4043   27.3390 H   0  0  0  0  0  0
   55.6195   44.0054   31.2254 H   0  0  0  0  0  0
   63.8264   43.5333   28.6246 H   0  0  0  0  0  0
   62.0987   43.7503   28.4166 H   0  0  0  0  0  0
   63.2078   44.9424   27.7446 H   0  0  0  0  0  0
   61.6953   48.8770   34.5397 H   0  0  0  0  0  0
   63.2098   49.2025   33.7393 H   0  0  0  0  0  0
   61.7915   48.9328   32.7875 H   0  0  0  0  0  0
   61.2787   46.4661   35.4502 H   0  0  0  0  0  0
   60.4081   46.7302   33.9532 H   0  0  0  0  0  0
   61.3474   45.2823   34.1390 H   0  0  0  0  0  0
   65.5249   43.1111   34.1391 H   0  0  0  0  0  0
   63.8318   43.0343   33.6659 H   0  0  0  0  0  0
   65.0896   42.9412   32.4667 H   0  0  0  0  0  0
   66.9142   45.3309   33.7202 H   0  0  0  0  0  0
   66.5681   45.1929   32.0071 H   0  0  0  0  0  0
   66.1557   46.6672   32.8633 H   0  0  0  0  0  0
   60.8029   48.4770   29.4520 H   0  0  0  0  0  0
   62.0655   48.0502   28.3044 H   0  0  0  0  0  0
   60.3885   48.1145   27.7802 H   0  0  0  0  0  0
  1  2  2  0  0  0
  1  4  1  0  0  0
  1  8  1  0  0  0
  2  5  1  0  0  0
  2  7  1  0  0  0
  3  4  2  0  0  0
  3  6  1  0  0  0
  3  9  1  0  0  0
  4 27  1  0  0  0
  5  6  2  0  0  0
  5 28  1  0  0  0
  6 21  1  0  0  0
  7 24  1  0  0  0
  7 25  1  0  0  0
  7 14  1  0  0  0
  8 13  1  0  0  0
  8 22  1  0  0  0
  8 23  1  0  0  0
  9 12  1  0  0  0
  9 26  1  0  0  0
  9 29  1  0  0  0
 10 11  1  0  0  0
 10 15  2  0  0  0
 10 20  1  0  0  0
 11 17  1  0  0  0
 11 16  2  0  0  0
 12 18  2  0  0  0
 12 19  1  0  0  0
 13 14  1  0  0  0
 13 30  1  0  0  0
 13 31  1  0  0  0
 14 32  1  0  0  0
 14 33  1  0  0  0
 16 18  1  0  0  0
 16 34  1  0  0  0
 17 19  2  0  0  0
 17 35  1  0  0  0
 18 36  1  0  0  0
 19 37  1  0  0  0
 20 38  1  0  0  0
 21 39  1  0  0  0
 21 40  1  0  0  0
 21 41  1  0  0  0
 22 42  1  0  0  0
 22 43  1  0  0  0
 22 44  1  0  0  0
 23 45  1  0  0  0
 23 46  1  0  0  0
 23 47  1  0  0  0
 24 48  1  0  0  0
 24 49  1  0  0  0
 24 50  1  0  0  0
 25 51  1  0  0  0
 25 52  1  0  0  0
 25 53  1  0  0  0
 26 54  1  0  0  0
 26 55  1  0  0  0
 26 56  1  0  0  0
M  END
> <s_m_entry_id>
31036

> <s_m_entry_name>
dock_pv.249

> <s_m_Source_Path>
/home/csk/Desktop/cluster/DUD-E-result/rxra

> <s_m_Source_File>
dock_pv.maegz

> <i_m_Source_File_Index>
249

> <chembl_id>
CHEMBL105979

> <chembl_pref_name>
None

> <i_lp_mmshare_version>
53161

> <r_lp_tautomer_probability>
1

> <s_lp_Force_Field>
OPLS_2005

> <r_lp_Energy>
25.509553

> <b_lp_Chiralities_Consistent>
1

> <s_lp_Variant>
CHEMBL2061_lig301-2

> <s_i_glide_gridfile>
glide-grid_1mv9

> <i_i_glide_lignum>
349

> <i_i_glide_rotatable_bonds>
4

> <r_i_docking_score>
-10.1852635563848

> <r_i_glide_ligand_efficiency>
-0.391740906014801

> <r_i_glide_ligand_efficiency_sa>
-1.16053089264281

> <r_i_glide_ligand_efficiency_ln>
-2.39197572564134

> <r_i_glide_gscore>
-10.1852635563848

> <r_i_glide_lipo>
-6.17960621435576

> <r_i_glide_hbond>
0

> <r_i_glide_metal>
0

> <r_i_glide_rewards>
-2.15859269748644

> <r_i_glide_evdw>
-40.9737815856934

> <r_i_glide_ecoul>
-1.75915968418121

> <r_i_glide_erotb>
0.465498387369225

> <r_i_glide_esite>
0

> <r_i_glide_emodel>
-55.2871779328092

> <r_i_glide_energy>
-42.7329412698746

> <r_i_glide_einternal>
5.50825548171997

> <i_i_glide_confnum>
6

> <i_i_glide_posenum>
275

> <r_i_glide_eff_state_penalty>
0

> <s_user_duplicate_titles>
CHEMBL2061_lig301

> <i_f3d_flags>
0

> <s_m_subgroup_title>
dock_pv

> <s_m_subgroupid>
dock_pv

> <b_m_subgroup_collapsed>
1

$$$$
CHEMBL2061_lig351
                    3D
 Schrodinger Suite 2021-1.
 61 63  0  0  1  0            999 V2000
   63.2329   46.4335   33.1322 C   0  0  0  0  0  0
   64.3333   45.5462   32.9920 C   0  0  0  0  0  0
   61.9695   46.6720   29.4991 C   0  0  0  0  0  0
   62.8291   46.2983   30.7093 C   0  0  0  0  0  0
   62.4937   46.7659   31.9810 C   0  0  0  0  0  0
   64.6652   45.1042   31.7075 C   0  0  0  0  0  0
   63.9365   45.4591   30.5807 C   0  0  0  0  0  0
   62.4943   47.6300   28.4311 C   0  0  0  0  0  0
   61.4085   48.0767   29.3585 C   0  0  0  0  0  0
   65.2168   45.1034   34.1802 C   0  0  0  0  0  0
   62.8091   47.0038   34.5077 C   0  0  0  0  0  0
   56.1583   46.0393   28.9593 C   0  0  0  0  0  0
   54.7712   46.0710   29.3401 C   0  0  0  0  0  0
   57.2207   45.6873   29.7285 C   0  0  0  0  0  0
   59.7074   45.5105   29.6783 C   0  0  0  0  0  0
   58.5238   45.7361   29.0785 C   0  0  0  0  0  0
   64.5191   45.4135   35.5275 C   0  0  0  0  0  0
   63.9383   46.8185   35.5535 C   0  0  0  0  0  0
   53.9811   46.9267   28.9497 O   0  0  0  0  0  0
   61.0418   45.5641   28.9621 C   0  0  0  0  0  0
   54.4058   45.0171   30.1237 O   0  0  0  0  0  0
   64.4092   44.9313   29.2452 C   0  0  0  0  0  0
   62.6405   48.5261   34.4227 C   0  0  0  0  0  0
   65.4210   43.5765   34.1725 C   0  0  0  0  0  0
   66.5574   45.8671   34.0811 C   0  0  0  0  0  0
   61.5061   46.3030   34.9880 C   0  0  0  0  0  0
   57.1277   45.2974   31.2076 C   0  0  0  0  0  0
   61.6228   47.3956   32.0783 H   0  0  0  0  0  0
   65.5312   44.4751   31.5758 H   0  0  0  0  0  0
   63.4964   48.0391   28.5388 H   0  0  0  0  0  0
   62.2508   47.4517   27.3828 H   0  0  0  0  0  0
   60.3975   48.1995   28.9683 H   0  0  0  0  0  0
   61.6419   48.7963   30.1399 H   0  0  0  0  0  0
   56.3031   46.3531   27.9353 H   0  0  0  0  0  0
   59.7608   45.2775   30.7287 H   0  0  0  0  0  0
   58.5548   45.9727   28.0233 H   0  0  0  0  0  0
   65.2078   45.2930   36.3612 H   0  0  0  0  0  0
   63.7173   44.6982   35.7174 H   0  0  0  0  0  0
   64.7495   47.5218   35.3641 H   0  0  0  0  0  0
   63.5884   47.0632   36.5547 H   0  0  0  0  0  0
   61.5202   44.5902   29.0716 H   0  0  0  0  0  0
   60.8701   45.6795   27.8903 H   0  0  0  0  0  0
   55.1638   44.4402   30.2450 H   0  0  0  0  0  0
   65.4975   44.8774   29.2706 H   0  0  0  0  0  0
   64.0069   43.9362   29.0519 H   0  0  0  0  0  0
   64.1586   45.5916   28.4188 H   0  0  0  0  0  0
   62.3426   48.8770   35.4092 H   0  0  0  0  0  0
   63.5636   49.0366   34.1426 H   0  0  0  0  0  0
   61.8786   48.8375   33.7155 H   0  0  0  0  0  0
   66.0029   43.2770   35.0348 H   0  0  0  0  0  0
   64.4781   43.0266   34.1759 H   0  0  0  0  0  0
   66.0079   43.2264   33.3388 H   0  0  0  0  0  0
   67.1998   45.6764   34.9391 H   0  0  0  0  0  0
   67.1214   45.5606   33.2010 H   0  0  0  0  0  0
   66.4077   46.9429   33.9961 H   0  0  0  0  0  0
   60.7489   47.0302   35.2782 H   0  0  0  0  0  0
   61.0513   45.6784   34.2186 H   0  0  0  0  0  0
   61.6598   45.6769   35.8652 H   0  0  0  0  0  0
   57.8835   45.8455   31.7703 H   0  0  0  0  0  0
   56.1930   45.5600   31.6997 H   0  0  0  0  0  0
   57.3679   44.2422   31.3370 H   0  0  0  0  0  0
  1  2  2  0  0  0
  1  5  1  0  0  0
  1 11  1  0  0  0
  2  6  1  0  0  0
  2 10  1  0  0  0
  3  4  1  0  0  0
  3  8  1  0  0  0
  3  9  1  0  0  0
  3 20  1  0  0  0
  4  5  2  0  0  0
  4  7  1  0  0  0
  5 28  1  0  0  0
  6  7  2  0  0  0
  6 29  1  0  0  0
  7 22  1  0  0  0
  8  9  1  0  0  0
  8 30  1  0  0  0
  8 31  1  0  0  0
  9 32  1  0  0  0
  9 33  1  0  0  0
 10 24  1  0  0  0
 10 25  1  0  0  0
 10 17  1  0  0  0
 11 18  1  0  0  0
 11 23  1  0  0  0
 11 26  1  0  0  0
 12 14  2  0  0  0
 12 13  1  0  0  0
 12 34  1  0  0  0
 13 19  2  0  0  0
 13 21  1  0  0  0
 14 16  1  0  0  0
 14 27  1  0  0  0
 15 20  1  0  0  0
 15 16  2  0  0  0
 15 35  1  0  0  0
 16 36  1  0  0  0
 17 18  1  0  0  0
 17 37  1  0  0  0
 17 38  1  0  0  0
 18 39  1  0  0  0
 18 40  1  0  0  0
 20 41  1  0  0  0
 20 42  1  0  0  0
 21 43  1  0  0  0
 22 44  1  0  0  0
 22 45  1  0  0  0
 22 46  1  0  0  0
 23 47  1  0  0  0
 23 48  1  0  0  0
 23 49  1  0  0  0
 24 50  1  0  0  0
 24 51  1  0  0  0
 24 52  1  0  0  0
 25 53  1  0  0  0
 25 54  1  0  0  0
 25 55  1  0  0  0
 26 56  1  0  0  0
 26 57  1  0  0  0
 26 58  1  0  0  0
 27 59  1  0  0  0
 27 60  1  0  0  0
 27 61  1  0  0  0
M  END
> <s_m_entry_id>
31037

> <s_m_entry_name>
dock_pv.250

> <s_m_Source_Path>
/home/csk/Desktop/cluster/DUD-E-result/rxra

> <s_m_Source_File>
dock_pv.maegz

> <i_m_Source_File_Index>
250

> <chembl_id>
CHEMBL89058

> <chembl_pref_name>
None

> <i_lp_mmshare_version>
53161

> <r_lp_tautomer_probability>
1

> <s_lp_Force_Field>
OPLS_2005

> <r_lp_Energy>
34.858971

> <b_lp_Chiralities_Consistent>
1

> <s_lp_Variant>
CHEMBL2061_lig351-1

> <s_i_glide_gridfile>
glide-grid_1mv9

> <i_i_glide_lignum>
411

> <i_i_glide_rotatable_bonds>
6

> <r_i_docking_score>
-10.1760758637945

> <r_i_glide_ligand_efficiency>
-0.376891698659056

> <r_i_glide_ligand_efficiency_sa>
-1.13067509473499

> <r_i_glide_ligand_efficiency_ln>
-2.36882269536914

> <r_i_glide_gscore>
-10.1760758637945

> <r_i_glide_lipo>
-6.45150156027646

> <r_i_glide_hbond>
-0.0864771787612569

> <r_i_glide_metal>
0

> <r_i_glide_rewards>
-1.84899763634489

> <r_i_glide_evdw>
-43.4639091491699

> <r_i_glide_ecoul>
-2.21512007713318

> <r_i_glide_erotb>
0.716363980616572

> <r_i_glide_esite>
0

> <r_i_glide_emodel>
-66.19485656156

> <r_i_glide_energy>
-45.6790292263031

> <r_i_glide_einternal>
2.41945171356201

> <i_i_glide_confnum>
11

> <i_i_glide_posenum>
169

> <r_i_glide_eff_state_penalty>
0

> <s_user_duplicate_titles>
CHEMBL2061_lig351,143488

> <i_f3d_flags>
0

> <s_m_subgroup_title>
dock_pv

> <s_m_subgroupid>
dock_pv

> <b_m_subgroup_collapsed>
1

$$$$
CHEMBL2061_lig427
                    3D
 Schrodinger Suite 2021-1.
 49 51  0  0  1  0            999 V2000
   62.0868   46.0772   30.7389 C   0  0  0  0  0  0
   60.8763   46.2226   29.8744 C   0  0  0  0  0  0
   59.6726   45.9732   30.4531 O   0  0  0  0  0  0
   58.7037   46.0636   29.5038 C   0  0  0  0  0  0
   59.3000   46.4151   28.3000 C   0  0  0  0  0  0
   60.6731   46.5030   28.5305 C   0  0  0  0  0  0
   57.3428   45.7952   29.9147 C   0  0  0  0  0  0
   56.2271   46.0366   29.1948 C   0  0  0  0  0  0
   54.8897   45.7932   29.6742 C   0  0  0  0  0  0
   54.7949   44.7415   30.5388 O   0  0  0  0  0  0
   53.9264   46.4770   29.3392 O   0  0  0  0  0  0
   64.0151   46.7883   35.2260 C   0  0  0  0  0  0
   65.0170   45.6800   34.8735 C   0  0  0  0  0  0
   65.5236   45.7253   33.4056 C   0  0  0  0  0  0
   63.1994   47.1258   34.1823 N   0  0  0  0  0  0
   63.9987   47.2777   36.3577 O   0  0  0  0  0  0
   66.3644   44.4685   33.2050 C   0  0  0  0  0  0
   66.4256   46.9353   33.1443 C   0  0  0  0  0  0
   63.1716   46.5017   32.8971 C   0  0  0  0  0  0
   64.3126   45.8012   32.4578 C   0  0  0  0  0  0
   64.3109   45.2438   31.1704 C   0  0  0  0  0  0
   63.2188   45.3682   30.3124 C   0  0  0  0  0  0
   62.0751   46.6316   32.0235 C   0  0  0  0  0  0
   62.1827   48.1463   34.4944 C   0  0  0  0  0  0
   60.9127   47.5707   35.1398 C   0  0  0  0  0  0
   63.2660   44.6642   28.9600 C   0  0  0  0  0  0
   58.8050   46.5663   27.3536 H   0  0  0  0  0  0
   61.4351   46.7342   27.8007 H   0  0  0  0  0  0
   57.2822   45.3886   30.9160 H   0  0  0  0  0  0
   56.2829   46.4688   28.2067 H   0  0  0  0  0  0
   55.6377   44.2910   30.6212 H   0  0  0  0  0  0
   65.8504   45.7572   35.5686 H   0  0  0  0  0  0
   64.5137   44.7355   35.0877 H   0  0  0  0  0  0
   67.1953   44.4768   33.9126 H   0  0  0  0  0  0
   65.7930   43.5485   33.3388 H   0  0  0  0  0  0
   66.8085   44.4771   32.2125 H   0  0  0  0  0  0
   67.3333   46.8776   33.7388 H   0  0  0  0  0  0
   66.7506   46.8770   32.1078 H   0  0  0  0  0  0
   65.9440   47.8943   33.3383 H   0  0  0  0  0  0
   65.1753   44.7048   30.8157 H   0  0  0  0  0  0
   61.1876   47.1640   32.3274 H   0  0  0  0  0  0
   62.6097   48.8768   35.1803 H   0  0  0  0  0  0
   61.9544   48.7270   33.6009 H   0  0  0  0  0  0
   60.2032   48.3703   35.3400 H   0  0  0  0  0  0
   60.4158   46.8399   34.5025 H   0  0  0  0  0  0
   61.1383   47.0935   36.0942 H   0  0  0  0  0  0
   64.0077   43.8673   28.9449 H   0  0  0  0  0  0
   62.3118   44.1801   28.7416 H   0  0  0  0  0  0
   63.4823   45.3755   28.1602 H   0  0  0  0  0  0
  1  2  1  0  0  0
  1 22  1  0  0  0
  1 23  2  0  0  0
  2  3  1  0  0  0
  2  6  2  0  0  0
  3  4  1  0  0  0
  4  5  2  0  0  0
  4  7  1  0  0  0
  5  6  1  0  0  0
  5 27  1  0  0  0
  6 28  1  0  0  0
  7  8  2  0  0  0
  7 29  1  0  0  0
  8  9  1  0  0  0
  8 30  1  0  0  0
  9 10  1  0  0  0
  9 11  2  0  0  0
 10 31  1  0  0  0
 12 16  2  0  0  0
 12 13  1  0  0  0
 12 15  1  0  0  0
 13 14  1  0  0  0
 13 32  1  0  0  0
 13 33  1  0  0  0
 14 17  1  0  0  0
 14 18  1  0  0  0
 14 20  1  0  0  0
 15 19  1  0  0  0
 15 24  1  0  0  0
 17 34  1  0  0  0
 17 35  1  0  0  0
 17 36  1  0  0  0
 18 37  1  0  0  0
 18 38  1  0  0  0
 18 39  1  0  0  0
 19 20  2  0  0  0
 19 23  1  0  0  0
 20 21  1  0  0  0
 21 22  2  0  0  0
 21 40  1  0  0  0
 22 26  1  0  0  0
 23 41  1  0  0  0
 24 25  1  0  0  0
 24 42  1  0  0  0
 24 43  1  0  0  0
 25 44  1  0  0  0
 25 45  1  0  0  0
 25 46  1  0  0  0
 26 47  1  0  0  0
 26 48  1  0  0  0
 26 49  1  0  0  0
M  END
> <s_m_entry_id>
31038

> <s_m_entry_name>
dock_pv.251

> <s_m_Source_Path>
/home/csk/Desktop/cluster/DUD-E-result/rxra

> <s_m_Source_File>
dock_pv.maegz

> <i_m_Source_File_Index>
251

> <chembl_id>
CHEMBL246806

> <chembl_pref_name>
None

> <i_lp_mmshare_version>
53161

> <r_lp_tautomer_probability>
1

> <s_lp_Force_Field>
OPLS_2005

> <r_lp_Energy>
29.731431

> <b_lp_Chiralities_Consistent>
1

> <s_lp_Variant>
CHEMBL2061_lig427-1

> <s_i_glide_gridfile>
glide-grid_1mv9

> <i_i_glide_lignum>
498

> <i_i_glide_rotatable_bonds>
5

> <r_i_docking_score>
-10.1755032476632

> <r_i_glide_ligand_efficiency>
-0.391365509525509

> <r_i_glide_ligand_efficiency_sa>
-1.1594187820204

> <r_i_glide_ligand_efficiency_ln>
-2.38968354916426

> <r_i_glide_gscore>
-10.1755032476632

> <r_i_glide_lipo>
-4.95071299000555

> <r_i_glide_hbond>
-0.117940910754473

> <r_i_glide_metal>
0

> <r_i_glide_rewards>
-2.73775053183731

> <r_i_glide_evdw>
-45.8147468566895

> <r_i_glide_ecoul>
-3.5803050994873

> <r_i_glide_erotb>
0.458684292691673

> <r_i_glide_esite>
0

> <r_i_glide_emodel>
-77.7130269306356

> <r_i_glide_energy>
-49.3950519561768

> <r_i_glide_einternal>
4.24539518356323

> <i_i_glide_confnum>
7

> <i_i_glide_posenum>
124

> <r_i_glide_eff_state_penalty>
0

> <s_user_duplicate_titles>
CHEMBL2061_lig427

> <i_f3d_flags>
0

> <s_m_subgroup_title>
dock_pv

> <s_m_subgroupid>
dock_pv

> <b_m_subgroup_collapsed>
1

$$$$
CHEMBL2061_lig460
                    3D
 Schrodinger Suite 2021-1.
 62 65  0  0  1  0            999 V2000
   65.6119   45.9710   33.4036 C   0  0  0  0  0  0
   65.0940   45.5855   34.7889 C   0  0  0  0  0  0
   63.6868   46.1118   35.1716 C   0  0  0  0  0  0
   64.6633   46.1469   32.4471 N   0  0  0  0  0  0
   66.8103   46.0503   33.2127 O   0  0  0  0  0  0
   63.7860   47.5744   35.6673 C   0  0  0  0  0  0
   63.2144   45.1325   36.2743 C   0  0  0  0  0  0
   63.2638   46.0892   32.6434 C   0  0  0  0  0  0
   62.7461   46.0907   33.9535 C   0  0  0  0  0  0
   61.3619   46.1065   34.1094 C   0  0  0  0  0  0
   60.4886   46.0775   33.0279 C   0  0  0  0  0  0
   60.9914   46.1039   31.7008 C   0  0  0  0  0  0
   62.3777   46.0943   31.5502 C   0  0  0  0  0  0
   60.1156   46.0744   30.4790 C   0  0  0  0  0  0
   58.9650   45.2802   30.5137 C   0  0  0  0  0  0
   58.0100   45.2988   29.5278 C   0  0  0  0  0  0
   58.2354   46.0786   28.4167 C   0  0  0  0  0  0
   59.3991   46.8222   28.2870 C   0  0  0  0  0  0
   60.3616   46.8492   29.3103 C   0  0  0  0  0  0
   56.8531   44.3348   29.6486 C   0  0  1  0  0  0
   61.5091   47.6307   29.2230 O   0  0  0  0  0  0
   65.1787   46.3306   31.0713 C   0  0  0  0  0  0
   65.4250   45.0300   30.2973 C   0  0  0  0  0  0
   59.0189   46.0795   33.4126 C   0  0  0  0  0  0
   55.8674   44.4264   30.8026 C   0  0  0  0  0  0
   55.3866   44.5865   29.3768 C   0  0  1  0  0  0
   54.8467   45.9743   29.0984 C   0  0  0  0  0  0
   55.1979   46.4444   27.8843 O   0  0  0  0  0  0
   54.0078   46.4773   29.8175 O   0  0  0  0  0  0
   61.9488   48.1955   27.9695 C   0  0  0  0  0  0
   63.0912   47.3936   27.3292 C   0  0  0  0  0  0
   64.1197   47.2034   28.1437 F   0  0  0  0  0  0
   62.6852   46.1902   26.9386 F   0  0  0  0  0  0
   63.5666   48.0611   26.2766 F   0  0  0  0  0  0
   65.1341   44.4956   34.7719 H   0  0  0  0  0  0
   65.8288   45.9030   35.5266 H   0  0  0  0  0  0
   64.4078   47.6538   36.5603 H   0  0  0  0  0  0
   64.2058   48.2343   34.9050 H   0  0  0  0  0  0
   62.8061   47.9702   35.9378 H   0  0  0  0  0  0
   63.8032   45.2602   37.1833 H   0  0  0  0  0  0
   62.1687   45.2682   36.5351 H   0  0  0  0  0  0
   63.3508   44.0869   35.9960 H   0  0  0  0  0  0
   60.9370   46.1458   35.1001 H   0  0  0  0  0  0
   62.7491   46.0444   30.5416 H   0  0  0  0  0  0
   58.7814   44.6258   31.3394 H   0  0  0  0  0  0
   57.5202   46.0719   27.6297 H   0  0  0  0  0  0
   59.4933   47.3741   27.3706 H   0  0  0  0  0  0
   57.1842   43.3323   29.4204 H   0  0  0  0  0  0
   64.5106   46.9597   30.4986 H   0  0  0  0  0  0
   66.1171   46.8772   31.0911 H   0  0  0  0  0  0
   65.6985   45.2740   29.2707 H   0  0  0  0  0  0
   66.2561   44.4779   30.7302 H   0  0  0  0  0  0
   64.5456   44.3859   30.2698 H   0  0  0  0  0  0
   58.7402   45.1565   33.9233 H   0  0  0  0  0  0
   58.9096   46.8752   34.1389 H   0  0  0  0  0  0
   58.2993   46.3268   32.6427 H   0  0  0  0  0  0
   55.9354   45.2887   31.4712 H   0  0  0  0  0  0
   55.5610   43.5332   31.3390 H   0  0  0  0  0  0
   54.7814   43.7928   28.9446 H   0  0  0  0  0  0
   55.7470   45.8054   27.4288 H   0  0  0  0  0  0
   61.1748   48.3857   27.2344 H   0  0  0  0  0  0
   62.3362   49.1921   28.1393 H   0  0  0  0  0  0
  1  5  2  0  0  0
  1  2  1  0  0  0
  1  4  1  0  0  0
  2  3  1  0  0  0
  2 35  1  0  0  0
  2 36  1  0  0  0
  3  9  1  0  0  0
  3  6  1  0  0  0
  3  7  1  0  0  0
  4  8  1  0  0  0
  4 22  1  0  0  0
  6 37  1  0  0  0
  6 38  1  0  0  0
  6 39  1  0  0  0
  7 40  1  0  0  0
  7 41  1  0  0  0
  7 42  1  0  0  0
  8  9  2  0  0  0
  8 13  1  0  0  0
  9 10  1  0  0  0
 10 11  2  0  0  0
 10 43  1  0  0  0
 11 24  1  0  0  0
 11 12  1  0  0  0
 12 14  1  0  0  0
 12 13  2  0  0  0
 13 44  1  0  0  0
 14 19  1  0  0  0
 14 15  2  0  0  0
 15 16  1  0  0  0
 15 45  1  0  0  0
 16 17  2  0  0  0
 16 20  1  0  0  0
 17 18  1  0  0  0
 17 46  1  0  0  0
 18 19  2  0  0  0
 18 47  1  0  0  0
 19 21  1  0  0  0
 20 25  1  0  0  0
 20 26  1  0  0  0
 20 48  1  0  0  0
 21 30  1  0  0  0
 22 23  1  0  0  0
 22 49  1  0  0  0
 22 50  1  0  0  0
 23 51  1  0  0  0
 23 52  1  0  0  0
 23 53  1  0  0  0
 24 54  1  0  0  0
 24 55  1  0  0  0
 24 56  1  0  0  0
 25 26  1  0  0  0
 25 57  1  0  0  0
 25 58  1  0  0  0
 26 27  1  0  0  0
 26 59  1  0  0  0
 27 28  1  0  0  0
 27 29  2  0  0  0
 28 60  1  0  0  0
 30 31  1  0  0  0
 30 61  1  0  0  0
 30 62  1  0  0  0
 31 32  1  0  0  0
 31 33  1  0  0  0
 31 34  1  0  0  0
M  END
> <s_m_entry_id>
31039

> <s_m_entry_name>
dock_pv.252

> <s_m_Source_Path>
/home/csk/Desktop/cluster/DUD-E-result/rxra

> <s_m_Source_File>
dock_pv.maegz

> <i_m_Source_File_Index>
252

> <chembl_id>
CHEMBL246210

> <chembl_pref_name>
None

> <i_lp_mmshare_version>
53161

> <r_lp_tautomer_probability>
1

> <s_lp_Force_Field>
OPLS_2005

> <r_lp_Energy>
44.00638

> <b_lp_Chiralities_Consistent>
1

> <s_lp_Variant>
CHEMBL2061_lig460-2

> <s_i_glide_gridfile>
glide-grid_1mv9

> <i_i_glide_lignum>
546

> <i_i_glide_rotatable_bonds>
8

> <r_i_docking_score>
-10.1685887340566

> <r_i_glide_ligand_efficiency>
-0.299076139236958

> <r_i_glide_ligand_efficiency_sa>
-0.968890589013671

> <r_i_glide_ligand_efficiency_ln>
-2.24652647060607

> <r_i_glide_gscore>
-10.1685887340566

> <r_i_glide_lipo>
-5.71706653980125

> <r_i_glide_hbond>
-0.186938877051318

> <r_i_glide_metal>
0

> <r_i_glide_rewards>
-2.75434982259999

> <r_i_glide_evdw>
-27.8679847717285

> <r_i_glide_ecoul>
-3.76323938369751

> <r_i_glide_erotb>
0.447651651537044

> <r_i_glide_esite>
0

> <r_i_glide_emodel>
-39.4288730026235

> <r_i_glide_energy>
-31.631224155426

> <r_i_glide_einternal>
9.88737869262695

> <i_i_glide_confnum>
307

> <i_i_glide_posenum>
362

> <r_i_glide_eff_state_penalty>
0

> <s_user_duplicate_titles>
CHEMBL2061_lig460

> <i_f3d_flags>
0

> <s_m_subgroup_title>
dock_pv

> <s_m_subgroupid>
dock_pv

> <b_m_subgroup_collapsed>
1

$$$$
CHEMBL2061_lig232
                    3D
 Schrodinger Suite 2021-1.
 40 42  0  0  1  0            999 V2000
   62.1375   46.7901   28.1786 C   0  0  0  0  0  0
   62.9939   46.9864   29.2434 C   0  0  0  0  0  0
   62.5224   46.9002   30.5467 C   0  0  0  0  0  0
   60.8014   46.4775   28.3961 C   0  0  0  0  0  0
   60.3404   46.3298   29.7077 C   0  0  0  0  0  0
   61.1998   46.5100   30.7837 C   0  0  0  0  0  0
   60.4269   46.2554   32.0061 C   0  0  0  0  0  0
   59.0643   45.9514   31.5544 C   0  0  0  0  0  0
   58.9993   46.0272   30.1982 C   0  0  0  0  0  0
   62.6199   46.9380   26.9388 F   0  0  0  0  0  0
   57.9263   45.6775   32.5254 C   0  0  0  0  0  0
   57.8729   45.8921   29.1591 C   0  0  0  0  0  0
   56.5431   45.2977   29.6142 C   0  0  0  0  0  0
   56.7203   44.0770   30.1772 O   0  0  0  0  0  0
   55.4600   45.8617   29.4716 O   0  0  0  0  0  0
   60.8349   46.2752   33.3019 C   0  0  0  0  0  0
   62.1742   46.4198   33.9087 C   0  0  0  0  0  0
   63.3009   45.8048   33.3531 C   0  0  0  0  0  0
   64.5510   45.8819   33.9652 C   0  0  0  0  0  0
   64.6509   46.4863   35.2138 C   0  0  0  0  0  0
   63.5475   47.1242   35.7765 C   0  0  0  0  0  0
   62.3141   47.0978   35.1237 C   0  0  0  0  0  0
   65.7979   45.3571   33.2697 C   0  0  0  0  0  0
   66.6372   44.7908   34.1359 F   0  0  0  0  0  0
   65.4941   44.4770   32.3193 F   0  0  0  0  0  0
   66.4080   46.3927   32.6966 F   0  0  0  0  0  0
   64.0169   47.2440   29.0324 H   0  0  0  0  0  0
   63.2095   47.1611   31.3320 H   0  0  0  0  0  0
   60.1502   46.3529   27.5447 H   0  0  0  0  0  0
   58.0378   44.6799   32.9381 H   0  0  0  0  0  0
   57.9704   46.3942   33.3391 H   0  0  0  0  0  0
   56.9297   45.7926   32.1129 H   0  0  0  0  0  0
   57.6882   46.8769   28.7403 H   0  0  0  0  0  0
   58.2245   45.2775   28.3336 H   0  0  0  0  0  0
   57.6432   43.8112   30.1658 H   0  0  0  0  0  0
   60.0738   46.0909   34.0451 H   0  0  0  0  0  0
   63.2088   45.2588   32.4270 H   0  0  0  0  0  0
   65.6010   46.4770   35.7258 H   0  0  0  0  0  0
   63.6457   47.6261   36.7279 H   0  0  0  0  0  0
   61.4614   47.5759   35.5854 H   0  0  0  0  0  0
  1  2  2  0  0  0
  1  4  1  0  0  0
  1 10  1  0  0  0
  2  3  1  0  0  0
  2 27  1  0  0  0
  3  6  2  0  0  0
  3 28  1  0  0  0
  4  5  2  0  0  0
  4 29  1  0  0  0
  5  6  1  0  0  0
  5  9  1  0  0  0
  6  7  1  0  0  0
  7  8  1  0  0  0
  7 16  2  0  0  0
  8  9  2  0  0  0
  8 11  1  0  0  0
  9 12  1  0  0  0
 11 30  1  0  0  0
 11 31  1  0  0  0
 11 32  1  0  0  0
 12 13  1  0  0  0
 12 33  1  0  0  0
 12 34  1  0  0  0
 13 14  1  0  0  0
 13 15  2  0  0  0
 14 35  1  0  0  0
 16 17  1  0  0  0
 16 36  1  0  0  0
 17 18  2  0  0  0
 17 22  1  0  0  0
 18 19  1  0  0  0
 18 37  1  0  0  0
 19 20  2  0  0  0
 19 23  1  0  0  0
 20 21  1  0  0  0
 20 38  1  0  0  0
 21 22  2  0  0  0
 21 39  1  0  0  0
 22 40  1  0  0  0
 23 24  1  0  0  0
 23 25  1  0  0  0
 23 26  1  0  0  0
M  END
> <s_m_entry_id>
31040

> <s_m_entry_name>
dock_pv.253

> <s_m_Source_Path>
/home/csk/Desktop/cluster/DUD-E-result/rxra

> <s_m_Source_File>
dock_pv.maegz

> <i_m_Source_File_Index>
253

> <chembl_id>
CHEMBL2337390

> <chembl_pref_name>
None

> <i_lp_mmshare_version>
53161

> <r_lp_tautomer_probability>
1

> <s_lp_Force_Field>
OPLS_2005

> <r_lp_Energy>
37.461359

> <b_lp_Chiralities_Consistent>
1

> <s_lp_Variant>
CHEMBL2061_lig232-1

> <s_i_glide_gridfile>
glide-grid_1mv9

> <i_i_glide_lignum>
271

> <i_i_glide_rotatable_bonds>
5

> <r_i_docking_score>
-10.167441281627

> <r_i_glide_ligand_efficiency>
-0.391055433908732

> <r_i_glide_ligand_efficiency_sa>
-1.15850018422579

> <r_i_glide_ligand_efficiency_ln>
-2.38779022289413

> <r_i_glide_gscore>
-10.167441281627

> <r_i_glide_lipo>
-4.92076681243451

> <r_i_glide_hbond>
0

> <r_i_glide_metal>
0

> <r_i_glide_rewards>
-3.62934711298408

> <r_i_glide_evdw>
-35.1493034362793

> <r_i_glide_ecoul>
-1.99102008342743

> <r_i_glide_erotb>
0.438790828119654

> <r_i_glide_esite>
0

> <r_i_glide_emodel>
-56.4385774179564

> <r_i_glide_energy>
-37.1403235197067

> <r_i_glide_einternal>
5.07336616516113

> <i_i_glide_confnum>
23

> <i_i_glide_posenum>
255

> <r_i_glide_eff_state_penalty>
0

> <s_user_duplicate_titles>
CHEMBL2061_lig232

> <i_f3d_flags>
0

> <s_m_subgroup_title>
dock_pv

> <s_m_subgroupid>
dock_pv

> <b_m_subgroup_collapsed>
1

$$$$
CHEMBL2061_lig264
                    3D
 Schrodinger Suite 2021-1.
 56 58  0  0  1  0            999 V2000
   63.0788   46.1518   32.5812 C   0  0  0  0  0  0
   64.0080   45.1190   32.2815 C   0  0  0  0  0  0
   62.2332   46.6008   31.5455 C   0  0  0  0  0  0
   62.2352   46.0591   30.2479 C   0  0  0  0  0  0
   61.2260   46.5403   29.1513 C   0  0  0  0  0  0
   62.8861   46.7133   34.0185 C   0  0  0  0  0  0
   64.9165   44.4660   33.3474 C   0  0  0  0  0  0
   55.5309   45.2643   30.0765 C   0  0  0  0  0  0
   64.0900   44.6722   30.9542 C   0  0  0  0  0  0
   59.7375   46.1214   29.3836 C   0  0  0  0  0  0
   56.9955   45.5144   29.8133 C   0  0  0  0  0  0
   63.2139   45.1010   29.9718 C   0  0  0  0  0  0
   64.0284   46.2485   34.9717 C   0  0  0  0  0  0
   64.4418   44.7972   34.7867 C   0  0  0  0  0  0
   55.1233   44.4870   30.9376 O   0  0  0  0  0  0
   58.7906   46.2539   28.3582 C   0  0  0  0  0  0
   59.2675   45.6770   30.6243 C   0  0  0  0  0  0
   57.9333   45.3305   30.8317 C   0  0  0  0  0  0
   57.4434   45.9614   28.5665 C   0  0  0  0  0  0
   54.6957   46.0486   29.3391 O   0  0  0  0  0  0
   61.2546   48.0769   29.1149 C   0  0  0  0  0  0
   61.6982   46.0810   27.7377 C   0  0  0  0  0  0
   62.9963   48.2460   34.0276 C   0  0  0  0  0  0
   61.5039   46.2464   34.5396 C   0  0  0  0  0  0
   64.8376   42.9138   33.2503 C   0  0  0  0  0  0
   66.3451   45.0333   33.1461 C   0  0  0  0  0  0
   61.4984   47.3525   31.7862 H   0  0  0  0  0  0
   64.8266   43.9370   30.6692 H   0  0  0  0  0  0
   63.3204   44.6505   28.9979 H   0  0  0  0  0  0
   63.7496   46.4214   36.0126 H   0  0  0  0  0  0
   64.9288   46.8481   34.8294 H   0  0  0  0  0  0
   63.6078   44.1709   35.0875 H   0  0  0  0  0  0
   65.2332   44.5574   35.4958 H   0  0  0  0  0  0
   59.0742   46.6153   27.3832 H   0  0  0  0  0  0
   59.9168   45.6770   31.4807 H   0  0  0  0  0  0
   57.6245   45.0080   31.8165 H   0  0  0  0  0  0
   56.7591   46.0779   27.7395 H   0  0  0  0  0  0
   55.2115   46.6379   28.7871 H   0  0  0  0  0  0
   60.8200   48.4770   30.0274 H   0  0  0  0  0  0
   62.2689   48.4685   29.0234 H   0  0  0  0  0  0
   60.6732   48.4762   28.2822 H   0  0  0  0  0  0
   61.6082   45.0023   27.6049 H   0  0  0  0  0  0
   61.1336   46.5523   26.9385 H   0  0  0  0  0  0
   62.7392   46.3516   27.5523 H   0  0  0  0  0  0
   62.8235   48.6556   35.0236 H   0  0  0  0  0  0
   64.0077   48.5077   33.7398 H   0  0  0  0  0  0
   62.3049   48.7390   33.3450 H   0  0  0  0  0  0
   61.4539   46.2029   35.6283 H   0  0  0  0  0  0
   60.7146   46.9264   34.2174 H   0  0  0  0  0  0
   61.2226   45.2771   34.1396 H   0  0  0  0  0  0
   65.7059   42.4768   33.7377 H   0  0  0  0  0  0
   63.9468   42.5001   33.7255 H   0  0  0  0  0  0
   64.8090   42.5176   32.2384 H   0  0  0  0  0  0
   67.0411   44.6441   33.8897 H   0  0  0  0  0  0
   66.7441   44.7783   32.1650 H   0  0  0  0  0  0
   66.3706   46.1211   33.2172 H   0  0  0  0  0  0
  1  2  2  0  0  0
  1  3  1  0  0  0
  1  6  1  0  0  0
  2  7  1  0  0  0
  2  9  1  0  0  0
  3  4  2  0  0  0
  3 27  1  0  0  0
  4  5  1  0  0  0
  4 12  1  0  0  0
  5 10  1  0  0  0
  5 21  1  0  0  0
  5 22  1  0  0  0
  6 13  1  0  0  0
  6 23  1  0  0  0
  6 24  1  0  0  0
  7 25  1  0  0  0
  7 26  1  0  0  0
  7 14  1  0  0  0
  8 11  1  0  0  0
  8 15  2  0  0  0
  8 20  1  0  0  0
  9 12  2  0  0  0
  9 28  1  0  0  0
 10 16  2  0  0  0
 10 17  1  0  0  0
 11 18  1  0  0  0
 11 19  2  0  0  0
 12 29  1  0  0  0
 13 14  1  0  0  0
 13 30  1  0  0  0
 13 31  1  0  0  0
 14 32  1  0  0  0
 14 33  1  0  0  0
 16 19  1  0  0  0
 16 34  1  0  0  0
 17 18  2  0  0  0
 17 35  1  0  0  0
 18 36  1  0  0  0
 19 37  1  0  0  0
 20 38  1  0  0  0
 21 39  1  0  0  0
 21 40  1  0  0  0
 21 41  1  0  0  0
 22 42  1  0  0  0
 22 43  1  0  0  0
 22 44  1  0  0  0
 23 45  1  0  0  0
 23 46  1  0  0  0
 23 47  1  0  0  0
 24 48  1  0  0  0
 24 49  1  0  0  0
 24 50  1  0  0  0
 25 51  1  0  0  0
 25 52  1  0  0  0
 25 53  1  0  0  0
 26 54  1  0  0  0
 26 55  1  0  0  0
 26 56  1  0  0  0
M  END
> <s_m_entry_id>
31041

> <s_m_entry_name>
dock_pv.254

> <s_m_Source_Path>
/home/csk/Desktop/cluster/DUD-E-result/rxra

> <s_m_Source_File>
dock_pv.maegz

> <i_m_Source_File_Index>
254

> <chembl_id>
CHEMBL114319

> <chembl_pref_name>
None

> <i_lp_mmshare_version>
53161

> <r_lp_tautomer_probability>
1

> <s_lp_Force_Field>
OPLS_2005

> <r_lp_Energy>
27.931837

> <b_lp_Chiralities_Consistent>
1

> <s_lp_Variant>
CHEMBL2061_lig264-1

> <s_i_glide_gridfile>
glide-grid_1mv9

> <i_i_glide_lignum>
307

> <i_i_glide_rotatable_bonds>
4

> <r_i_docking_score>
-10.1567462372057

> <r_i_glide_ligand_efficiency>
-0.390644086046373

> <r_i_glide_ligand_efficiency_sa>
-1.15728156780213

> <r_i_glide_ligand_efficiency_ln>
-2.38527852680508

> <r_i_glide_gscore>
-10.1567462372057

> <r_i_glide_lipo>
-6.00540173836916

> <r_i_glide_hbond>
0

> <r_i_glide_metal>
0

> <r_i_glide_rewards>
-2.28215846657381

> <r_i_glide_evdw>
-41.8370018005371

> <r_i_glide_ecoul>
-1.61889553070068

> <r_i_glide_erotb>
0.465498387369225

> <r_i_glide_esite>
0

> <r_i_glide_emodel>
-54.7527460311727

> <r_i_glide_energy>
-43.4558973312378

> <r_i_glide_einternal>
9.486985206604

> <i_i_glide_confnum>
6

> <i_i_glide_posenum>
245

> <r_i_glide_eff_state_penalty>
0

> <s_user_duplicate_titles>
CHEMBL2061_lig264

> <i_f3d_flags>
0

> <s_m_subgroup_title>
dock_pv

> <s_m_subgroupid>
dock_pv

> <b_m_subgroup_collapsed>
1

$$$$
CHEMBL2061_lig279
                    3D
 Schrodinger Suite 2021-1.
 56 58  0  0  1  0            999 V2000
   63.1584   46.5191   33.0900 C   0  0  0  0  0  0
   64.2873   45.7330   32.7349 C   0  0  0  0  0  0
   62.2542   46.1905   30.8240 C   0  0  0  0  0  0
   61.0313   46.2284   29.9899 C   0  0  0  0  0  0
   62.2166   46.7870   32.0899 C   0  0  0  0  0  0
   64.3560   45.2025   31.4368 C   0  0  0  0  0  0
   55.8622   45.8871   29.5233 C   0  0  0  0  0  0
   63.3516   45.3878   30.4950 C   0  0  0  0  0  0
   59.8868   45.8646   30.6076 C   0  0  0  0  0  0
   54.4590   46.2968   29.2616 C   0  0  0  0  0  0
   65.4019   45.3865   33.7420 C   0  0  0  0  0  0
   62.9219   47.0700   34.5262 C   0  0  0  0  0  0
   58.1772   46.0180   28.8685 N   0  0  0  0  0  0
   56.8591   46.0770   28.5691 C   0  0  0  0  0  0
   58.5153   45.6838   30.1391 C   0  0  0  0  0  0
   53.5288   45.6769   29.7390 O   0  0  0  0  0  0
   63.8865   46.3971   35.5357 C   0  0  0  0  0  0
   65.3023   46.3098   34.9712 C   0  0  0  0  0  0
   56.2220   45.3702   30.7694 C   0  0  0  0  0  0
   54.3089   47.4434   28.5386 O   0  0  0  0  0  0
   57.5708   45.2768   31.0860 C   0  0  0  0  0  0
   61.1404   46.6714   28.5366 C   0  0  0  0  0  0
   63.4324   44.5997   29.1928 C   0  0  0  0  0  0
   63.1965   48.5889   34.5369 C   0  0  0  0  0  0
   61.4860   46.7394   35.0125 C   0  0  0  0  0  0
   65.2478   43.9101   34.1759 C   0  0  0  0  0  0
   66.7818   45.6649   33.1177 C   0  0  0  0  0  0
   61.3640   47.3993   32.3406 H   0  0  0  0  0  0
   65.1776   44.5563   31.1699 H   0  0  0  0  0  0
   59.9750   45.6770   31.6657 H   0  0  0  0  0  0
   56.6066   46.3926   27.5700 H   0  0  0  0  0  0
   63.5409   45.3972   35.7994 H   0  0  0  0  0  0
   63.9022   46.9451   36.4799 H   0  0  0  0  0  0
   66.0074   46.0076   35.7393 H   0  0  0  0  0  0
   65.6087   47.3129   34.6840 H   0  0  0  0  0  0
   55.4833   45.1593   31.5298 H   0  0  0  0  0  0
   55.1420   47.9000   28.4029 H   0  0  0  0  0  0
   57.8660   44.9897   32.0848 H   0  0  0  0  0  0
   61.0020   45.8226   27.8657 H   0  0  0  0  0  0
   60.3920   47.4276   28.3034 H   0  0  0  0  0  0
   62.1174   47.1073   28.3288 H   0  0  0  0  0  0
   64.0654   43.7196   29.3002 H   0  0  0  0  0  0
   62.4562   44.2128   28.9011 H   0  0  0  0  0  0
   63.8174   45.2252   28.3885 H   0  0  0  0  0  0
   63.1677   48.9823   35.5536 H   0  0  0  0  0  0
   64.1741   48.8434   34.1391 H   0  0  0  0  0  0
   62.4610   49.1286   33.9394 H   0  0  0  0  0  0
   61.3454   47.0150   36.0584 H   0  0  0  0  0  0
   60.7225   47.2762   34.4517 H   0  0  0  0  0  0
   61.2627   45.6779   34.9211 H   0  0  0  0  0  0
   65.9825   43.6593   34.9389 H   0  0  0  0  0  0
   64.2588   43.6859   34.5755 H   0  0  0  0  0  0
   65.4123   43.2282   33.3409 H   0  0  0  0  0  0
   67.5897   45.4913   33.8300 H   0  0  0  0  0  0
   66.9490   45.0047   32.2715 H   0  0  0  0  0  0
   66.8604   46.6932   32.7606 H   0  0  0  0  0  0
  1  2  2  0  0  0
  1  5  1  0  0  0
  1 12  1  0  0  0
  2  6  1  0  0  0
  2 11  1  0  0  0
  3  5  2  0  0  0
  3  4  1  0  0  0
  3  8  1  0  0  0
  4  9  2  0  0  0
  4 22  1  0  0  0
  5 28  1  0  0  0
  6  8  2  0  0  0
  6 29  1  0  0  0
  7 19  1  0  0  0
  7 10  1  0  0  0
  7 14  2  0  0  0
  8 23  1  0  0  0
  9 15  1  0  0  0
  9 30  1  0  0  0
 10 16  2  0  0  0
 10 20  1  0  0  0
 11 26  1  0  0  0
 11 27  1  0  0  0
 11 18  1  0  0  0
 12 17  1  0  0  0
 12 24  1  0  0  0
 12 25  1  0  0  0
 13 15  2  0  0  0
 13 14  1  0  0  0
 14 31  1  0  0  0
 15 21  1  0  0  0
 17 18  1  0  0  0
 17 32  1  0  0  0
 17 33  1  0  0  0
 18 34  1  0  0  0
 18 35  1  0  0  0
 19 21  2  0  0  0
 19 36  1  0  0  0
 20 37  1  0  0  0
 21 38  1  0  0  0
 22 39  1  0  0  0
 22 40  1  0  0  0
 22 41  1  0  0  0
 23 42  1  0  0  0
 23 43  1  0  0  0
 23 44  1  0  0  0
 24 45  1  0  0  0
 24 46  1  0  0  0
 24 47  1  0  0  0
 25 48  1  0  0  0
 25 49  1  0  0  0
 25 50  1  0  0  0
 26 51  1  0  0  0
 26 52  1  0  0  0
 26 53  1  0  0  0
 27 54  1  0  0  0
 27 55  1  0  0  0
 27 56  1  0  0  0
M  END
> <s_m_entry_id>
31042

> <s_m_entry_name>
dock_pv.255

> <s_m_Source_Path>
/home/csk/Desktop/cluster/DUD-E-result/rxra

> <s_m_Source_File>
dock_pv.maegz

> <i_m_Source_File_Index>
255

> <chembl_id>
CHEMBL92926

> <chembl_pref_name>
None

> <i_lp_mmshare_version>
53161

> <r_lp_tautomer_probability>
1

> <s_lp_Force_Field>
OPLS_2005

> <r_lp_Energy>
30.150227

> <b_lp_Chiralities_Consistent>
1

> <s_lp_Variant>
CHEMBL2061_lig279-1

> <s_i_glide_gridfile>
glide-grid_1mv9

> <i_i_glide_lignum>
324

> <i_i_glide_rotatable_bonds>
4

> <r_i_docking_score>
-10.1470285392445

> <r_i_glide_ligand_efficiency>
-0.375815871823869

> <r_i_glide_ligand_efficiency_sa>
-1.12744761423298

> <r_i_glide_ligand_efficiency_ln>
-2.36206095709647

> <r_i_glide_gscore>
-10.1470285392445

> <r_i_glide_lipo>
-6.19605844285564

> <r_i_glide_hbond>
-0.139745405312305

> <r_i_glide_metal>
0

> <r_i_glide_rewards>
-1.72292453503218

> <r_i_glide_evdw>
-41.0916213989258

> <r_i_glide_ecoul>
-2.97828125953674

> <r_i_glide_erotb>
0.436263667263728

> <r_i_glide_esite>
-0.0232405644312785

> <r_i_glide_emodel>
-45.5698680538801

> <r_i_glide_energy>
-44.0699026584625

> <r_i_glide_einternal>
4.85426330566406

> <i_i_glide_confnum>
34

> <i_i_glide_posenum>
17

> <r_i_glide_eff_state_penalty>
0

> <s_user_duplicate_titles>
CHEMBL2061_lig279,155486

> <i_f3d_flags>
0

> <s_m_subgroup_title>
dock_pv

> <s_m_subgroupid>
dock_pv

> <b_m_subgroup_collapsed>
1

$$$$
CHEMBL2061_lig443
                    3D
 Schrodinger Suite 2021-1.
 59 62  0  0  1  0            999 V2000
   65.7691   45.8179   33.0030 C   0  0  0  0  0  0
   65.4641   46.7114   34.2116 C   0  0  0  0  0  0
   64.0316   46.5426   34.7999 C   0  0  0  0  0  0
   64.8068   45.9039   32.0488 N   0  0  0  0  0  0
   66.8080   45.1700   32.9390 O   0  0  0  0  0  0
   63.7199   47.8062   35.6464 C   0  0  0  0  0  0
   63.9872   45.2459   35.6423 C   0  0  0  0  0  0
   63.4415   46.2037   32.3246 C   0  0  0  0  0  0
   63.0157   46.4383   33.6508 C   0  0  0  0  0  0
   61.6461   46.4770   33.9094 C   0  0  0  0  0  0
   60.7025   46.3087   32.9038 C   0  0  0  0  0  0
   61.1079   46.2176   31.5601 C   0  0  0  0  0  0
   62.4784   46.1696   31.3040 C   0  0  0  0  0  0
   60.1454   46.1037   30.4208 C   0  0  0  0  0  0
   59.0130   45.2822   30.5124 C   0  0  0  0  0  0
   58.0305   45.2714   29.5561 C   0  0  0  0  0  0
   58.1831   46.0767   28.4403 C   0  0  0  0  0  0
   59.3117   46.8655   28.2779 C   0  0  0  0  0  0
   60.3059   46.8837   29.2582 C   0  0  0  0  0  0
   56.8868   44.2903   29.7391 C   0  0  1  0  0  0
   61.3859   47.7308   29.1437 O   0  0  0  0  0  0
   62.1669   47.6503   27.9546 C   0  0  0  0  0  0
   63.2081   48.4560   28.1201 F   0  0  0  0  0  0
   62.6321   46.4160   27.7514 F   0  0  0  0  0  0
   61.5092   48.0770   26.8833 F   0  0  0  0  0  0
   65.1497   45.3462   30.7126 C   0  0  0  0  0  0
   64.5589   43.9515   30.4114 C   0  0  0  0  0  0
   59.2609   46.1611   33.3551 C   0  0  0  0  0  0
   55.8620   44.4234   30.8363 C   0  0  0  0  0  0
   55.4323   44.5307   29.3847 C   0  0  1  0  0  0
   55.1075   45.9152   28.8631 C   0  0  0  0  0  0
   55.2080   46.8770   29.7390 O   0  0  0  0  0  0
   54.8080   46.1639   27.7390 O   0  0  0  0  0  0
   66.2321   46.4769   34.9398 H   0  0  0  0  0  0
   65.6404   47.7356   33.8804 H   0  0  0  0  0  0
   64.4080   47.9142   36.4816 H   0  0  0  0  0  0
   63.7733   48.7200   35.0520 H   0  0  0  0  0  0
   62.7282   47.7718   36.0956 H   0  0  0  0  0  0
   64.7315   45.2768   36.4394 H   0  0  0  0  0  0
   63.0181   45.1125   36.1238 H   0  0  0  0  0  0
   64.1819   44.3564   35.0407 H   0  0  0  0  0  0
   61.3054   46.5595   34.9306 H   0  0  0  0  0  0
   62.7779   46.0200   30.2806 H   0  0  0  0  0  0
   58.8080   44.6589   31.3589 H   0  0  0  0  0  0
   57.4208   46.0768   27.6924 H   0  0  0  0  0  0
   59.3808   47.4798   27.3973 H   0  0  0  0  0  0
   57.2507   43.2769   29.6685 H   0  0  0  0  0  0
   64.8630   46.0639   29.9433 H   0  0  0  0  0  0
   66.2330   45.2834   30.5849 H   0  0  0  0  0  0
   64.4076   43.8152   29.3410 H   0  0  0  0  0  0
   65.2080   43.1523   30.7503 H   0  0  0  0  0  0
   63.6077   43.7813   30.9040 H   0  0  0  0  0  0
   59.1085   46.8770   34.1391 H   0  0  0  0  0  0
   58.5089   46.4486   32.6302 H   0  0  0  0  0  0
   59.0537   45.1642   33.7406 H   0  0  0  0  0  0
   55.9299   45.2698   31.5216 H   0  0  0  0  0  0
   55.5420   43.5219   31.3390 H   0  0  0  0  0  0
   54.8435   43.7303   28.9408 H   0  0  0  0  0  0
   55.6217   46.5410   30.5340 H   0  0  0  0  0  0
  1  5  2  0  0  0
  1  2  1  0  0  0
  1  4  1  0  0  0
  2  3  1  0  0  0
  2 34  1  0  0  0
  2 35  1  0  0  0
  3  9  1  0  0  0
  3  6  1  0  0  0
  3  7  1  0  0  0
  4  8  1  0  0  0
  4 26  1  0  0  0
  6 36  1  0  0  0
  6 37  1  0  0  0
  6 38  1  0  0  0
  7 39  1  0  0  0
  7 40  1  0  0  0
  7 41  1  0  0  0
  8  9  2  0  0  0
  8 13  1  0  0  0
  9 10  1  0  0  0
 10 11  2  0  0  0
 10 42  1  0  0  0
 11 12  1  0  0  0
 11 28  1  0  0  0
 12 14  1  0  0  0
 12 13  2  0  0  0
 13 43  1  0  0  0
 14 19  1  0  0  0
 14 15  2  0  0  0
 15 16  1  0  0  0
 15 44  1  0  0  0
 16 17  2  0  0  0
 16 20  1  0  0  0
 17 18  1  0  0  0
 17 45  1  0  0  0
 18 19  2  0  0  0
 18 46  1  0  0  0
 19 21  1  0  0  0
 20 29  1  0  0  0
 20 30  1  0  0  0
 20 47  1  0  0  0
 21 22  1  0  0  0
 22 23  1  0  0  0
 22 24  1  0  0  0
 22 25  1  0  0  0
 26 27  1  0  0  0
 26 48  1  0  0  0
 26 49  1  0  0  0
 27 50  1  0  0  0
 27 51  1  0  0  0
 27 52  1  0  0  0
 28 53  1  0  0  0
 28 54  1  0  0  0
 28 55  1  0  0  0
 29 30  1  0  0  0
 29 56  1  0  0  0
 29 57  1  0  0  0
 30 31  1  0  0  0
 30 58  1  0  0  0
 31 32  1  0  0  0
 31 33  2  0  0  0
 32 59  1  0  0  0
M  END
> <s_m_entry_id>
31043

> <s_m_entry_name>
dock_pv.256

> <s_m_Source_Path>
/home/csk/Desktop/cluster/DUD-E-result/rxra

> <s_m_Source_File>
dock_pv.maegz

> <i_m_Source_File_Index>
256

> <chembl_id>
CHEMBL246824

> <chembl_pref_name>
None

> <i_lp_mmshare_version>
53161

> <r_lp_tautomer_probability>
1

> <s_lp_Force_Field>
OPLS_2005

> <r_lp_Energy>
44.185989

> <b_lp_Chiralities_Consistent>
1

> <s_lp_Variant>
CHEMBL2061_lig443-2

> <s_i_glide_gridfile>
glide-grid_1mv9

> <i_i_glide_lignum>
517

> <i_i_glide_rotatable_bonds>
7

> <r_i_docking_score>
-10.1327749089667

> <r_i_glide_ligand_efficiency>
-0.307053785120204

> <r_i_glide_ligand_efficiency_sa>
-0.984885555780329

> <r_i_glide_ligand_efficiency_ln>
-2.25347667505357

> <r_i_glide_gscore>
-10.1327749089667

> <r_i_glide_lipo>
-6.08429409462495

> <r_i_glide_hbond>
0

> <r_i_glide_metal>
0

> <r_i_glide_rewards>
-2.96268102954545

> <r_i_glide_evdw>
-24.1877307891846

> <r_i_glide_ecoul>
-1.69758772850037

> <r_i_glide_erotb>
0.378224913937964

> <r_i_glide_esite>
0

> <r_i_glide_emodel>
-34.3959724605948

> <r_i_glide_energy>
-25.8853185176849

> <r_i_glide_einternal>
12.4399871826172

> <i_i_glide_confnum>
14

> <i_i_glide_posenum>
29

> <r_i_glide_eff_state_penalty>
0

> <s_user_duplicate_titles>
CHEMBL2061_lig443

> <i_f3d_flags>
0

> <s_m_subgroup_title>
dock_pv

> <s_m_subgroupid>
dock_pv

> <b_m_subgroup_collapsed>
1

$$$$
CHEMBL2061_lig369
                    3D
 Schrodinger Suite 2021-1.
 58 60  0  0  1  0            999 V2000
   63.7237   45.6482   32.2131 C   0  0  0  0  0  0
   62.2028   46.5072   28.7400 C   0  0  0  0  0  0
   63.1352   46.6639   33.0162 C   0  0  0  0  0  0
   63.4029   45.6229   30.8416 C   0  0  0  0  0  0
   62.5293   46.5422   30.2450 C   0  0  0  0  0  0
   62.3423   45.1809   27.9864 C   0  0  0  0  0  0
   63.3154   46.2968   27.7367 C   0  0  0  0  0  0
   64.7399   44.6290   32.7964 C   0  0  0  0  0  0
   63.3641   46.7824   34.5435 C   0  0  0  0  0  0
   62.2725   47.5805   32.4009 C   0  0  0  0  0  0
   56.8355   45.8521   29.3451 C   0  0  0  0  0  0
   55.4534   45.6693   29.7272 C   0  0  0  0  0  0
   57.9374   45.6565   30.1212 C   0  0  0  0  0  0
   59.5848   46.9653   28.7899 C   0  0  0  0  0  0
   61.9987   47.5421   31.0466 C   0  0  0  0  0  0
   59.2625   45.9133   29.5694 C   0  0  0  0  0  0
   64.5985   44.5524   34.3388 C   0  0  0  0  0  0
   64.5824   45.9327   34.9922 C   0  0  0  0  0  0
   54.5407   46.3969   29.3390 O   0  0  0  0  0  0
   60.9597   47.2984   28.2150 C   0  0  0  0  0  0
   55.2546   44.5798   30.5229 O   0  0  0  0  0  0
   64.4893   43.1854   32.2885 C   0  0  0  0  0  0
   66.1640   45.1167   32.4348 C   0  0  0  0  0  0
   63.7213   48.2460   34.8938 C   0  0  0  0  0  0
   62.0783   46.2820   35.2613 C   0  0  0  0  0  0
   57.8843   45.2772   31.5979 C   0  0  0  0  0  0
   63.8745   44.8788   30.2206 H   0  0  0  0  0  0
   62.6750   44.2845   28.5093 H   0  0  0  0  0  0
   61.6089   44.9321   27.2175 H   0  0  0  0  0  0
   63.2795   46.8389   26.7908 H   0  0  0  0  0  0
   64.3293   46.2288   28.1329 H   0  0  0  0  0  0
   61.8084   48.3618   32.9802 H   0  0  0  0  0  0
   56.9400   46.1851   28.3236 H   0  0  0  0  0  0
   58.8104   47.6741   28.5384 H   0  0  0  0  0  0
   61.3415   48.2932   30.6384 H   0  0  0  0  0  0
   60.0416   45.2073   29.8221 H   0  0  0  0  0  0
   65.4088   43.9582   34.7676 H   0  0  0  0  0  0
   63.6793   44.0302   34.6116 H   0  0  0  0  0  0
   65.5189   46.4394   34.7592 H   0  0  0  0  0  0
   64.5930   45.8243   36.0780 H   0  0  0  0  0  0
   60.8731   47.2151   27.1298 H   0  0  0  0  0  0
   61.1338   48.3611   28.3900 H   0  0  0  0  0  0
   56.0859   44.1222   30.6608 H   0  0  0  0  0  0
   65.1877   42.4910   32.7579 H   0  0  0  0  0  0
   63.5024   42.8174   32.5397 H   0  0  0  0  0  0
   64.6245   43.0815   31.2119 H   0  0  0  0  0  0
   66.9204   44.5135   32.9375 H   0  0  0  0  0  0
   66.3476   45.0370   31.3632 H   0  0  0  0  0  0
   66.3356   46.1592   32.7066 H   0  0  0  0  0  0
   64.1718   48.3450   35.8831 H   0  0  0  0  0  0
   64.4081   48.6514   34.1466 H   0  0  0  0  0  0
   62.8360   48.8770   34.8877 H   0  0  0  0  0  0
   62.2941   45.6815   36.1393 H   0  0  0  0  0  0
   61.4534   47.1123   35.5900 H   0  0  0  0  0  0
   61.4483   45.6773   34.6104 H   0  0  0  0  0  0
   58.6927   45.7789   32.1333 H   0  0  0  0  0  0
   56.9799   45.6328   32.0892 H   0  0  0  0  0  0
   58.0076   44.2028   31.7390 H   0  0  0  0  0  0
  1  3  2  0  0  0
  1  4  1  0  0  0
  1  8  1  0  0  0
  2  5  1  0  0  0
  2  6  1  0  0  0
  2  7  1  0  0  0
  2 20  1  0  0  0
  3  9  1  0  0  0
  3 10  1  0  0  0
  4  5  2  0  0  0
  4 27  1  0  0  0
  5 15  1  0  0  0
  6  7  1  0  0  0
  6 28  1  0  0  0
  6 29  1  0  0  0
  7 30  1  0  0  0
  7 31  1  0  0  0
  8 17  1  0  0  0
  8 22  1  0  0  0
  8 23  1  0  0  0
  9 24  1  0  0  0
  9 25  1  0  0  0
  9 18  1  0  0  0
 10 15  2  0  0  0
 10 32  1  0  0  0
 11 13  2  0  0  0
 11 12  1  0  0  0
 11 33  1  0  0  0
 12 19  2  0  0  0
 12 21  1  0  0  0
 13 16  1  0  0  0
 13 26  1  0  0  0
 14 20  1  0  0  0
 14 16  2  0  0  0
 14 34  1  0  0  0
 15 35  1  0  0  0
 16 36  1  0  0  0
 17 18  1  0  0  0
 17 37  1  0  0  0
 17 38  1  0  0  0
 18 39  1  0  0  0
 18 40  1  0  0  0
 20 41  1  0  0  0
 20 42  1  0  0  0
 21 43  1  0  0  0
 22 44  1  0  0  0
 22 45  1  0  0  0
 22 46  1  0  0  0
 23 47  1  0  0  0
 23 48  1  0  0  0
 23 49  1  0  0  0
 24 50  1  0  0  0
 24 51  1  0  0  0
 24 52  1  0  0  0
 25 53  1  0  0  0
 25 54  1  0  0  0
 25 55  1  0  0  0
 26 56  1  0  0  0
 26 57  1  0  0  0
 26 58  1  0  0  0
M  END
> <s_m_entry_id>
31044

> <s_m_entry_name>
dock_pv.257

> <s_m_Source_Path>
/home/csk/Desktop/cluster/DUD-E-result/rxra

> <s_m_Source_File>
dock_pv.maegz

> <i_m_Source_File_Index>
257

> <chembl_id>
CHEMBL89331

> <chembl_pref_name>
None

> <i_lp_mmshare_version>
53161

> <r_lp_tautomer_probability>
1

> <s_lp_Force_Field>
OPLS_2005

> <r_lp_Energy>
33.066698

> <b_lp_Chiralities_Consistent>
1

> <s_lp_Variant>
CHEMBL2061_lig369-1

> <s_i_glide_gridfile>
glide-grid_1mv9

> <i_i_glide_lignum>
429

> <i_i_glide_rotatable_bonds>
6

> <r_i_docking_score>
-10.120590326507

> <r_i_glide_ligand_efficiency>
-0.389253474096422

> <r_i_glide_ligand_efficiency_sa>
-1.15316188537219

> <r_i_glide_ligand_efficiency_ln>
-2.37678742981471

> <r_i_glide_gscore>
-10.120590326507

> <r_i_glide_lipo>
-6.18112693837477

> <r_i_glide_hbond>
0

> <r_i_glide_metal>
0

> <r_i_glide_rewards>
-2.16546085994792

> <r_i_glide_evdw>
-44.9137306213379

> <r_i_glide_ecoul>
-1.97515642642975

> <r_i_glide_erotb>
0.767957466847072

> <r_i_glide_esite>
0

> <r_i_glide_emodel>
-71.1308755305907

> <r_i_glide_energy>
-46.8888870477676

> <r_i_glide_einternal>
4.19502067565918

> <i_i_glide_confnum>
33

> <i_i_glide_posenum>
57

> <r_i_glide_eff_state_penalty>
0

> <s_user_duplicate_titles>
CHEMBL2061_lig369,142996

> <i_f3d_flags>
0

> <s_m_subgroup_title>
dock_pv

> <s_m_subgroupid>
dock_pv

> <b_m_subgroup_collapsed>
1

$$$$
CHEMBL2061_lig556 
                    3D
 Schrodinger Suite 2021-1.
 42 44  0  0  1  0            999 V2000
   61.0172   46.5862   30.9518 C   0  0  0  0  0  0
   61.8645   47.2238   30.0401 C   0  0  0  0  0  0
   61.4885   47.1878   28.6937 C   0  0  0  0  0  0
   60.2951   46.6692   28.2900 N   0  0  0  0  0  0
   59.5099   46.1477   29.2584 C   0  0  0  0  0  0
   59.8264   46.0751   30.5761 N   0  0  0  0  0  0
   61.3102   46.4899   32.3129 N   0  0  0  0  0  0
   62.5517   46.4795   32.9600 C   0  0  0  0  0  0
   62.6164   47.0356   34.2412 C   0  0  0  0  0  0
   63.8190   47.0441   34.9472 C   0  0  0  0  0  0
   64.9613   46.4909   34.3732 C   0  0  0  0  0  0
   58.2923   45.6774   28.8165 O   0  0  0  0  0  0
   57.4252   44.9762   29.7054 C   0  0  0  0  0  0
   55.9983   45.3446   29.2884 C   0  0  0  0  0  0
   54.9610   45.0258   30.3525 C   0  0  0  0  0  0
   55.2029   45.6733   31.5273 O   0  0  0  0  0  0
   54.0075   44.2909   30.1424 O   0  0  0  0  0  0
   63.7027   45.9050   32.3915 C   0  0  0  0  0  0
   64.9020   45.9375   33.0980 C   0  0  0  0  0  0
   66.0035   45.2776   32.3126 C   0  0  0  0  0  0
   65.3736   44.9438   30.9599 C   0  0  0  0  0  0
   63.8795   45.0344   31.1575 C   0  0  0  0  0  0
   62.4303   47.6606   27.5982 C   0  0  0  0  0  0
   63.2075   46.6455   27.2327 F   0  0  0  0  0  0
   61.7444   48.0767   26.5429 F   0  0  0  0  0  0
   63.2083   48.6616   27.9959 F   0  0  0  0  0  0
   62.8036   47.6526   30.3561 H   0  0  0  0  0  0
   60.5062   46.3549   32.9046 H   0  0  0  0  0  0
   61.7348   47.4682   34.6939 H   0  0  0  0  0  0
   63.8632   47.4747   35.9366 H   0  0  0  0  0  0
   65.8882   46.4754   34.9235 H   0  0  0  0  0  0
   57.5851   45.2166   30.7576 H   0  0  0  0  0  0
   57.5952   43.9027   29.6226 H   0  0  0  0  0  0
   55.7506   44.8985   28.3267 H   0  0  0  0  0  0
   55.9417   46.4198   29.1212 H   0  0  0  0  0  0
   56.0094   46.1948   31.5071 H   0  0  0  0  0  0
   66.8085   45.9829   32.1567 H   0  0  0  0  0  0
   66.3757   44.3850   32.8132 H   0  0  0  0  0  0
   65.6825   45.6806   30.2164 H   0  0  0  0  0  0
   65.6278   43.9681   30.5511 H   0  0  0  0  0  0
   63.4853   44.0415   31.3612 H   0  0  0  0  0  0
   63.4095   45.3493   30.2370 H   0  0  0  0  0  0
  1  2  2  0  0  0
  1  6  1  0  0  0
  1  7  1  0  0  0
  2  3  1  0  0  0
  2 27  1  0  0  0
  3  4  2  0  0  0
  3 23  1  0  0  0
  4  5  1  0  0  0
  5  6  2  0  0  0
  5 12  1  0  0  0
  7  8  1  0  0  0
  7 28  1  0  0  0
  8  9  2  0  0  0
  8 18  1  0  0  0
  9 10  1  0  0  0
  9 29  1  0  0  0
 10 11  2  0  0  0
 10 30  1  0  0  0
 11 19  1  0  0  0
 11 31  1  0  0  0
 12 13  1  0  0  0
 13 14  1  0  0  0
 13 32  1  0  0  0
 13 33  1  0  0  0
 14 15  1  0  0  0
 14 34  1  0  0  0
 14 35  1  0  0  0
 15 16  1  0  0  0
 15 17  2  0  0  0
 16 36  1  0  0  0
 18 19  2  0  0  0
 18 22  1  0  0  0
 19 20  1  0  0  0
 20 21  1  0  0  0
 20 37  1  0  0  0
 20 38  1  0  0  0
 21 22  1  0  0  0
 21 39  1  0  0  0
 21 40  1  0  0  0
 22 41  1  0  0  0
 22 42  1  0  0  0
 23 24  1  0  0  0
 23 25  1  0  0  0
 23 26  1  0  0  0
M  END
> <s_m_entry_id>
31045

> <s_m_entry_name>
dock_pv.258

> <s_m_Source_Path>
/home/csk/Desktop/cluster/DUD-E-result/rxra

> <s_m_Source_File>
dock_pv.maegz

> <i_m_Source_File_Index>
258

> <chembl_id>
CHEMBL4518775

> <chembl_pref_name>
None

> <i_lp_mmshare_version>
53161

> <r_lp_tautomer_probability>
0.99999999732158

> <s_lp_Force_Field>
OPLS_2005

> <r_lp_Energy>
25.03421

> <b_lp_Chiralities_Consistent>
1

> <s_lp_Variant>
CHEMBL2061_lig556 -1

> <s_i_glide_gridfile>
glide-grid_1mv9

> <i_i_glide_lignum>
656

> <i_i_glide_rotatable_bonds>
8

> <r_i_docking_score>
-10.1185028090543

> <r_i_glide_ligand_efficiency>
-0.389173184963628

> <r_i_glide_ligand_efficiency_sa>
-1.15292402913221

> <r_i_glide_ligand_efficiency_ln>
-2.37629718319065

> <r_i_glide_gscore>
-10.1185028090543

> <r_i_glide_lipo>
-4.42159274178485

> <r_i_glide_hbond>
-0.32

> <r_i_glide_metal>
0

> <r_i_glide_rewards>
-3.25742387588796

> <r_i_glide_evdw>
-45.8354034423828

> <r_i_glide_ecoul>
-4.56046533584595

> <r_i_glide_erotb>
0.856353781114519

> <r_i_glide_esite>
0

> <r_i_glide_emodel>
-67.9976762986917

> <r_i_glide_energy>
-50.3958687782288

> <r_i_glide_einternal>
24.055212020874

> <i_i_glide_confnum>
10

> <i_i_glide_posenum>
263

> <r_i_glide_eff_state_penalty>
0

> <s_user_duplicate_titles>
CHEMBL2061_lig556 

> <i_f3d_flags>
0

> <s_m_subgroup_title>
dock_pv

> <s_m_subgroupid>
dock_pv

> <b_m_subgroup_collapsed>
1

$$$$
CHEMBL2061_lig94 
                    3D
 Schrodinger Suite 2021-1.
 55 57  0  0  1  0            999 V2000
   64.9528   43.9435   33.6672 C   0  0  0  0  0  0
   65.0283   45.4453   33.2901 C   0  0  0  0  0  0
   66.4078   45.8376   32.7099 C   0  0  0  0  0  0
   62.5354   48.4701   34.1515 C   0  0  0  0  0  0
   62.4140   46.9326   34.0492 C   0  0  0  0  0  0
   61.0046   46.4140   34.4504 C   0  0  0  0  0  0
   64.0243   45.2580   30.9567 C   0  0  0  0  0  0
   63.0250   45.4303   30.0082 C   0  0  0  0  0  0
   61.8759   46.1680   30.3035 C   0  0  0  0  0  0
   61.7895   46.7270   31.5822 C   0  0  0  0  0  0
   63.9103   45.7581   32.2630 C   0  0  0  0  0  0
   62.7300   46.4767   32.6005 C   0  0  0  0  0  0
   63.4012   46.3019   35.0710 C   0  0  0  0  0  0
   64.8480   46.2972   34.5730 C   0  0  0  0  0  0
   60.8168   46.3024   29.3592 N   0  0  0  0  0  0
   59.4201   46.0511   29.5695 C   0  0  0  0  0  0
   61.2634   46.6130   27.9844 C   0  0  0  0  0  0
   58.9327   45.6770   30.8303 C   0  0  0  0  0  0
   57.5946   45.3674   31.0557 C   0  0  0  0  0  0
   56.6564   45.5111   30.0332 C   0  0  0  0  0  0
   57.1078   45.8856   28.7663 C   0  0  0  0  0  0
   58.4638   46.1313   28.5397 C   0  0  0  0  0  0
   55.1994   45.2770   30.3142 C   0  0  0  0  0  0
   54.8079   44.4769   31.1548 O   0  0  0  0  0  0
   54.3561   46.0769   29.6038 O   0  0  0  0  0  0
   61.0375   48.0782   27.5924 C   0  0  0  0  0  0
   56.2292   46.0369   27.7471 F   0  0  0  0  0  0
   65.6665   43.6899   34.4523 H   0  0  0  0  0  0
   63.9627   43.6474   34.0144 H   0  0  0  0  0  0
   65.1866   43.3075   32.8141 H   0  0  0  0  0  0
   67.1934   45.7310   33.4585 H   0  0  0  0  0  0
   66.6954   45.2108   31.8660 H   0  0  0  0  0  0
   66.4183   46.8739   32.3697 H   0  0  0  0  0  0
   62.1148   48.8074   35.0970 H   0  0  0  0  0  0
   63.5662   48.8187   34.1322 H   0  0  0  0  0  0
   62.0081   48.9861   33.3499 H   0  0  0  0  0  0
   60.8073   46.5898   35.5082 H   0  0  0  0  0  0
   60.1986   46.8850   33.8942 H   0  0  0  0  0  0
   60.8955   45.3457   34.2665 H   0  0  0  0  0  0
   64.8857   44.6704   30.6767 H   0  0  0  0  0  0
   63.1456   44.9461   29.0511 H   0  0  0  0  0  0
   60.9259   47.3285   31.8172 H   0  0  0  0  0  0
   63.1157   45.2762   35.3032 H   0  0  0  0  0  0
   63.3457   46.8258   36.0267 H   0  0  0  0  0  0
   65.5071   45.9343   35.3639 H   0  0  0  0  0  0
   65.1650   47.3256   34.3949 H   0  0  0  0  0  0
   62.3237   46.4209   27.8269 H   0  0  0  0  0  0
   60.7703   45.9543   27.2696 H   0  0  0  0  0  0
   59.5737   45.6770   31.6914 H   0  0  0  0  0  0
   57.2889   45.1129   32.0595 H   0  0  0  0  0  0
   58.7458   46.4140   27.5395 H   0  0  0  0  0  0
   54.8670   46.5482   28.9397 H   0  0  0  0  0  0
   61.2795   48.2140   26.5400 H   0  0  0  0  0  0
   60.0086   48.3986   27.7427 H   0  0  0  0  0  0
   61.6796   48.7440   28.1695 H   0  0  0  0  0  0
  1  2  1  0  0  0
  1 28  1  0  0  0
  1 29  1  0  0  0
  1 30  1  0  0  0
  2  3  1  0  0  0
  2 11  1  0  0  0
  2 14  1  0  0  0
  3 31  1  0  0  0
  3 32  1  0  0  0
  3 33  1  0  0  0
  4  5  1  0  0  0
  4 34  1  0  0  0
  4 35  1  0  0  0
  4 36  1  0  0  0
  5  6  1  0  0  0
  5 12  1  0  0  0
  5 13  1  0  0  0
  6 37  1  0  0  0
  6 38  1  0  0  0
  6 39  1  0  0  0
  7 11  1  0  0  0
  7  8  2  0  0  0
  7 40  1  0  0  0
  8  9  1  0  0  0
  8 41  1  0  0  0
  9 10  2  0  0  0
  9 15  1  0  0  0
 10 12  1  0  0  0
 10 42  1  0  0  0
 11 12  2  0  0  0
 13 14  1  0  0  0
 13 43  1  0  0  0
 13 44  1  0  0  0
 14 45  1  0  0  0
 14 46  1  0  0  0
 15 16  1  0  0  0
 15 17  1  0  0  0
 16 18  2  0  0  0
 16 22  1  0  0  0
 17 26  1  0  0  0
 17 47  1  0  0  0
 17 48  1  0  0  0
 18 19  1  0  0  0
 18 49  1  0  0  0
 19 20  2  0  0  0
 19 50  1  0  0  0
 20 21  1  0  0  0
 20 23  1  0  0  0
 21 22  2  0  0  0
 21 27  1  0  0  0
 22 51  1  0  0  0
 23 24  2  0  0  0
 23 25  1  0  0  0
 25 52  1  0  0  0
 26 53  1  0  0  0
 26 54  1  0  0  0
 26 55  1  0  0  0
M  END
> <s_m_entry_id>
31046

> <s_m_entry_name>
dock_pv.259

> <s_m_Source_Path>
/home/csk/Desktop/cluster/DUD-E-result/rxra

> <s_m_Source_File>
dock_pv.maegz

> <i_m_Source_File_Index>
259

> <chembl_id>
CHEMBL4560758

> <chembl_pref_name>
None

> <i_lp_mmshare_version>
53161

> <r_lp_tautomer_probability>
1

> <s_lp_Force_Field>
OPLS_2005

> <r_lp_Energy>
31.354487

> <b_lp_Chiralities_Consistent>
1

> <s_lp_Variant>
CHEMBL2061_lig94 -1

> <s_i_glide_gridfile>
glide-grid_1mv9

> <i_i_glide_lignum>
133

> <i_i_glide_rotatable_bonds>
5

> <r_i_docking_score>
-10.1059273628628

> <r_i_glide_ligand_efficiency>
-0.374293606031957

> <r_i_glide_ligand_efficiency_sa>
-1.12288081686226

> <r_i_glide_ligand_efficiency_ln>
-2.35249328084067

> <r_i_glide_gscore>
-10.1059273628628

> <r_i_glide_lipo>
-6.13745582541398

> <r_i_glide_hbond>
-0.124364980064268

> <r_i_glide_metal>
0

> <r_i_glide_rewards>
-1.64713813086865

> <r_i_glide_evdw>
-44.9447135925293

> <r_i_glide_ecoul>
-2.48979210853577

> <r_i_glide_erotb>
0.423736069390894

> <r_i_glide_esite>
0

> <r_i_glide_emodel>
-70.5059839926102

> <r_i_glide_energy>
-47.4345057010651

> <r_i_glide_einternal>
6.16337823867798

> <i_i_glide_confnum>
35

> <i_i_glide_posenum>
38

> <r_i_glide_eff_state_penalty>
0

> <s_user_duplicate_titles>
CHEMBL2061_lig94 

> <i_f3d_flags>
0

> <s_m_subgroup_title>
dock_pv

> <s_m_subgroupid>
dock_pv

> <b_m_subgroup_collapsed>
1

$$$$
CHEMBL2061_lig465
                    3D
 Schrodinger Suite 2021-1.
 43 45  0  0  1  0            999 V2000
   62.8105   46.5981   34.5769 C   0  0  0  0  0  0
   64.1790   46.3161   34.2018 C   0  0  0  0  0  0
   64.6230   46.1116   32.9390 C   0  0  0  0  0  0
   61.9168   46.5230   33.5489 N   0  0  0  0  0  0
   62.2825   46.4078   32.1754 C   0  0  0  0  0  0
   63.6281   46.1984   31.8216 C   0  0  0  0  0  0
   63.9136   46.0773   30.4551 C   0  0  0  0  0  0
   62.8782   46.1029   29.5178 C   0  0  0  0  0  0
   61.5417   46.2755   29.9341 C   0  0  0  0  0  0
   61.2933   46.4780   31.2501 N   0  0  0  0  0  0
   62.5225   46.8580   35.7392 O   0  0  0  0  0  0
   66.0960   45.7579   32.7004 C   0  0  0  0  0  0
   60.4196   46.2407   29.0401 N   0  0  0  0  0  0
   59.0268   46.0037   29.3350 C   0  0  0  0  0  0
   58.5514   45.6724   30.6173 C   0  0  0  0  0  0
   57.1997   45.4258   30.8455 C   0  0  0  0  0  0
   56.2862   45.5372   29.7998 C   0  0  0  0  0  0
   56.7898   45.8793   28.5500 C   0  0  0  0  0  0
   58.1133   46.0773   28.3215 N   0  0  0  0  0  0
   54.8103   45.4263   30.0304 C   0  0  0  0  0  0
   54.4499   44.4782   30.9382 O   0  0  0  0  0  0
   54.0066   46.1480   29.4478 O   0  0  0  0  0  0
   60.7607   46.4852   27.6140 C   0  0  0  0  0  0
   61.1800   47.9390   27.3296 C   0  0  0  0  0  0
   60.4884   46.5727   33.9332 C   0  0  0  0  0  0
   66.5763   45.0550   33.7294 F   0  0  0  0  0  0
   66.2687   45.0106   31.6133 F   0  0  0  0  0  0
   66.8044   46.8766   32.6021 F   0  0  0  0  0  0
   64.8783   46.2527   35.0237 H   0  0  0  0  0  0
   64.9190   45.9553   30.0862 H   0  0  0  0  0  0
   63.1541   45.9653   28.4864 H   0  0  0  0  0  0
   59.1641   45.6619   31.4913 H   0  0  0  0  0  0
   56.8715   45.2769   31.8600 H   0  0  0  0  0  0
   56.1265   46.0108   27.7078 H   0  0  0  0  0  0
   55.2139   43.9702   31.2199 H   0  0  0  0  0  0
   61.5500   45.8087   27.2918 H   0  0  0  0  0  0
   59.9613   46.2316   26.9217 H   0  0  0  0  0  0
   61.3792   48.0757   26.2674 H   0  0  0  0  0  0
   60.3968   48.6424   27.6099 H   0  0  0  0  0  0
   62.0845   48.2222   27.8675 H   0  0  0  0  0  0
   60.3114   47.2706   34.7533 H   0  0  0  0  0  0
   59.8230   46.8769   33.1287 H   0  0  0  0  0  0
   60.1647   45.5849   34.2628 H   0  0  0  0  0  0
  1  2  1  0  0  0
  1  4  1  0  0  0
  1 11  2  0  0  0
  2  3  2  0  0  0
  2 29  1  0  0  0
  3  6  1  0  0  0
  3 12  1  0  0  0
  4  5  1  0  0  0
  4 25  1  0  0  0
  5  6  2  0  0  0
  5 10  1  0  0  0
  6  7  1  0  0  0
  7  8  2  0  0  0
  7 30  1  0  0  0
  8  9  1  0  0  0
  8 31  1  0  0  0
  9 10  2  0  0  0
  9 13  1  0  0  0
 12 26  1  0  0  0
 12 27  1  0  0  0
 12 28  1  0  0  0
 13 14  1  0  0  0
 13 23  1  0  0  0
 14 15  2  0  0  0
 14 19  1  0  0  0
 15 16  1  0  0  0
 15 32  1  0  0  0
 16 17  2  0  0  0
 16 33  1  0  0  0
 17 18  1  0  0  0
 17 20  1  0  0  0
 18 19  2  0  0  0
 18 34  1  0  0  0
 20 21  1  0  0  0
 20 22  2  0  0  0
 21 35  1  0  0  0
 23 24  1  0  0  0
 23 36  1  0  0  0
 23 37  1  0  0  0
 24 38  1  0  0  0
 24 39  1  0  0  0
 24 40  1  0  0  0
 25 41  1  0  0  0
 25 42  1  0  0  0
 25 43  1  0  0  0
M  END
> <s_m_entry_id>
31047

> <s_m_entry_name>
dock_pv.260

> <s_m_Source_Path>
/home/csk/Desktop/cluster/DUD-E-result/rxra

> <s_m_Source_File>
dock_pv.maegz

> <i_m_Source_File_Index>
260

> <chembl_id>
CHEMBL1223374

> <chembl_pref_name>
None

> <i_lp_mmshare_version>
53161

> <r_lp_tautomer_probability>
1

> <s_lp_Force_Field>
OPLS_2005

> <r_lp_Energy>
32.345806

> <b_lp_Chiralities_Consistent>
1

> <s_lp_Variant>
CHEMBL2061_lig465-1

> <s_i_glide_gridfile>
glide-grid_1mv9

> <i_i_glide_lignum>
554

> <i_i_glide_rotatable_bonds>
6

> <r_i_docking_score>
-10.1002740813404

> <r_i_glide_ligand_efficiency>
-0.360724074333587

> <r_i_glide_ligand_efficiency_sa>
-1.09537074479476

> <r_i_glide_ligand_efficiency_ln>
-2.3314398149066

> <r_i_glide_gscore>
-10.1002740813404

> <r_i_glide_lipo>
-4.59841582598489

> <r_i_glide_hbond>
-0.0565803190073061

> <r_i_glide_metal>
0

> <r_i_glide_rewards>
-2.83418579167467

> <r_i_glide_evdw>
-45.2924919128418

> <r_i_glide_ecoul>
-4.84657335281372

> <r_i_glide_erotb>
0.380518453890587

> <r_i_glide_esite>
0

> <r_i_glide_emodel>
-69.7988314224557

> <r_i_glide_energy>
-50.1390652656555

> <r_i_glide_einternal>
9.87566661834717

> <i_i_glide_confnum>
12

> <i_i_glide_posenum>
231

> <r_i_glide_eff_state_penalty>
0

> <s_user_duplicate_titles>
CHEMBL2061_lig465

> <i_f3d_flags>
0

> <s_m_subgroup_title>
dock_pv

> <s_m_subgroupid>
dock_pv

> <b_m_subgroup_collapsed>
1

$$$$
CHEMBL2061_lig332
                    3D
 Schrodinger Suite 2021-1.
 50 52  0  0  1  0            999 V2000
   63.0850   46.6170   32.8488 C   0  0  0  0  0  0
   64.3264   45.9560   32.6352 C   0  0  0  0  0  0
   62.3307   47.0038   31.7276 C   0  0  0  0  0  0
   62.6777   46.6498   30.4271 C   0  0  0  0  0  0
   64.6957   45.6671   31.3142 C   0  0  0  0  0  0
   57.3835   45.5096   29.7531 C   0  0  0  0  0  0
   55.9319   45.2126   30.0204 C   0  0  0  0  0  0
   65.2473   45.5125   33.8005 C   0  0  0  0  0  0
   62.5401   46.9494   34.2599 C   0  0  0  0  0  0
   61.6112   47.0826   29.0518 S   0  0  0  0  0  0
   63.8955   45.9965   30.2210 C   0  0  0  0  0  0
   59.0971   46.4884   28.3295 N   0  0  0  0  0  0
   60.0002   46.3583   29.3348 C   0  0  0  0  0  0
   57.8175   46.0770   28.5483 C   0  0  0  0  0  0
   55.4397   45.2760   31.1458 O   0  0  0  0  0  0
   64.8912   46.3188   35.0698 C   0  0  0  0  0  0
   63.3959   46.2952   35.3748 C   0  0  0  0  0  0
   58.3389   45.3257   30.7531 C   0  0  0  0  0  0
   59.6491   45.7513   30.5392 C   0  0  0  0  0  0
   55.2080   44.8768   28.9213 O   0  0  0  0  0  0
   62.6059   48.4768   34.4656 C   0  0  0  0  0  0
   65.0313   44.0022   34.0570 C   0  0  0  0  0  0
   66.7356   45.8392   33.5115 C   0  0  0  0  0  0
   61.1048   46.3776   34.4068 C   0  0  0  0  0  0
   64.3873   45.6420   28.8326 C   0  0  0  0  0  0
   61.4185   47.5613   31.8735 H   0  0  0  0  0  0
   65.6255   45.1510   31.1288 H   0  0  0  0  0  0
   57.1263   46.2440   27.7393 H   0  0  0  0  0  0
   65.2063   47.3549   34.9390 H   0  0  0  0  0  0
   65.4477   45.9461   35.9312 H   0  0  0  0  0  0
   63.2195   46.8010   36.3238 H   0  0  0  0  0  0
   63.0897   45.2657   35.5529 H   0  0  0  0  0  0
   58.0632   44.9112   31.7135 H   0  0  0  0  0  0
   60.3390   45.6769   31.3548 H   0  0  0  0  0  0
   55.7517   44.6254   28.1722 H   0  0  0  0  0  0
   62.2281   48.7475   35.4523 H   0  0  0  0  0  0
   63.6200   48.8653   34.3861 H   0  0  0  0  0  0
   62.0081   49.0134   33.7318 H   0  0  0  0  0  0
   65.5824   43.6783   34.9382 H   0  0  0  0  0  0
   63.9837   43.7420   34.2046 H   0  0  0  0  0  0
   65.3919   43.4000   33.2225 H   0  0  0  0  0  0
   67.3522   45.6949   34.4004 H   0  0  0  0  0  0
   67.1644   45.1871   32.7533 H   0  0  0  0  0  0
   66.8742   46.8694   33.1826 H   0  0  0  0  0  0
   60.7463   46.4772   35.4316 H   0  0  0  0  0  0
   60.3841   46.8807   33.7660 H   0  0  0  0  0  0
   61.0597   45.3222   34.1396 H   0  0  0  0  0  0
   65.4140   45.2774   28.8501 H   0  0  0  0  0  0
   63.7407   44.8814   28.3933 H   0  0  0  0  0  0
   64.3682   46.5190   28.1821 H   0  0  0  0  0  0
  1  2  2  0  0  0
  1  3  1  0  0  0
  1  9  1  0  0  0
  2  5  1  0  0  0
  2  8  1  0  0  0
  3  4  2  0  0  0
  3 26  1  0  0  0
  4 10  1  0  0  0
  4 11  1  0  0  0
  5 11  2  0  0  0
  5 27  1  0  0  0
  6 18  1  0  0  0
  6  7  1  0  0  0
  6 14  2  0  0  0
  7 15  2  0  0  0
  7 20  1  0  0  0
  8 22  1  0  0  0
  8 23  1  0  0  0
  8 16  1  0  0  0
  9 17  1  0  0  0
  9 21  1  0  0  0
  9 24  1  0  0  0
 10 13  1  0  0  0
 11 25  1  0  0  0
 12 13  2  0  0  0
 12 14  1  0  0  0
 13 19  1  0  0  0
 14 28  1  0  0  0
 16 17  1  0  0  0
 16 29  1  0  0  0
 16 30  1  0  0  0
 17 31  1  0  0  0
 17 32  1  0  0  0
 18 19  2  0  0  0
 18 33  1  0  0  0
 19 34  1  0  0  0
 20 35  1  0  0  0
 21 36  1  0  0  0
 21 37  1  0  0  0
 21 38  1  0  0  0
 22 39  1  0  0  0
 22 40  1  0  0  0
 22 41  1  0  0  0
 23 42  1  0  0  0
 23 43  1  0  0  0
 23 44  1  0  0  0
 24 45  1  0  0  0
 24 46  1  0  0  0
 24 47  1  0  0  0
 25 48  1  0  0  0
 25 49  1  0  0  0
 25 50  1  0  0  0
M  END
> <s_m_entry_id>
31048

> <s_m_entry_name>
dock_pv.261

> <s_m_Source_Path>
/home/csk/Desktop/cluster/DUD-E-result/rxra

> <s_m_Source_File>
dock_pv.maegz

> <i_m_Source_File_Index>
261

> <chembl_id>
CHEMBL116886

> <chembl_pref_name>
None

> <i_lp_mmshare_version>
53161

> <r_lp_tautomer_probability>
1

> <s_lp_Force_Field>
OPLS_2005

> <r_lp_Energy>
21.816547

> <b_lp_Chiralities_Consistent>
1

> <s_lp_Variant>
CHEMBL2061_lig332-1

> <s_i_glide_gridfile>
glide-grid_1mv9

> <i_i_glide_lignum>
392

> <i_i_glide_rotatable_bonds>
4

> <r_i_docking_score>
-10.0990472810131

> <r_i_glide_ligand_efficiency>
-0.403961891240525

> <r_i_glide_ligand_efficiency_sa>
-1.18119173428194

> <r_i_glide_ligand_efficiency_ln>
-2.39377684962525

> <r_i_glide_gscore>
-10.0990472810131

> <r_i_glide_lipo>
-5.6964491271232

> <r_i_glide_hbond>
0

> <r_i_glide_metal>
0

> <r_i_glide_rewards>
-2.26990624184488

> <r_i_glide_evdw>
-45.758602142334

> <r_i_glide_ecoul>
-1.99115324020386

> <r_i_glide_erotb>
0.453911181102229

> <r_i_glide_esite>
0

> <r_i_glide_emodel>
-73.2308636690352

> <r_i_glide_energy>
-47.7497553825378

> <r_i_glide_einternal>
2.66291546821594

> <i_i_glide_confnum>
14

> <i_i_glide_posenum>
21

> <r_i_glide_eff_state_penalty>
0

> <s_user_duplicate_titles>
CHEMBL2061_lig332,195419

> <i_f3d_flags>
0

> <s_m_subgroup_title>
dock_pv

> <s_m_subgroupid>
dock_pv

> <b_m_subgroup_collapsed>
1

$$$$
CHEMBL2061_lig267
                    3D
 Schrodinger Suite 2021-1.
 57 59  0  0  1  0            999 V2000
   62.8468   46.5815   32.5368 C   0  0  0  0  0  0
   62.2978   46.6250   30.1305 C   0  0  0  0  0  0
   64.0581   45.8940   32.2455 C   0  0  0  0  0  0
   61.3132   46.9382   29.0472 C   0  0  0  0  0  0
   62.0272   46.9620   31.4591 C   0  0  0  0  0  0
   62.4129   46.9494   33.9828 C   0  0  0  0  0  0
   65.0519   45.4620   33.3551 C   0  0  0  0  0  0
   55.9306   44.8271   29.9609 C   0  0  0  0  0  0
   64.3237   45.5649   30.9032 C   0  0  0  0  0  0
   61.6804   47.6288   27.9182 C   0  0  0  0  0  0
   59.9197   46.4236   29.3282 C   0  0  0  0  0  0
   57.3200   45.3591   29.7588 C   0  0  0  0  0  0
   63.4641   45.9112   29.8677 C   0  0  0  0  0  0
   63.3200   46.2817   35.0500 C   0  0  0  0  0  0
   64.7972   46.2688   34.6540 C   0  0  0  0  0  0
   55.5861   44.1785   30.9386 O   0  0  0  0  0  0
   58.7863   47.0287   28.8032 C   0  0  0  0  0  0
   59.7000   45.3017   30.1379 C   0  0  0  0  0  0
   58.4205   44.7815   30.3802 C   0  0  0  0  0  0
   57.5184   46.4759   28.9630 C   0  0  0  0  0  0
   55.0805   45.0975   28.9390 O   0  0  0  0  0  0
   62.5386   48.4777   34.1630 C   0  0  0  0  0  0
   60.9730   46.4340   34.2500 C   0  0  0  0  0  0
   64.8604   43.9529   33.6389 C   0  0  0  0  0  0
   66.5010   45.7912   32.9371 C   0  0  0  0  0  0
   63.0532   48.2003   27.6440 C   0  0  0  0  0  0
   60.7988   47.9688   26.7397 C   0  0  0  0  0  0
   61.1227   47.5134   31.6658 H   0  0  0  0  0  0
   65.2093   45.0053   30.6445 H   0  0  0  0  0  0
   63.7040   45.6070   28.8593 H   0  0  0  0  0  0
   63.0062   45.2576   35.2347 H   0  0  0  0  0  0
   63.2042   46.7785   36.0153 H   0  0  0  0  0  0
   65.3902   45.8636   35.4762 H   0  0  0  0  0  0
   65.1423   47.2979   34.5383 H   0  0  0  0  0  0
   58.8591   47.9561   28.2660 H   0  0  0  0  0  0
   60.5727   44.8270   30.5381 H   0  0  0  0  0  0
   58.3121   43.9027   31.0003 H   0  0  0  0  0  0
   56.6417   46.9319   28.5390 H   0  0  0  0  0  0
   54.2732   44.6013   29.0677 H   0  0  0  0  0  0
   62.1299   48.7788   35.1267 H   0  0  0  0  0  0
   63.5723   48.8198   34.1389 H   0  0  0  0  0  0
   62.0081   49.0325   33.3909 H   0  0  0  0  0  0
   60.6574   46.6630   35.2665 H   0  0  0  0  0  0
   60.2336   46.8770   33.5867 H   0  0  0  0  0  0
   60.8891   45.3557   34.1235 H   0  0  0  0  0  0
   65.4417   43.6362   34.5052 H   0  0  0  0  0  0
   63.8191   43.6903   33.8256 H   0  0  0  0  0  0
   65.1962   43.3487   32.7974 H   0  0  0  0  0  0
   67.2078   45.5747   33.7382 H   0  0  0  0  0  0
   66.8079   45.1934   32.0810 H   0  0  0  0  0  0
   66.6213   46.8415   32.6663 H   0  0  0  0  0  0
   62.9965   49.2386   27.3158 H   0  0  0  0  0  0
   63.6110   48.2010   28.5446 H   0  0  0  0  0  0
   63.5865   47.6130   26.8968 H   0  0  0  0  0  0
   61.3512   48.0695   25.8072 H   0  0  0  0  0  0
   60.0108   47.2372   26.5877 H   0  0  0  0  0  0
   60.4077   48.9614   26.9391 H   0  0  0  0  0  0
  1  3  2  0  0  0
  1  5  1  0  0  0
  1  6  1  0  0  0
  2  5  2  0  0  0
  2  4  1  0  0  0
  2 13  1  0  0  0
  3  7  1  0  0  0
  3  9  1  0  0  0
  4 10  2  0  0  0
  4 11  1  0  0  0
  5 28  1  0  0  0
  6 14  1  0  0  0
  6 22  1  0  0  0
  6 23  1  0  0  0
  7 24  1  0  0  0
  7 25  1  0  0  0
  7 15  1  0  0  0
  8 12  1  0  0  0
  8 16  2  0  0  0
  8 21  1  0  0  0
  9 13  2  0  0  0
  9 29  1  0  0  0
 10 26  1  0  0  0
 10 27  1  0  0  0
 11 17  1  0  0  0
 11 18  2  0  0  0
 12 19  2  0  0  0
 12 20  1  0  0  0
 13 30  1  0  0  0
 14 15  1  0  0  0
 14 31  1  0  0  0
 14 32  1  0  0  0
 15 33  1  0  0  0
 15 34  1  0  0  0
 17 20  2  0  0  0
 17 35  1  0  0  0
 18 19  1  0  0  0
 18 36  1  0  0  0
 19 37  1  0  0  0
 20 38  1  0  0  0
 21 39  1  0  0  0
 22 40  1  0  0  0
 22 41  1  0  0  0
 22 42  1  0  0  0
 23 43  1  0  0  0
 23 44  1  0  0  0
 23 45  1  0  0  0
 24 46  1  0  0  0
 24 47  1  0  0  0
 24 48  1  0  0  0
 25 49  1  0  0  0
 25 50  1  0  0  0
 25 51  1  0  0  0
 26 52  1  0  0  0
 26 53  1  0  0  0
 26 54  1  0  0  0
 27 55  1  0  0  0
 27 56  1  0  0  0
 27 57  1  0  0  0
M  END
> <s_m_entry_id>
31049

> <s_m_entry_name>
dock_pv.262

> <s_m_Source_Path>
/home/csk/Desktop/cluster/DUD-E-result/rxra

> <s_m_Source_File>
dock_pv.maegz

> <i_m_Source_File_Index>
262

> <chembl_id>
CHEMBL24966

> <chembl_pref_name>
None

> <i_lp_mmshare_version>
53161

> <r_lp_tautomer_probability>
1

> <s_lp_Force_Field>
OPLS_2005

> <r_lp_Energy>
35.182153

> <b_lp_Chiralities_Consistent>
1

> <s_lp_Variant>
CHEMBL2061_lig267-1

> <s_i_glide_gridfile>
glide-grid_1mv9

> <i_i_glide_lignum>
310

> <i_i_glide_rotatable_bonds>
4

> <r_i_docking_score>
-10.087832613986

> <r_i_glide_ligand_efficiency>
-0.37362343014763

> <r_i_glide_ligand_efficiency_sa>
-1.12087028921149

> <r_i_glide_ligand_efficiency_ln>
-2.3482811216174

> <r_i_glide_gscore>
-10.087832613986

> <r_i_glide_lipo>
-6.51921012027949

> <r_i_glide_hbond>
0

> <r_i_glide_metal>
0

> <r_i_glide_rewards>
-2.28746931818182

> <r_i_glide_evdw>
-36.3905830383301

> <r_i_glide_ecoul>
0.666591107845306

> <r_i_glide_erotb>
0.438387310214999

> <r_i_glide_esite>
0

> <r_i_glide_emodel>
-50.5731877302389

> <r_i_glide_energy>
-35.7239919304848

> <r_i_glide_einternal>
3.50634455680847

> <i_i_glide_confnum>
34

> <i_i_glide_posenum>
266

> <r_i_glide_eff_state_penalty>
0

> <s_user_duplicate_titles>
CHEMBL2061_lig267,33217

> <i_f3d_flags>
0

> <s_m_subgroup_title>
dock_pv

> <s_m_subgroupid>
dock_pv

> <b_m_subgroup_collapsed>
1

$$$$
CHEMBL2061_lig113
                    3D
 Schrodinger Suite 2021-1.
 63 65  0  0  1  0            999 V2000
   62.7019   46.8300   31.1808 C   0  0  0  0  0  0
   59.8717   46.1595   30.3051 O   0  0  0  0  0  0
   58.7113   46.0740   29.5852 C   0  0  0  0  0  0
   60.8246   46.6749   29.4718 C   0  0  0  0  0  0
   63.8199   46.0233   31.4348 C   0  0  0  0  0  0
   62.1628   46.9456   29.7969 C   0  0  0  0  0  0
   64.3386   45.9031   32.7284 C   0  0  0  0  0  0
   58.9427   46.4750   28.2783 C   0  0  0  0  0  0
   62.1020   47.5008   32.2542 C   0  0  0  0  0  0
   57.4798   45.6381   30.2430 C   0  0  0  0  0  0
   60.3018   46.8623   28.1770 C   0  0  0  0  0  0
   63.7470   46.6036   33.7707 C   0  0  0  0  0  0
   62.6325   47.4066   33.5496 C   0  0  0  0  0  0
   56.2932   45.6928   29.5890 C   0  0  0  0  0  0
   55.0089   45.3196   30.1228 C   0  0  0  0  0  0
   54.8021   44.4113   30.9236 O   0  0  0  0  0  0
   65.5218   44.9975   33.0313 C   0  0  0  0  0  0
   62.0158   48.1877   34.7027 C   0  0  0  0  0  0
   64.2892   45.2072   30.4406 O   0  0  0  0  0  0
   54.0319   46.1246   29.6131 O   0  0  0  0  0  0
   62.9925   47.2484   28.7093 C   0  0  0  0  0  0
   61.1349   47.3387   27.1602 C   0  0  0  0  0  0
   57.6703   45.2004   31.6964 C   0  0  0  0  0  0
   62.4947   47.4793   27.4304 C   0  0  0  0  0  0
   65.1505   43.8583   33.9987 C   0  0  0  0  0  0
   66.7128   45.8248   33.5202 C   0  0  0  0  0  0
   63.4680   44.0575   30.3896 C   0  0  0  0  0  0
   63.0147   48.5779   35.8199 C   0  0  0  0  0  0
   60.8233   47.4538   35.3178 C   0  0  0  0  0  0
   63.9210   43.0308   29.3890 C   0  0  0  0  0  0
   65.2080   42.3705   29.8808 C   0  0  0  0  0  0
   58.2194   46.4758   27.4853 H   0  0  0  0  0  0
   61.2322   48.1129   32.0733 H   0  0  0  0  0  0
   64.1622   46.5018   34.7617 H   0  0  0  0  0  0
   56.2627   46.0441   28.5692 H   0  0  0  0  0  0
   65.8519   44.5273   32.1063 H   0  0  0  0  0  0
   61.6513   49.1087   34.2487 H   0  0  0  0  0  0
   54.4245   46.7578   29.0090 H   0  0  0  0  0  0
   64.0607   47.2760   28.8550 H   0  0  0  0  0  0
   60.7567   47.5274   26.1683 H   0  0  0  0  0  0
   58.0039   44.1616   31.7383 H   0  0  0  0  0  0
   58.3973   45.8116   32.2298 H   0  0  0  0  0  0
   56.7438   45.2786   32.2570 H   0  0  0  0  0  0
   63.1764   47.7540   26.6369 H   0  0  0  0  0  0
   64.4328   43.1782   33.5462 H   0  0  0  0  0  0
   66.0236   43.2718   34.2651 H   0  0  0  0  0  0
   64.7162   44.2237   34.9253 H   0  0  0  0  0  0
   66.8161   46.7598   32.9672 H   0  0  0  0  0  0
   66.6468   46.0690   34.5790 H   0  0  0  0  0  0
   67.6081   45.2480   33.3492 H   0  0  0  0  0  0
   63.5146   43.5813   31.3721 H   0  0  0  0  0  0
   62.4405   44.3295   30.1381 H   0  0  0  0  0  0
   63.8927   49.0791   35.4141 H   0  0  0  0  0  0
   62.5496   49.2574   36.5377 H   0  0  0  0  0  0
   63.3550   47.7165   36.3949 H   0  0  0  0  0  0
   60.0449   47.2551   34.5795 H   0  0  0  0  0  0
   61.1199   46.5003   35.7576 H   0  0  0  0  0  0
   60.4079   48.0773   36.1087 H   0  0  0  0  0  0
   63.1297   42.2936   29.2728 H   0  0  0  0  0  0
   64.0080   43.5112   28.4228 H   0  0  0  0  0  0
   65.6082   41.6787   29.1193 H   0  0  0  0  0  0
   65.9530   43.1270   30.1367 H   0  0  0  0  0  0
   65.0312   41.7819   30.7832 H   0  0  0  0  0  0
  1  5  1  0  0  0
  1  6  1  0  0  0
  1  9  2  0  0  0
  2  4  1  0  0  0
  2  3  1  0  0  0
  3 10  1  0  0  0
  3  8  2  0  0  0
  4  6  1  0  0  0
  4 11  2  0  0  0
  5  7  2  0  0  0
  5 19  1  0  0  0
  6 21  2  0  0  0
  7 17  1  0  0  0
  7 12  1  0  0  0
  8 11  1  0  0  0
  8 32  1  0  0  0
  9 13  1  0  0  0
  9 33  1  0  0  0
 10 14  2  0  0  0
 10 23  1  0  0  0
 11 22  1  0  0  0
 12 13  2  0  0  0
 12 34  1  0  0  0
 13 18  1  0  0  0
 14 15  1  0  0  0
 14 35  1  0  0  0
 15 16  2  0  0  0
 15 20  1  0  0  0
 17 25  1  0  0  0
 17 26  1  0  0  0
 17 36  1  0  0  0
 18 28  1  0  0  0
 18 29  1  0  0  0
 18 37  1  0  0  0
 19 27  1  0  0  0
 20 38  1  0  0  0
 21 24  1  0  0  0
 21 39  1  0  0  0
 22 24  2  0  0  0
 22 40  1  0  0  0
 23 41  1  0  0  0
 23 42  1  0  0  0
 23 43  1  0  0  0
 24 44  1  0  0  0
 25 45  1  0  0  0
 25 46  1  0  0  0
 25 47  1  0  0  0
 26 48  1  0  0  0
 26 49  1  0  0  0
 26 50  1  0  0  0
 27 30  1  0  0  0
 27 51  1  0  0  0
 27 52  1  0  0  0
 28 53  1  0  0  0
 28 54  1  0  0  0
 28 55  1  0  0  0
 29 56  1  0  0  0
 29 57  1  0  0  0
 29 58  1  0  0  0
 30 31  1  0  0  0
 30 59  1  0  0  0
 30 60  1  0  0  0
 31 61  1  0  0  0
 31 62  1  0  0  0
 31 63  1  0  0  0
M  END
> <s_m_entry_id>
31052

> <s_m_entry_name>
dock_pv.265

> <s_m_Source_Path>
/home/csk/Desktop/cluster/DUD-E-result/rxra

> <s_m_Source_File>
dock_pv.maegz

> <i_m_Source_File_Index>
265

> <chembl_id>
CHEMBL41675

> <chembl_pref_name>
None

> <i_lp_mmshare_version>
53161

> <r_lp_tautomer_probability>
1

> <s_lp_Force_Field>
OPLS_2005

> <r_lp_Energy>
28.974233

> <b_lp_Chiralities_Consistent>
1

> <s_lp_Variant>
CHEMBL2061_lig113-1

> <s_i_glide_gridfile>
glide-grid_1mv9

> <i_i_glide_lignum>
152

> <i_i_glide_rotatable_bonds>
9

> <r_i_docking_score>
-10.0580986016546

> <r_i_glide_ligand_efficiency>
-0.32445479360176

> <r_i_glide_ligand_efficiency_sa>
-1.01923601002953

> <r_i_glide_ligand_efficiency_ln>
-2.26840947837658

> <r_i_glide_gscore>
-10.0580986016546

> <r_i_glide_lipo>
-6.71657187108575

> <r_i_glide_hbond>
-0.121238030102605

> <r_i_glide_metal>
0

> <r_i_glide_rewards>
-1.61507754084431

> <r_i_glide_evdw>
-36.6463050842285

> <r_i_glide_ecoul>
-2.21660399436951

> <r_i_glide_erotb>
0.559594693744949

> <r_i_glide_esite>
0

> <r_i_glide_emodel>
-37.1119981117493

> <r_i_glide_energy>
-38.862909078598

> <r_i_glide_einternal>
6.12732172012329

> <i_i_glide_confnum>
12

> <i_i_glide_posenum>
12

> <r_i_glide_eff_state_penalty>
0

> <s_user_duplicate_titles>
CHEMBL2061_lig113,61506

> <i_f3d_flags>
0

> <s_m_subgroup_title>
dock_pv

> <s_m_subgroupid>
dock_pv

> <b_m_subgroup_collapsed>
1

$$$$
CHEMBL2061_lig273
                    3D
 Schrodinger Suite 2021-1.
 49 51  0  0  1  0            999 V2000
   59.3680   46.0770   29.7688 C   0  0  0  0  0  0
   58.1331   46.0770   28.5395 S   0  0  0  0  0  0
   62.7027   46.4770   32.7367 C   0  0  0  0  0  0
   63.8949   45.7965   32.3645 C   0  0  0  0  0  0
   61.8463   46.2343   30.4313 C   0  0  0  0  0  0
   56.8996   45.5806   29.6716 C   0  0  0  0  0  0
   60.7448   46.4898   29.4359 C   0  0  0  0  0  0
   61.7379   46.7178   31.7407 C   0  0  0  0  0  0
   64.0162   45.3615   31.0351 C   0  0  0  0  0  0
   63.0236   45.5563   30.0762 C   0  0  0  0  0  0
   58.8080   45.6770   30.9817 C   0  0  0  0  0  0
   57.4650   45.3023   30.9018 C   0  0  0  0  0  0
   55.4952   45.5289   29.3516 C   0  0  0  0  0  0
   62.4253   46.9460   34.1905 C   0  0  0  0  0  0
   65.0204   45.4524   33.3770 C   0  0  0  0  0  0
   61.0075   46.9052   28.3041 O   0  0  0  0  0  0
   54.6391   45.1121   30.1344 O   0  0  0  0  0  0
   64.8566   46.2736   34.6812 C   0  0  0  0  0  0
   63.4133   46.2887   35.1898 C   0  0  0  0  0  0
   55.2080   46.0770   28.1390 O   0  0  0  0  0  0
   63.2411   44.9555   28.6903 C   0  0  0  0  0  0
   62.6057   48.4770   34.2763 C   0  0  0  0  0  0
   64.9283   43.9442   33.7206 C   0  0  0  0  0  0
   66.4080   45.8364   32.8038 C   0  0  0  0  0  0
   61.0035   46.5029   34.6316 C   0  0  0  0  0  0
   60.8611   47.2850   32.0127 H   0  0  0  0  0  0
   64.8993   44.8136   30.7433 H   0  0  0  0  0  0
   59.3469   45.6639   31.9157 H   0  0  0  0  0  0
   56.8875   44.9561   31.7400 H   0  0  0  0  0  0
   65.5131   45.8812   35.4599 H   0  0  0  0  0  0
   65.1914   47.3001   34.5286 H   0  0  0  0  0  0
   63.1116   45.2669   35.4138 H   0  0  0  0  0  0
   63.3757   46.8062   36.1488 H   0  0  0  0  0  0
   56.0040   46.3387   27.6721 H   0  0  0  0  0  0
   64.0080   44.1823   28.6990 H   0  0  0  0  0  0
   62.3344   44.4711   28.3263 H   0  0  0  0  0  0
   63.5215   45.7331   27.9800 H   0  0  0  0  0  0
   62.3015   48.8378   35.2578 H   0  0  0  0  0  0
   63.6372   48.7943   34.1390 H   0  0  0  0  0  0
   62.0080   49.0037   33.5330 H   0  0  0  0  0  0
   65.6484   43.6676   34.4916 H   0  0  0  0  0  0
   63.9390   43.6550   34.0755 H   0  0  0  0  0  0
   65.1426   43.3238   32.8508 H   0  0  0  0  0  0
   67.1953   45.7090   33.5489 H   0  0  0  0  0  0
   66.6895   45.2191   31.9513 H   0  0  0  0  0  0
   66.4329   46.8770   32.4789 H   0  0  0  0  0  0
   60.8534   46.6434   35.7030 H   0  0  0  0  0  0
   60.2220   47.0751   34.1390 H   0  0  0  0  0  0
   60.8080   45.4549   34.4066 H   0  0  0  0  0  0
  1  2  1  0  0  0
  1  7  1  0  0  0
  1 11  2  0  0  0
  2  6  1  0  0  0
  3  8  1  0  0  0
  3 14  1  0  0  0
  3  4  2  0  0  0
  4  9  1  0  0  0
  4 15  1  0  0  0
  5  7  1  0  0  0
  5  8  2  0  0  0
  5 10  1  0  0  0
  6 13  1  0  0  0
  6 12  2  0  0  0
  7 16  2  0  0  0
  8 26  1  0  0  0
  9 10  2  0  0  0
  9 27  1  0  0  0
 10 21  1  0  0  0
 11 12  1  0  0  0
 11 28  1  0  0  0
 12 29  1  0  0  0
 13 17  2  0  0  0
 13 20  1  0  0  0
 14 19  1  0  0  0
 14 22  1  0  0  0
 14 25  1  0  0  0
 15 18  1  0  0  0
 15 23  1  0  0  0
 15 24  1  0  0  0
 18 19  1  0  0  0
 18 30  1  0  0  0
 18 31  1  0  0  0
 19 32  1  0  0  0
 19 33  1  0  0  0
 20 34  1  0  0  0
 21 35  1  0  0  0
 21 36  1  0  0  0
 21 37  1  0  0  0
 22 38  1  0  0  0
 22 39  1  0  0  0
 22 40  1  0  0  0
 23 41  1  0  0  0
 23 42  1  0  0  0
 23 43  1  0  0  0
 24 44  1  0  0  0
 24 45  1  0  0  0
 24 46  1  0  0  0
 25 47  1  0  0  0
 25 48  1  0  0  0
 25 49  1  0  0  0
M  END
> <s_m_entry_id>
31053

> <s_m_entry_name>
dock_pv.266

> <s_m_Source_Path>
/home/csk/Desktop/cluster/DUD-E-result/rxra

> <s_m_Source_File>
dock_pv.maegz

> <i_m_Source_File_Index>
266

> <chembl_id>
CHEMBL114880

> <chembl_pref_name>
None

> <i_lp_mmshare_version>
53161

> <r_lp_tautomer_probability>
1

> <s_lp_Force_Field>
OPLS_2005

> <r_lp_Energy>
25.877777

> <b_lp_Chiralities_Consistent>
1

> <s_lp_Variant>
CHEMBL2061_lig273-1

> <s_i_glide_gridfile>
glide-grid_1mv9

> <i_i_glide_lignum>
318

> <i_i_glide_rotatable_bonds>
4

> <r_i_docking_score>
-10.0513623197964

> <r_i_glide_ligand_efficiency>
-0.402054492791857

> <r_i_glide_ligand_efficiency_sa>
-1.17561446739018

> <r_i_glide_ligand_efficiency_ln>
-2.38247408481392

> <r_i_glide_gscore>
-10.0513623197964

> <r_i_glide_lipo>
-5.49294884452538

> <r_i_glide_hbond>
0

> <r_i_glide_metal>
0

> <r_i_glide_rewards>
-2.51527668180317

> <r_i_glide_evdw>
-44.1225852966309

> <r_i_glide_ecoul>
-1.92458856105804

> <r_i_glide_erotb>
0.451680755522366

> <r_i_glide_esite>
0

> <r_i_glide_emodel>
-71.2152353643733

> <r_i_glide_energy>
-46.0471738576889

> <r_i_glide_einternal>
0.65190464258194

> <i_i_glide_confnum>
21

> <i_i_glide_posenum>
305

> <r_i_glide_eff_state_penalty>
0

> <s_user_duplicate_titles>
CHEMBL2061_lig273

> <i_f3d_flags>
0

> <s_m_subgroup_title>
dock_pv

> <s_m_subgroupid>
dock_pv

> <b_m_subgroup_collapsed>
1

$$$$
CHEMBL2061_lig82 
                    3D
 Schrodinger Suite 2021-1.
 45 48  0  0  1  0            999 V2000
   62.1242   47.3364   27.3390 C   0  0  0  0  0  0
   63.2166   47.2608   28.1962 C   0  0  0  0  0  0
   63.0357   46.8770   29.5257 C   0  0  0  0  0  0
   60.8569   46.9838   27.7981 C   0  0  0  0  0  0
   60.6821   46.6019   29.1345 C   0  0  0  0  0  0
   61.7581   46.5658   30.0053 C   0  0  0  0  0  0
   61.2303   46.2235   31.3370 C   0  0  0  0  0  0
   59.7873   46.0770   31.1826 C   0  0  0  0  0  0
   59.4768   46.2361   29.8748 C   0  0  0  0  0  0
   58.8080   45.8421   32.3412 C   0  0  0  0  0  0
   58.1446   46.1725   29.1594 C   0  0  0  0  0  0
   57.1861   45.0241   29.5485 C   0  0  0  0  0  0
   55.7418   45.4511   29.4427 C   0  0  0  0  0  0
   55.2995   46.5395   28.7316 N   0  0  0  0  0  0
   54.0080   46.7430   28.9390 N   0  0  0  0  0  0
   53.6405   45.6771   29.7390 N   0  0  0  0  0  0
   54.7382   44.8877   30.0607 N   0  0  0  0  0  0
   61.8914   46.0770   32.5049 C   0  0  0  0  0  0
   63.3333   46.0817   32.7965 C   0  0  0  0  0  0
   64.2036   45.2947   32.0294 C   0  0  0  0  0  0
   65.5731   45.2932   32.2810 C   0  0  0  0  0  0
   66.0810   46.0475   33.3327 C   0  0  0  0  0  0
   65.2134   46.7915   34.1271 C   0  0  0  0  0  0
   63.8387   46.8141   33.8876 C   0  0  0  0  0  0
   62.9291   47.6415   34.8092 C   0  0  0  0  0  0
   63.6080   48.3687   35.6996 F   0  0  0  0  0  0
   62.1874   48.4770   34.0876 F   0  0  0  0  0  0
   62.1150   46.8281   35.4821 F   0  0  0  0  0  0
   62.2622   47.6770   26.3236 H   0  0  0  0  0  0
   64.2019   47.5228   27.8387 H   0  0  0  0  0  0
   63.9015   46.8770   30.1638 H   0  0  0  0  0  0
   60.0266   47.0473   27.1122 H   0  0  0  0  0  0
   59.0673   46.4770   33.1878 H   0  0  0  0  0  0
   57.7798   46.0770   32.0780 H   0  0  0  0  0  0
   58.8080   44.8245   32.7111 H   0  0  0  0  0  0
   57.7126   47.1549   29.3390 H   0  0  0  0  0  0
   58.2946   46.1099   28.0823 H   0  0  0  0  0  0
   57.3847   44.1469   28.9390 H   0  0  0  0  0  0
   57.3740   44.6559   30.5523 H   0  0  0  0  0  0
   55.8715   47.1575   28.1760 H   0  0  0  0  0  0
   61.2859   45.8655   33.3731 H   0  0  0  0  0  0
   63.8192   44.6930   31.2176 H   0  0  0  0  0  0
   66.2372   44.7122   31.6594 H   0  0  0  0  0  0
   67.1421   46.0527   33.5377 H   0  0  0  0  0  0
   65.6080   47.3661   34.9390 H   0  0  0  0  0  0
  1  2  2  0  0  0
  1  4  1  0  0  0
  1 29  1  0  0  0
  2  3  1  0  0  0
  2 30  1  0  0  0
  3  6  2  0  0  0
  3 31  1  0  0  0
  4  5  2  0  0  0
  4 32  1  0  0  0
  5  6  1  0  0  0
  5  9  1  0  0  0
  6  7  1  0  0  0
  7  8  1  0  0  0
  7 18  2  0  0  0
  8  9  2  0  0  0
  8 10  1  0  0  0
  9 11  1  0  0  0
 10 33  1  0  0  0
 10 34  1  0  0  0
 10 35  1  0  0  0
 11 12  1  0  0  0
 11 36  1  0  0  0
 11 37  1  0  0  0
 12 13  1  0  0  0
 12 38  1  0  0  0
 12 39  1  0  0  0
 13 14  1  0  0  0
 13 17  2  0  0  0
 14 15  1  0  0  0
 14 40  1  0  0  0
 15 16  2  0  0  0
 16 17  1  0  0  0
 18 19  1  0  0  0
 18 41  1  0  0  0
 19 20  2  0  0  0
 19 24  1  0  0  0
 20 21  1  0  0  0
 20 42  1  0  0  0
 21 22  2  0  0  0
 21 43  1  0  0  0
 22 23  1  0  0  0
 22 44  1  0  0  0
 23 24  2  0  0  0
 23 45  1  0  0  0
 24 25  1  0  0  0
 25 26  1  0  0  0
 25 27  1  0  0  0
 25 28  1  0  0  0
M  END
> <s_m_entry_id>
31054

> <s_m_entry_name>
dock_pv.267

> <s_m_Source_Path>
/home/csk/Desktop/cluster/DUD-E-result/rxra

> <s_m_Source_File>
dock_pv.maegz

> <i_m_Source_File_Index>
267

> <chembl_id>
CHEMBL4563007

> <chembl_pref_name>
None

> <i_lp_mmshare_version>
53161

> <r_lp_tautomer_probability>
0.3

> <s_lp_Force_Field>
OPLS_2005

> <r_lp_Energy>
41.59992

> <b_lp_Chiralities_Consistent>
1

> <s_lp_Variant>
CHEMBL2061_lig82 -1

> <s_i_glide_gridfile>
glide-grid_1mv9

> <i_i_glide_lignum>
113

> <i_i_glide_rotatable_bonds>
5

> <r_i_docking_score>
-10.0426359367136

> <r_i_glide_ligand_efficiency>
-0.358665569168344

> <r_i_glide_ligand_efficiency_sa>
-1.08911991071838

> <r_i_glide_ligand_efficiency_ln>
-2.31813523879728

> <r_i_glide_gscore>
-10.0426359367136

> <r_i_glide_lipo>
-4.95896701906323

> <r_i_glide_hbond>
0

> <r_i_glide_metal>
0

> <r_i_glide_rewards>
-3.14763155911425

> <r_i_glide_evdw>
-40.8639831542969

> <r_i_glide_ecoul>
-1.84712767601013

> <r_i_glide_erotb>
0.53129799221839

> <r_i_glide_esite>
-0.147067041638184

> <r_i_glide_emodel>
-61.5277822719213

> <r_i_glide_energy>
-42.711110830307

> <r_i_glide_einternal>
8.16874504089355

> <i_i_glide_confnum>
13

> <i_i_glide_posenum>
222

> <r_i_glide_eff_state_penalty>
0

> <s_user_duplicate_titles>
CHEMBL2061_lig82 ,CHEMBL2061_lig82 

> <i_f3d_flags>
0

> <s_m_subgroup_title>
dock_pv

> <s_m_subgroupid>
dock_pv

> <b_m_subgroup_collapsed>
1

$$$$
CHEMBL2061_lig259
                    3D
 Schrodinger Suite 2021-1.
 53 55  0  0  1  0            999 V2000
   63.1297   46.5889   32.6315 C   0  0  0  0  0  0
   64.1353   45.5906   32.5213 C   0  0  0  0  0  0
   62.4326   46.9625   31.4713 C   0  0  0  0  0  0
   62.6054   46.3216   30.2449 C   0  0  0  0  0  0
   62.6634   47.1429   33.9988 C   0  0  0  0  0  0
   64.9676   45.1201   33.7441 C   0  0  0  0  0  0
   55.9846   45.2773   29.9924 C   0  0  0  0  0  0
   64.3861   45.0456   31.2473 C   0  0  0  0  0  0
   61.6482   46.6171   29.0739 C   0  0  1  0  0  0
   57.4404   45.6021   29.7764 C   0  0  0  0  0  0
   60.1564   46.2773   29.3279 C   0  0  0  0  0  0
   63.6252   45.3824   30.1308 C   0  0  0  0  0  0
   63.7334   46.9094   35.0963 C   0  0  0  0  0  0
   64.2779   45.4904   35.0841 C   0  0  0  0  0  0
   55.2079   45.0986   29.0592 O   0  0  0  0  0  0
   58.3863   45.4305   30.7847 C   0  0  0  0  0  0
   57.8729   46.0770   28.5389 C   0  0  0  0  0  0
   59.7116   45.7771   30.5538 C   0  0  0  0  0  0
   59.2080   46.4235   28.3127 C   0  0  0  0  0  0
   55.5868   45.2770   31.2966 O   0  0  0  0  0  0
   62.4321   48.6669   33.9844 C   0  0  0  0  0  0
   61.3554   46.3883   34.3573 C   0  0  0  0  0  0
   65.0760   43.5803   33.7870 C   0  0  0  0  0  0
   66.3498   45.8094   33.6674 C   0  0  0  0  0  0
   61.8524   48.0617   28.5750 C   0  0  0  0  0  0
   61.6272   47.6764   31.5418 H   0  0  0  0  0  0
   65.1677   44.3135   31.1158 H   0  0  0  0  0  0
   61.9410   45.9608   28.2519 H   0  0  0  0  0  0
   63.8158   44.8885   29.1890 H   0  0  0  0  0  0
   63.3249   47.1382   36.0824 H   0  0  0  0  0  0
   64.5733   47.5942   34.9707 H   0  0  0  0  0  0
   63.4495   44.8143   35.2954 H   0  0  0  0  0  0
   64.9699   45.3571   35.9179 H   0  0  0  0  0  0
   58.1236   45.0456   31.7596 H   0  0  0  0  0  0
   57.1578   46.1803   27.7390 H   0  0  0  0  0  0
   60.3788   45.6770   31.3882 H   0  0  0  0  0  0
   59.5023   46.7851   27.3393 H   0  0  0  0  0  0
   56.3150   45.5387   31.8621 H   0  0  0  0  0  0
   61.7512   48.8770   34.8061 H   0  0  0  0  0  0
   63.3425   49.2469   34.1395 H   0  0  0  0  0  0
   61.9900   49.0583   33.0736 H   0  0  0  0  0  0
   61.0886   46.5031   35.4087 H   0  0  0  0  0  0
   60.5139   46.7653   33.7746 H   0  0  0  0  0  0
   61.4192   45.3243   34.1390 H   0  0  0  0  0  0
   65.6330   43.2770   34.6712 H   0  0  0  0  0  0
   64.0985   43.0959   33.8199 H   0  0  0  0  0  0
   65.6078   43.1712   32.9391 H   0  0  0  0  0  0
   66.9809   45.5492   34.5184 H   0  0  0  0  0  0
   66.8793   45.5010   32.7674 H   0  0  0  0  0  0
   66.2726   46.8965   33.6328 H   0  0  0  0  0  0
   61.6080   48.7768   29.3571 H   0  0  0  0  0  0
   62.8907   48.2351   28.2900 H   0  0  0  0  0  0
   61.2390   48.2943   27.7045 H   0  0  0  0  0  0
  1  2  2  0  0  0
  1  3  1  0  0  0
  1  5  1  0  0  0
  2  6  1  0  0  0
  2  8  1  0  0  0
  3  4  2  0  0  0
  3 26  1  0  0  0
  4  9  1  0  0  0
  4 12  1  0  0  0
  5 13  1  0  0  0
  5 21  1  0  0  0
  5 22  1  0  0  0
  6 23  1  0  0  0
  6 24  1  0  0  0
  6 14  1  0  0  0
  7 10  1  0  0  0
  7 15  2  0  0  0
  7 20  1  0  0  0
  8 12  2  0  0  0
  8 27  1  0  0  0
  9 11  1  0  0  0
  9 25  1  0  0  0
  9 28  1  0  0  0
 10 17  1  0  0  0
 10 16  2  0  0  0
 11 18  2  0  0  0
 11 19  1  0  0  0
 12 29  1  0  0  0
 13 14  1  0  0  0
 13 30  1  0  0  0
 13 31  1  0  0  0
 14 32  1  0  0  0
 14 33  1  0  0  0
 16 18  1  0  0  0
 16 34  1  0  0  0
 17 19  2  0  0  0
 17 35  1  0  0  0
 18 36  1  0  0  0
 19 37  1  0  0  0
 20 38  1  0  0  0
 21 39  1  0  0  0
 21 40  1  0  0  0
 21 41  1  0  0  0
 22 42  1  0  0  0
 22 43  1  0  0  0
 22 44  1  0  0  0
 23 45  1  0  0  0
 23 46  1  0  0  0
 23 47  1  0  0  0
 24 48  1  0  0  0
 24 49  1  0  0  0
 24 50  1  0  0  0
 25 51  1  0  0  0
 25 52  1  0  0  0
 25 53  1  0  0  0
M  END
> <s_m_entry_id>
31055

> <s_m_entry_name>
dock_pv.268

> <s_m_Source_Path>
/home/csk/Desktop/cluster/DUD-E-result/rxra

> <s_m_Source_File>
dock_pv.maegz

> <i_m_Source_File_Index>
268

> <chembl_id>
CHEMBL115763

> <chembl_pref_name>
None

> <i_lp_mmshare_version>
53161

> <r_lp_tautomer_probability>
1

> <s_lp_Force_Field>
OPLS_2005

> <r_lp_Energy>
25.034055

> <b_lp_Chiralities_Consistent>
1

> <s_lp_Variant>
CHEMBL2061_lig259-2

> <s_i_glide_gridfile>
glide-grid_1mv9

> <i_i_glide_lignum>
302

> <i_i_glide_rotatable_bonds>
4

> <r_i_docking_score>
-10.042246020341

> <r_i_glide_ligand_efficiency>
-0.401689840813638

> <r_i_glide_ligand_efficiency_sa>
-1.17454821853874

> <r_i_glide_ligand_efficiency_ln>
-2.38031324864952

> <r_i_glide_gscore>
-10.042246020341

> <r_i_glide_lipo>
-5.95640221868111

> <r_i_glide_hbond>
0

> <r_i_glide_metal>
0

> <r_i_glide_rewards>
-2.46499622727273

> <r_i_glide_evdw>
-41.0146408081055

> <r_i_glide_ecoul>
-0.470684677362442

> <r_i_glide_erotb>
0.500487167622523

> <r_i_glide_esite>
0

> <r_i_glide_emodel>
-57.4922752151134

> <r_i_glide_energy>
-41.4853254854679

> <r_i_glide_einternal>
3.65983414649963

> <i_i_glide_confnum>
5

> <i_i_glide_posenum>
35

> <r_i_glide_eff_state_penalty>
0

> <s_user_duplicate_titles>
CHEMBL2061_lig259

> <i_f3d_flags>
0

> <s_m_subgroup_title>
dock_pv

> <s_m_subgroupid>
dock_pv

> <b_m_subgroup_collapsed>
1

$$$$
CHEMBL2061_lig102
                    3D
 Schrodinger Suite 2021-1.
 56 57  0  0  1  0            999 V2000
   63.6071   46.4557   32.9843 C   0  0  0  0  0  0
   62.2858   46.8573   32.7198 C   0  0  0  0  0  0
   64.5334   46.3455   31.9374 C   0  0  0  0  0  0
   62.8082   46.9229   30.3465 C   0  0  0  0  0  0
   61.9323   47.1467   31.3991 C   0  0  0  0  0  0
   64.0987   46.4764   30.6189 C   0  0  0  0  0  0
   62.3876   47.2749   28.9729 C   0  0  0  0  0  0
   64.0201   46.2547   34.2746 O   0  0  0  0  0  0
   61.2619   46.9784   33.7888 C   0  0  0  0  0  0
   56.0071   45.3187   31.2868 C   0  0  0  0  0  0
   55.0848   45.0111   30.2307 C   0  0  0  0  0  0
   63.3798   47.5404   28.0863 O   0  0  0  0  0  0
   59.3776   45.8902   32.5276 C   0  0  0  0  0  0
   57.3573   45.2460   31.2416 C   0  0  0  0  0  0
   60.0085   46.4770   33.6911 C   0  0  0  0  0  0
   61.1540   47.4638   28.3602 C   0  0  0  0  0  0
   58.0544   45.6771   32.4470 C   0  0  0  0  0  0
   62.7892   47.9169   26.9336 C   0  0  0  0  0  0
   61.4118   47.8564   27.0494 C   0  0  0  0  0  0
   54.0078   44.4772   30.4467 O   0  0  0  0  0  0
   66.0299   46.2044   32.1981 C   0  0  0  0  0  0
   63.6572   44.8833   36.1343 C   0  0  0  0  0  0
   64.1644   44.9046   34.7038 C   0  0  0  0  0  0
   55.4819   45.4530   29.0049 O   0  0  0  0  0  0
   64.3733   45.6765   36.9387 F   0  0  0  0  0  0
   62.4017   45.2828   36.1391 F   0  0  0  0  0  0
   61.6220   47.8455   34.9951 C   0  0  0  0  0  0
   58.1381   44.7317   30.0299 C   0  0  0  0  0  0
   66.4599   44.7527   32.3595 C   0  0  0  0  0  0
   66.5496   47.1155   33.3301 C   0  0  0  0  0  0
   60.9556   47.5481   31.1820 H   0  0  0  0  0  0
   64.8051   46.3622   29.8082 H   0  0  0  0  0  0
   55.5082   45.6399   32.1905 H   0  0  0  0  0  0
   59.9786   45.6770   31.6635 H   0  0  0  0  0  0
   59.3750   46.6092   34.5389 H   0  0  0  0  0  0
   60.1828   47.3367   28.8138 H   0  0  0  0  0  0
   57.4667   45.8928   33.3299 H   0  0  0  0  0  0
   63.4564   48.1604   26.1205 H   0  0  0  0  0  0
   60.6851   48.0767   26.2815 H   0  0  0  0  0  0
   66.5149   46.5561   31.2934 H   0  0  0  0  0  0
   63.6328   43.8786   36.5544 H   0  0  0  0  0  0
   63.6087   44.1951   34.0876 H   0  0  0  0  0  0
   65.2076   44.6020   34.7016 H   0  0  0  0  0  0
   56.3523   45.8509   29.0494 H   0  0  0  0  0  0
   62.5195   47.5452   35.5264 H   0  0  0  0  0  0
   61.7835   48.8641   34.6449 H   0  0  0  0  0  0
   60.8155   47.8856   35.7282 H   0  0  0  0  0  0
   58.9286   44.0765   30.3786 H   0  0  0  0  0  0
   57.5603   44.1057   29.3487 H   0  0  0  0  0  0
   58.6323   45.5446   29.5002 H   0  0  0  0  0  0
   65.6080   44.0773   32.2593 H   0  0  0  0  0  0
   67.2014   44.4777   31.5983 H   0  0  0  0  0  0
   66.9250   44.5553   33.3251 H   0  0  0  0  0  0
   66.0391   48.0771   33.3393 H   0  0  0  0  0  0
   66.4081   46.6630   34.3099 H   0  0  0  0  0  0
   67.6082   47.3174   33.2172 H   0  0  0  0  0  0
  1  2  1  0  0  0
  1  3  2  0  0  0
  1  8  1  0  0  0
  2  5  2  0  0  0
  2  9  1  0  0  0
  3  6  1  0  0  0
  3 21  1  0  0  0
  4  6  2  0  0  0
  4  7  1  0  0  0
  4  5  1  0  0  0
  5 31  1  0  0  0
  6 32  1  0  0  0
  7 12  1  0  0  0
  7 16  2  0  0  0
  8 23  1  0  0  0
  9 15  2  0  0  0
  9 27  1  0  0  0
 10 14  2  0  0  0
 10 11  1  0  0  0
 10 33  1  0  0  0
 11 20  2  0  0  0
 11 24  1  0  0  0
 12 18  1  0  0  0
 13 15  1  0  0  0
 13 17  2  0  0  0
 13 34  1  0  0  0
 14 17  1  0  0  0
 14 28  1  0  0  0
 15 35  1  0  0  0
 16 19  1  0  0  0
 16 36  1  0  0  0
 17 37  1  0  0  0
 18 19  2  0  0  0
 18 38  1  0  0  0
 19 39  1  0  0  0
 21 29  1  0  0  0
 21 30  1  0  0  0
 21 40  1  0  0  0
 22 23  1  0  0  0
 22 25  1  0  0  0
 22 26  1  0  0  0
 22 41  1  0  0  0
 23 42  1  0  0  0
 23 43  1  0  0  0
 24 44  1  0  0  0
 27 45  1  0  0  0
 27 46  1  0  0  0
 27 47  1  0  0  0
 28 48  1  0  0  0
 28 49  1  0  0  0
 28 50  1  0  0  0
 29 51  1  0  0  0
 29 52  1  0  0  0
 29 53  1  0  0  0
 30 54  1  0  0  0
 30 55  1  0  0  0
 30 56  1  0  0  0
M  END
> <s_m_entry_id>
31056

> <s_m_entry_name>
dock_pv.269

> <s_m_Source_Path>
/home/csk/Desktop/cluster/DUD-E-result/rxra

> <s_m_Source_File>
dock_pv.maegz

> <i_m_Source_File_Index>
269

> <chembl_id>
CHEMBL130317

> <chembl_pref_name>
None

> <i_lp_mmshare_version>
53161

> <r_lp_tautomer_probability>
1

> <s_lp_Force_Field>
OPLS_2005

> <r_lp_Energy>
26.329982

> <b_lp_Chiralities_Consistent>
1

> <s_lp_Variant>
CHEMBL2061_lig102-1

> <s_i_glide_gridfile>
glide-grid_1mv9

> <i_i_glide_lignum>
141

> <i_i_glide_rotatable_bonds>
10

> <r_i_docking_score>
-10.0328515635974

> <r_i_glide_ligand_efficiency>
-0.334428385453246

> <r_i_glide_ligand_efficiency_sa>
-1.03914674901588

> <r_i_glide_ligand_efficiency_ln>
-2.27957319192269

> <r_i_glide_gscore>
-10.0328515635974

> <r_i_glide_lipo>
-5.7294494257765

> <r_i_glide_hbond>
-0.32

> <r_i_glide_metal>
0

> <r_i_glide_rewards>
-2.37191818818918

> <r_i_glide_evdw>
-36.2781219482422

> <r_i_glide_ecoul>
-3.9663028717041

> <r_i_glide_erotb>
0.797367578536038

> <r_i_glide_esite>
0

> <r_i_glide_emodel>
-48.9370544653691

> <r_i_glide_energy>
-40.2444248199463

> <r_i_glide_einternal>
5.18763256072998

> <i_i_glide_confnum>
7

> <i_i_glide_posenum>
134

> <r_i_glide_eff_state_penalty>
0

> <s_user_duplicate_titles>
CHEMBL2061_lig102,217045

> <i_f3d_flags>
0

> <s_m_subgroup_title>
dock_pv

> <s_m_subgroupid>
dock_pv

> <b_m_subgroup_collapsed>
1

$$$$
CHEMBL2061_lig324
                    3D
 Schrodinger Suite 2021-1.
 58 60  0  0  1  0            999 V2000
   61.5363   46.6283   29.1316 C   0  0  2  0  0  0
   60.3770   45.6535   29.2075 C   0  0  2  0  0  0
   61.3362   45.6137   28.0282 C   0  0  0  0  0  0
   62.9715   46.5249   32.6837 C   0  0  0  0  0  0
   62.5402   46.4616   30.2678 C   0  0  0  0  0  0
   64.2444   45.9260   32.4660 C   0  0  0  0  0  0
   62.1637   46.7925   31.5663 C   0  0  0  0  0  0
   58.9017   45.9457   28.9665 C   0  0  0  0  0  0
   62.4574   46.9322   34.0886 C   0  0  0  0  0  0
   65.1717   45.5199   33.6403 C   0  0  0  0  0  0
   64.6237   45.6408   31.1397 C   0  0  0  0  0  0
   55.9576   46.6688   29.1235 C   0  0  0  0  0  0
   57.9386   45.3830   29.7275 C   0  0  0  0  0  0
   54.5641   46.9713   28.9081 C   0  0  0  0  0  0
   56.4928   45.5106   29.5743 C   0  0  0  0  0  0
   63.7928   45.9012   30.0549 C   0  0  0  0  0  0
   63.3165   46.3057   35.2173 C   0  0  0  0  0  0
   64.8144   46.3248   34.9135 C   0  0  0  0  0  0
   53.6084   46.3740   29.3873 O   0  0  0  0  0  0
   61.0843   48.0708   28.8568 C   0  0  0  0  0  0
   54.4082   48.0768   28.1393 O   0  0  0  0  0  0
   62.5635   48.4706   34.2066 C   0  0  0  0  0  0
   61.0110   46.4111   34.3111 C   0  0  0  0  0  0
   64.9744   44.0080   33.9109 C   0  0  0  0  0  0
   66.6483   45.8583   33.3312 C   0  0  0  0  0  0
   55.6701   44.2719   29.8808 C   0  0  0  0  0  0
   60.5260   44.8293   29.9081 H   0  0  0  0  0  0
   62.0237   44.7716   27.9435 H   0  0  0  0  0  0
   60.9938   45.9566   27.0521 H   0  0  0  0  0  0
   61.1945   47.2432   31.7090 H   0  0  0  0  0  0
   58.6503   46.5986   28.1433 H   0  0  0  0  0  0
   65.5714   45.1691   30.9322 H   0  0  0  0  0  0
   56.6155   47.4968   28.9390 H   0  0  0  0  0  0
   58.2712   44.7446   30.5346 H   0  0  0  0  0  0
   64.1117   45.6321   29.0585 H   0  0  0  0  0  0
   63.0135   45.2781   35.4134 H   0  0  0  0  0  0
   63.1368   46.8294   36.1554 H   0  0  0  0  0  0
   65.3616   45.9359   35.7735 H   0  0  0  0  0  0
   65.1429   47.3595   34.8090 H   0  0  0  0  0  0
   60.4025   48.1609   28.0110 H   0  0  0  0  0  0
   60.6051   48.4769   29.7392 H   0  0  0  0  0  0
   61.9481   48.6969   28.6336 H   0  0  0  0  0  0
   53.4872   48.3061   28.0169 H   0  0  0  0  0  0
   62.1689   48.8117   35.1628 H   0  0  0  0  0  0
   63.5920   48.8234   34.1387 H   0  0  0  0  0  0
   62.0086   48.9815   33.4204 H   0  0  0  0  0  0
   60.6778   46.6029   35.3315 H   0  0  0  0  0  0
   60.2818   46.8774   33.6529 H   0  0  0  0  0  0
   60.9328   45.3378   34.1386 H   0  0  0  0  0  0
   65.5557   43.6808   34.7730 H   0  0  0  0  0  0
   63.9327   43.7463   34.0960 H   0  0  0  0  0  0
   65.2965   43.4090   33.0591 H   0  0  0  0  0  0
   67.2882   45.6909   34.1990 H   0  0  0  0  0  0
   67.0338   45.2212   32.5405 H   0  0  0  0  0  0
   66.7758   46.8964   33.0201 H   0  0  0  0  0  0
   56.2984   43.3955   29.7390 H   0  0  0  0  0  0
   55.3035   44.2890   30.9069 H   0  0  0  0  0  0
   54.8276   44.1483   29.1987 H   0  0  0  0  0  0
  1  2  1  0  0  0
  1  3  1  0  0  0
  1  5  1  0  0  0
  1 20  1  0  0  0
  2  8  1  0  0  0
  2  3  1  0  0  0
  2 27  1  0  0  0
  3 28  1  0  0  0
  3 29  1  0  0  0
  4  7  1  0  0  0
  4  9  1  0  0  0
  4  6  2  0  0  0
  5  7  2  0  0  0
  5 16  1  0  0  0
  6 11  1  0  0  0
  6 10  1  0  0  0
  7 30  1  0  0  0
  8 13  2  0  0  0
  8 31  1  0  0  0
  9 17  1  0  0  0
  9 22  1  0  0  0
  9 23  1  0  0  0
 10 18  1  0  0  0
 10 24  1  0  0  0
 10 25  1  0  0  0
 11 16  2  0  0  0
 11 32  1  0  0  0
 12 15  2  0  0  0
 12 14  1  0  0  0
 12 33  1  0  0  0
 13 15  1  0  0  0
 13 34  1  0  0  0
 14 19  2  0  0  0
 14 21  1  0  0  0
 15 26  1  0  0  0
 16 35  1  0  0  0
 17 18  1  0  0  0
 17 36  1  0  0  0
 17 37  1  0  0  0
 18 38  1  0  0  0
 18 39  1  0  0  0
 20 40  1  0  0  0
 20 41  1  0  0  0
 20 42  1  0  0  0
 21 43  1  0  0  0
 22 44  1  0  0  0
 22 45  1  0  0  0
 22 46  1  0  0  0
 23 47  1  0  0  0
 23 48  1  0  0  0
 23 49  1  0  0  0
 24 50  1  0  0  0
 24 51  1  0  0  0
 24 52  1  0  0  0
 25 53  1  0  0  0
 25 54  1  0  0  0
 25 55  1  0  0  0
 26 56  1  0  0  0
 26 57  1  0  0  0
 26 58  1  0  0  0
M  END
> <s_m_entry_id>
31057

> <s_m_entry_name>
dock_pv.270

> <s_m_Source_Path>
/home/csk/Desktop/cluster/DUD-E-result/rxra

> <s_m_Source_File>
dock_pv.maegz

> <i_m_Source_File_Index>
270

> <chembl_id>
CHEMBL69091

> <chembl_pref_name>
None

> <i_lp_mmshare_version>
53161

> <r_lp_tautomer_probability>
1

> <s_lp_Force_Field>
OPLS_2005

> <r_lp_Energy>
32.260503

> <b_lp_Chiralities_Consistent>
1

> <s_lp_Variant>
CHEMBL2061_lig324-4

> <s_i_glide_gridfile>
glide-grid_1mv9

> <i_i_glide_lignum>
375

> <i_i_glide_rotatable_bonds>
5

> <r_i_docking_score>
-10.0310855087317

> <r_i_glide_ligand_efficiency>
-0.385810981105067

> <r_i_glide_ligand_efficiency_sa>
-1.14296351343086

> <r_i_glide_ligand_efficiency_ln>
-2.35576751704945

> <r_i_glide_gscore>
-10.0310855087317

> <r_i_glide_lipo>
-6.10267748424749

> <r_i_glide_hbond>
-0.249707698097839

> <r_i_glide_metal>
0

> <r_i_glide_rewards>
-2.07283715099932

> <r_i_glide_evdw>
-38.4086227416992

> <r_i_glide_ecoul>
-1.99865341186523

> <r_i_glide_erotb>
0.614365973477658

> <r_i_glide_esite>
0

> <r_i_glide_emodel>
-44.3850489186591

> <r_i_glide_energy>
-40.4072761535645

> <r_i_glide_einternal>
7.86350011825562

> <i_i_glide_confnum>
138

> <i_i_glide_posenum>
310

> <r_i_glide_eff_state_penalty>
0

> <s_user_duplicate_titles>
CHEMBL2061_lig324,CHEMBL2061_lig326

> <i_f3d_flags>
0

> <s_m_subgroup_title>
dock_pv

> <s_m_subgroupid>
dock_pv

> <b_m_subgroup_collapsed>
1

$$$$
CHEMBL2061_lig270
                    3D
 Schrodinger Suite 2021-1.
 51 53  0  0  1  0            999 V2000
   63.1312   46.5594   32.6208 C   0  0  0  0  0  0
   64.0499   45.5059   32.3644 C   0  0  0  0  0  0
   62.3863   47.0654   31.5391 C   0  0  0  0  0  0
   62.4554   46.5209   30.2532 C   0  0  0  0  0  0
   62.8221   47.0524   34.0593 C   0  0  0  0  0  0
   64.8880   44.8429   33.4851 C   0  0  0  0  0  0
   55.9176   45.2194   30.0420 C   0  0  0  0  0  0
   64.2037   45.0661   31.0371 C   0  0  0  0  0  0
   61.4457   46.9592   29.1768 C   0  0  2  0  0  0
   57.3623   45.5283   29.7611 C   0  0  0  0  0  0
   60.0268   46.3689   29.3462 C   0  0  0  0  0  0
   63.4099   45.5399   30.0019 C   0  0  0  0  0  0
   63.9272   46.6159   35.0587 C   0  0  0  0  0  0
   64.3227   45.1590   34.8945 C   0  0  0  0  0  0
   55.4226   45.2766   31.1673 O   0  0  0  0  0  0
   58.3170   45.3524   30.7580 C   0  0  0  0  0  0
   57.7607   46.0769   28.5390 C   0  0  0  0  0  0
   59.6266   45.7648   30.5416 C   0  0  0  0  0  0
   59.0790   46.4817   28.3274 C   0  0  0  0  0  0
   55.2075   44.8771   28.9391 O   0  0  0  0  0  0
   61.9469   46.8075   27.8566 O   0  0  0  0  0  0
   62.7973   48.5836   34.1633 C   0  0  0  0  0  0
   61.4545   46.4521   34.4649 C   0  0  0  0  0  0
   64.8078   43.3054   33.3822 C   0  0  0  0  0  0
   66.3362   45.3793   33.3823 C   0  0  0  0  0  0
   61.6382   47.8211   31.7242 H   0  0  0  0  0  0
   64.9258   44.3012   30.7969 H   0  0  0  0  0  0
   61.3101   48.0348   29.3044 H   0  0  0  0  0  0
   63.5160   45.1087   29.0168 H   0  0  0  0  0  0
   63.6054   46.7953   36.0861 H   0  0  0  0  0  0
   64.8272   47.2208   34.9358 H   0  0  0  0  0  0
   63.4438   44.5538   35.1085 H   0  0  0  0  0  0
   65.0448   44.8810   35.6650 H   0  0  0  0  0  0
   58.0457   44.9425   31.7217 H   0  0  0  0  0  0
   57.0484   46.2185   27.7398 H   0  0  0  0  0  0
   60.3056   45.6772   31.3710 H   0  0  0  0  0  0
   59.3501   46.9301   27.3824 H   0  0  0  0  0  0
   55.7860   44.6723   28.2028 H   0  0  0  0  0  0
   62.7533   47.3227   27.7811 H   0  0  0  0  0  0
   62.3796   48.8717   35.1274 H   0  0  0  0  0  0
   63.7908   49.0292   34.1390 H   0  0  0  0  0  0
   62.1888   49.0712   33.4032 H   0  0  0  0  0  0
   61.2744   46.5205   35.5387 H   0  0  0  0  0  0
   60.6318   46.9682   33.9706 H   0  0  0  0  0  0
   61.3663   45.4083   34.1686 H   0  0  0  0  0  0
   65.4557   42.8770   34.1389 H   0  0  0  0  0  0
   63.7975   42.9208   33.5343 H   0  0  0  0  0  0
   65.1534   42.9151   32.4343 H   0  0  0  0  0  0
   66.9675   44.9943   34.1847 H   0  0  0  0  0  0
   66.7996   45.0780   32.4428 H   0  0  0  0  0  0
   66.3785   46.4682   33.4251 H   0  0  0  0  0  0
  1  2  2  0  0  0
  1  3  1  0  0  0
  1  5  1  0  0  0
  2  6  1  0  0  0
  2  8  1  0  0  0
  3  4  2  0  0  0
  3 26  1  0  0  0
  4  9  1  0  0  0
  4 12  1  0  0  0
  5 13  1  0  0  0
  5 22  1  0  0  0
  5 23  1  0  0  0
  6 24  1  0  0  0
  6 25  1  0  0  0
  6 14  1  0  0  0
  7 10  1  0  0  0
  7 15  2  0  0  0
  7 20  1  0  0  0
  8 12  2  0  0  0
  8 27  1  0  0  0
  9 11  1  0  0  0
  9 21  1  0  0  0
  9 28  1  0  0  0
 10 17  1  0  0  0
 10 16  2  0  0  0
 11 18  2  0  0  0
 11 19  1  0  0  0
 12 29  1  0  0  0
 13 14  1  0  0  0
 13 30  1  0  0  0
 13 31  1  0  0  0
 14 32  1  0  0  0
 14 33  1  0  0  0
 16 18  1  0  0  0
 16 34  1  0  0  0
 17 19  2  0  0  0
 17 35  1  0  0  0
 18 36  1  0  0  0
 19 37  1  0  0  0
 20 38  1  0  0  0
 21 39  1  0  0  0
 22 40  1  0  0  0
 22 41  1  0  0  0
 22 42  1  0  0  0
 23 43  1  0  0  0
 23 44  1  0  0  0
 23 45  1  0  0  0
 24 46  1  0  0  0
 24 47  1  0  0  0
 24 48  1  0  0  0
 25 49  1  0  0  0
 25 50  1  0  0  0
 25 51  1  0  0  0
M  END
> <s_m_entry_id>
31058

> <s_m_entry_name>
dock_pv.271

> <s_m_Source_Path>
/home/csk/Desktop/cluster/DUD-E-result/rxra

> <s_m_Source_File>
dock_pv.maegz

> <i_m_Source_File_Index>
271

> <chembl_id>
CHEMBL115558

> <chembl_pref_name>
None

> <i_lp_mmshare_version>
53161

> <r_lp_tautomer_probability>
1

> <s_lp_Force_Field>
OPLS_2005

> <r_lp_Energy>
23.887065

> <b_lp_Chiralities_Consistent>
1

> <s_lp_Variant>
CHEMBL2061_lig270-1

> <s_i_glide_gridfile>
glide-grid_1mv9

> <i_i_glide_lignum>
313

> <i_i_glide_rotatable_bonds>
5

> <r_i_docking_score>
-10.0268910550933

> <r_i_glide_ligand_efficiency>
-0.401075642203734

> <r_i_glide_ligand_efficiency_sa>
-1.17275229091052

> <r_i_glide_ligand_efficiency_ln>
-2.37667366173466

> <r_i_glide_gscore>
-10.0268910550933

> <r_i_glide_lipo>
-5.74685698859058

> <r_i_glide_hbond>
0

> <r_i_glide_metal>
0

> <r_i_glide_rewards>
-2.34606806490843

> <r_i_glide_evdw>
-44.8920631408691

> <r_i_glide_ecoul>
-1.23129141330719

> <r_i_glide_erotb>
0.495330867445198

> <r_i_glide_esite>
0

> <r_i_glide_emodel>
-65.0278291884596

> <r_i_glide_energy>
-46.1233545541763

> <r_i_glide_einternal>
4.85003614425659

> <i_i_glide_confnum>
8

> <i_i_glide_posenum>
350

> <r_i_glide_eff_state_penalty>
0

> <s_user_duplicate_titles>
CHEMBL2061_lig270

> <i_f3d_flags>
0

> <s_m_subgroup_title>
dock_pv

> <s_m_subgroupid>
dock_pv

> <b_m_subgroup_collapsed>
1

$$$$
CHEMBL2061_lig576
                    3D
 Schrodinger Suite 2021-1.
 69 70  0  0  1  0            999 V2000
   63.2830   45.7921   31.7365 C   0  0  0  0  0  0
   64.0771   45.2334   30.7333 C   0  0  0  0  0  0
   63.8245   45.5989   29.4024 C   0  0  0  0  0  0
   62.2975   46.7214   31.4481 C   0  0  0  0  0  0
   62.0675   47.0763   30.1251 C   0  0  0  0  0  0
   62.8140   46.5078   29.0990 C   0  0  0  0  0  0
   62.2477   46.9234   27.7551 C   0  0  0  0  0  0
   61.3971   48.1458   28.1251 C   0  0  0  0  0  0
   60.9830   47.9439   29.5671 C   0  0  0  0  0  0
   61.5412   47.2810   32.4861 N   0  0  0  0  0  0
   60.4831   46.4452   33.0556 C   0  0  0  0  0  0
   59.4935   45.9076   32.0472 C   0  0  0  0  0  0
   58.1820   45.6770   32.2231 C   0  0  0  0  0  0
   57.3499   45.1336   31.1612 C   0  0  0  0  0  0
   56.0261   45.4133   31.2019 C   0  0  0  0  0  0
   57.9963   44.2466   30.1005 C   0  0  0  0  0  0
   55.0289   45.0247   30.2349 C   0  0  0  0  0  0
   55.4875   44.8965   28.9589 O   0  0  0  0  0  0
   53.8528   44.8767   30.5317 O   0  0  0  0  0  0
   62.2669   48.2330   33.3219 C   0  0  0  0  0  0
   65.1991   44.2432   31.0824 C   0  0  0  0  0  0
   66.5044   44.7414   30.4155 C   0  0  0  0  0  0
   64.7796   42.8463   30.5391 C   0  0  0  0  0  0
   65.4478   44.1914   32.6322 C   0  0  0  0  0  0
   63.3167   47.3484   26.7276 C   0  0  0  0  0  0
   61.3529   45.7733   27.2391 C   0  0  0  0  0  0
   63.2744   47.6519   34.2849 C   0  0  0  0  0  0
   62.9883   47.3053   35.5477 C   0  0  0  0  0  0
   64.0209   46.6514   36.4486 C   0  0  0  0  0  0
   61.6070   47.5105   36.1476 C   0  0  0  0  0  0
   63.3945   45.5099   32.7701 H   0  0  0  0  0  0
   64.3813   45.1482   28.5943 H   0  0  0  0  0  0
   60.5692   48.3359   27.4401 H   0  0  0  0  0  0
   62.0093   49.0486   28.0859 H   0  0  0  0  0  0
   60.0097   47.4558   29.6127 H   0  0  0  0  0  0
   60.9672   48.8598   30.1362 H   0  0  0  0  0  0
   59.9318   46.9352   33.8501 H   0  0  0  0  0  0
   60.9627   45.6088   33.5572 H   0  0  0  0  0  0
   59.9260   45.6794   31.0860 H   0  0  0  0  0  0
   57.7387   45.9247   33.1777 H   0  0  0  0  0  0
   55.6211   45.9909   32.0221 H   0  0  0  0  0  0
   58.8084   43.6771   30.5391 H   0  0  0  0  0  0
   57.3195   43.4784   29.7384 H   0  0  0  0  0  0
   58.3867   44.8423   29.2759 H   0  0  0  0  0  0
   54.8100   44.5637   28.3662 H   0  0  0  0  0  0
   62.8070   48.8767   32.6440 H   0  0  0  0  0  0
   61.6084   48.9318   33.8296 H   0  0  0  0  0  0
   66.7976   45.6923   30.8468 H   0  0  0  0  0  0
   67.3537   44.0771   30.5373 H   0  0  0  0  0  0
   66.4084   44.8879   29.3411 H   0  0  0  0  0  0
   63.9595   42.4384   31.1336 H   0  0  0  0  0  0
   64.4077   42.8987   29.5152 H   0  0  0  0  0  0
   65.5599   42.0895   30.5348 H   0  0  0  0  0  0
   64.6229   43.7045   33.1533 H   0  0  0  0  0  0
   66.3437   43.6786   32.9531 H   0  0  0  0  0  0
   65.5642   45.1935   33.0487 H   0  0  0  0  0  0
   62.9104   48.0303   25.9767 H   0  0  0  0  0  0
   64.1502   47.8705   27.2007 H   0  0  0  0  0  0
   63.7191   46.4836   26.2092 H   0  0  0  0  0  0
   60.5958   46.1230   26.5391 H   0  0  0  0  0  0
   61.9431   44.9904   26.7622 H   0  0  0  0  0  0
   60.8089   45.2932   28.0532 H   0  0  0  0  0  0
   64.2698   47.5018   33.8934 H   0  0  0  0  0  0
   63.6697   45.6749   36.7831 H   0  0  0  0  0  0
   64.9603   46.4773   35.9224 H   0  0  0  0  0  0
   64.2308   47.2768   37.3167 H   0  0  0  0  0  0
   61.2072   46.5735   36.5319 H   0  0  0  0  0  0
   61.6761   48.2208   36.9698 H   0  0  0  0  0  0
   60.8608   47.9230   35.4768 H   0  0  0  0  0  0
  1  2  2  0  0  0
  1  4  1  0  0  0
  1 31  1  0  0  0
  2 21  1  0  0  0
  2  3  1  0  0  0
  3  6  2  0  0  0
  3 32  1  0  0  0
  4  5  2  0  0  0
  4 10  1  0  0  0
  5  9  1  0  0  0
  5  6  1  0  0  0
  6  7  1  0  0  0
  7  8  1  0  0  0
  7 25  1  0  0  0
  7 26  1  0  0  0
  8  9  1  0  0  0
  8 33  1  0  0  0
  8 34  1  0  0  0
  9 35  1  0  0  0
  9 36  1  0  0  0
 10 20  1  0  0  0
 10 11  1  0  0  0
 11 12  1  0  0  0
 11 37  1  0  0  0
 11 38  1  0  0  0
 12 13  2  0  0  0
 12 39  1  0  0  0
 13 14  1  0  0  0
 13 40  1  0  0  0
 14 15  2  0  0  0
 14 16  1  0  0  0
 15 17  1  0  0  0
 15 41  1  0  0  0
 16 42  1  0  0  0
 16 43  1  0  0  0
 16 44  1  0  0  0
 17 18  1  0  0  0
 17 19  2  0  0  0
 18 45  1  0  0  0
 20 27  1  0  0  0
 20 46  1  0  0  0
 20 47  1  0  0  0
 21 22  1  0  0  0
 21 23  1  0  0  0
 21 24  1  0  0  0
 22 48  1  0  0  0
 22 49  1  0  0  0
 22 50  1  0  0  0
 23 51  1  0  0  0
 23 52  1  0  0  0
 23 53  1  0  0  0
 24 54  1  0  0  0
 24 55  1  0  0  0
 24 56  1  0  0  0
 25 57  1  0  0  0
 25 58  1  0  0  0
 25 59  1  0  0  0
 26 60  1  0  0  0
 26 61  1  0  0  0
 26 62  1  0  0  0
 27 28  2  0  0  0
 27 63  1  0  0  0
 28 29  1  0  0  0
 28 30  1  0  0  0
 29 64  1  0  0  0
 29 65  1  0  0  0
 29 66  1  0  0  0
 30 67  1  0  0  0
 30 68  1  0  0  0
 30 69  1  0  0  0
M  END
> <s_m_entry_id>
31059

> <s_m_entry_name>
dock_pv.272

> <s_m_Source_Path>
/home/csk/Desktop/cluster/DUD-E-result/rxra

> <s_m_Source_File>
dock_pv.maegz

> <i_m_Source_File_Index>
272

> <chembl_id>
CHEMBL204789

> <chembl_pref_name>
None

> <i_lp_mmshare_version>
53161

> <r_lp_tautomer_probability>
1

> <s_lp_Force_Field>
OPLS_2005

> <r_lp_Energy>
37.243458

> <b_lp_Chiralities_Consistent>
1

> <s_lp_Variant>
CHEMBL2061_lig576-1

> <s_i_glide_gridfile>
glide-grid_1mv9

> <i_i_glide_lignum>
707

> <i_i_glide_rotatable_bonds>
9

> <r_i_docking_score>
-10.0267011743795

> <r_i_glide_ligand_efficiency>
-0.334223372479317

> <r_i_glide_ligand_efficiency_sa>
-1.03850972603987

> <r_i_glide_ligand_efficiency_ln>
-2.27817575647853

> <r_i_glide_gscore>
-10.0267011743795

> <r_i_glide_lipo>
-5.76257514645724

> <r_i_glide_hbond>
-0.410860890577945

> <r_i_glide_metal>
0

> <r_i_glide_rewards>
-2.50038700373937

> <r_i_glide_evdw>
-28.5682201385498

> <r_i_glide_ecoul>
-4.97386360168457

> <r_i_glide_erotb>
0.821612413575209

> <r_i_glide_esite>
0

> <r_i_glide_emodel>
-47.919227786833

> <r_i_glide_energy>
-33.5420837402344

> <r_i_glide_einternal>
14.4076862335205

> <i_i_glide_confnum>
90

> <i_i_glide_posenum>
136

> <r_i_glide_eff_state_penalty>
0

> <s_user_duplicate_titles>
CHEMBL2061_lig576,345845

> <i_f3d_flags>
0

> <s_m_subgroup_title>
dock_pv

> <s_m_subgroupid>
dock_pv

> <b_m_subgroup_collapsed>
1

$$$$
CHEMBL2061_lig22
                    3D
 Schrodinger Suite 2021-1.
 54 55  0  0  1  0            999 V2000
   63.7599   45.1590   30.9550 C   0  0  0  0  0  0
   62.8743   46.0937   31.5239 C   0  0  0  0  0  0
   61.7276   46.4760   30.8084 C   0  0  0  0  0  0
   61.4362   45.9244   29.5620 C   0  0  0  0  0  0
   62.3077   44.9772   29.0182 C   0  0  0  0  0  0
   63.4553   44.6003   29.7083 C   0  0  0  0  0  0
   65.0180   44.6781   31.6939 C   0  0  0  0  0  0
   64.6653   43.7426   32.8678 C   0  0  0  0  0  0
   65.9574   45.8198   32.1328 C   0  0  0  0  0  0
   60.2923   46.3551   28.8577 N   0  0  0  0  0  0
   58.9585   45.9758   29.1878 C   0  0  0  0  0  0
   60.5527   46.8546   27.4874 C   0  0  0  0  0  0
   61.8044   47.7389   27.3089 C   0  0  0  0  0  0
   58.6118   45.4975   30.4602 C   0  0  0  0  0  0
   57.2755   45.2169   30.7591 C   0  0  0  0  0  0
   56.2827   45.4485   29.8032 C   0  0  0  0  0  0
   56.7009   45.8463   28.5389 C   0  0  0  0  0  0
   57.9980   46.0770   28.2324 N   0  0  0  0  0  0
   63.1666   46.5854   32.7805 O   0  0  0  0  0  0
   62.1812   47.3210   33.4902 C   0  0  0  0  0  0
   62.6341   47.4940   34.9508 C   0  0  0  0  0  0
   61.4498   47.9447   35.8110 C   0  0  0  0  0  0
   63.8360   48.4425   35.0913 C   0  0  0  0  0  0
   54.8248   45.2821   30.1157 C   0  0  0  0  0  0
   54.0154   46.1697   29.4676 O   0  0  0  0  0  0
   54.4088   44.4773   30.9389 O   0  0  0  0  0  0
   61.0508   47.2164   31.2047 H   0  0  0  0  0  0
   62.0957   44.5296   28.0586 H   0  0  0  0  0  0
   64.0945   43.8499   29.2719 H   0  0  0  0  0  0
   65.6038   44.0894   30.9835 H   0  0  0  0  0  0
   64.0656   42.8950   32.5323 H   0  0  0  0  0  0
   65.5627   43.3401   33.3402 H   0  0  0  0  0  0
   64.0987   44.2635   33.6400 H   0  0  0  0  0  0
   66.2096   46.4768   31.3007 H   0  0  0  0  0  0
   65.5395   46.4377   32.9255 H   0  0  0  0  0  0
   66.8813   45.4105   32.5333 H   0  0  0  0  0  0
   60.6010   46.0063   26.8052 H   0  0  0  0  0  0
   59.7073   47.4554   27.1522 H   0  0  0  0  0  0
   61.8787   48.0769   26.2768 H   0  0  0  0  0  0
   61.7586   48.6244   27.9443 H   0  0  0  0  0  0
   62.7313   47.2097   27.5262 H   0  0  0  0  0  0
   59.3483   45.3778   31.2335 H   0  0  0  0  0  0
   57.0148   44.8777   31.7454 H   0  0  0  0  0  0
   56.0074   45.9840   27.7212 H   0  0  0  0  0  0
   61.2374   46.7717   33.4691 H   0  0  0  0  0  0
   62.0127   48.2919   33.0203 H   0  0  0  0  0  0
   62.9434   46.5136   35.3188 H   0  0  0  0  0  0
   61.0198   48.8766   35.4506 H   0  0  0  0  0  0
   61.7231   48.0779   36.8577 H   0  0  0  0  0  0
   60.6752   47.1851   35.7500 H   0  0  0  0  0  0
   63.6083   49.4362   34.7058 H   0  0  0  0  0  0
   64.1374   48.5493   36.1342 H   0  0  0  0  0  0
   64.6975   48.0690   34.5368 H   0  0  0  0  0  0
   54.5310   46.7732   28.9286 H   0  0  0  0  0  0
  1  2  2  0  0  0
  1  6  1  0  0  0
  1  7  1  0  0  0
  2  3  1  0  0  0
  2 19  1  0  0  0
  3  4  2  0  0  0
  3 27  1  0  0  0
  4  5  1  0  0  0
  4 10  1  0  0  0
  5  6  2  0  0  0
  5 28  1  0  0  0
  6 29  1  0  0  0
  7  8  1  0  0  0
  7  9  1  0  0  0
  7 30  1  0  0  0
  8 31  1  0  0  0
  8 32  1  0  0  0
  8 33  1  0  0  0
  9 34  1  0  0  0
  9 35  1  0  0  0
  9 36  1  0  0  0
 10 11  1  0  0  0
 10 12  1  0  0  0
 11 14  2  0  0  0
 11 18  1  0  0  0
 12 13  1  0  0  0
 12 37  1  0  0  0
 12 38  1  0  0  0
 13 39  1  0  0  0
 13 40  1  0  0  0
 13 41  1  0  0  0
 14 15  1  0  0  0
 14 42  1  0  0  0
 15 16  2  0  0  0
 15 43  1  0  0  0
 16 17  1  0  0  0
 16 24  1  0  0  0
 17 18  2  0  0  0
 17 44  1  0  0  0
 19 20  1  0  0  0
 20 21  1  0  0  0
 20 45  1  0  0  0
 20 46  1  0  0  0
 21 22  1  0  0  0
 21 23  1  0  0  0
 21 47  1  0  0  0
 22 48  1  0  0  0
 22 49  1  0  0  0
 22 50  1  0  0  0
 23 51  1  0  0  0
 23 52  1  0  0  0
 23 53  1  0  0  0
 24 25  1  0  0  0
 24 26  2  0  0  0
 25 54  1  0  0  0
M  END
> <s_m_entry_id>
31060

> <s_m_entry_name>
dock_pv.273

> <s_m_Source_Path>
/home/csk/Desktop/cluster/DUD-E-result/rxra

> <s_m_Source_File>
dock_pv.maegz

> <i_m_Source_File_Index>
273

> <chembl_id>
CHEMBL1688383

> <chembl_pref_name>
None

> <i_lp_mmshare_version>
53161

> <r_lp_tautomer_probability>
1

> <s_lp_Force_Field>
OPLS_2005

> <r_lp_Energy>
26.359493

> <b_lp_Chiralities_Consistent>
1

> <s_lp_Variant>
CHEMBL2061_lig22-1

> <s_i_glide_gridfile>
glide-grid_1mv9

> <i_i_glide_lignum>
26

> <i_i_glide_rotatable_bonds>
9

> <r_i_docking_score>
-10.0131765399268

> <r_i_glide_ligand_efficiency>
-0.385122174612569

> <r_i_glide_ligand_efficiency_sa>
-1.14092292690715

> <r_i_glide_ligand_efficiency_ln>
-2.35156165448973

> <r_i_glide_gscore>
-10.0131765399268

> <r_i_glide_lipo>
-5.88178388697134

> <r_i_glide_hbond>
-0.32

> <r_i_glide_metal>
0

> <r_i_glide_rewards>
-1.54704345393783

> <r_i_glide_evdw>
-47.3756942749023

> <r_i_glide_ecoul>
-4.32296085357666

> <r_i_glide_erotb>
0.752879642764001

> <r_i_glide_esite>
0

> <r_i_glide_emodel>
-76.1000557168457

> <r_i_glide_energy>
-51.698655128479

> <r_i_glide_einternal>
8.22365474700928

> <i_i_glide_confnum>
29

> <i_i_glide_posenum>
248

> <r_i_glide_eff_state_penalty>
0

> <s_user_duplicate_titles>
CHEMBL2061_lig22

> <i_f3d_flags>
0

> <s_m_subgroup_title>
dock_pv

> <s_m_subgroupid>
dock_pv

> <b_m_subgroup_collapsed>
1

$$$$
CHEMBL2061_lig293
                    3D
 Schrodinger Suite 2021-1.
 51 53  0  0  1  0            999 V2000
   62.9309   46.4945   32.9597 C   0  0  0  0  0  0
   64.0426   45.6904   32.5782 C   0  0  0  0  0  0
   62.0278   46.8882   31.9569 C   0  0  0  0  0  0
   62.1115   46.4320   30.6422 C   0  0  0  0  0  0
   64.1336   45.2762   31.2380 C   0  0  0  0  0  0
   62.7029   46.9803   34.4164 C   0  0  0  0  0  0
   65.1211   45.2153   33.5850 C   0  0  0  0  0  0
   55.7236   45.1279   29.7741 C   0  0  0  0  0  0
   63.1859   45.6223   30.2783 C   0  0  0  0  0  0
   61.1625   46.7972   29.7087 O   0  0  0  0  0  0
   57.1864   45.4689   29.7407 C   0  0  0  0  0  0
   65.0232   46.0120   34.9120 C   0  0  0  0  0  0
   63.5909   46.1859   35.4087 C   0  0  0  0  0  0
   55.0600   45.0768   30.8104 O   0  0  0  0  0  0
   57.7578   46.0666   28.6101 C   0  0  0  0  0  0
   57.9706   45.2784   30.8757 C   0  0  0  0  0  0
   59.8757   46.2870   29.7395 C   0  0  0  0  0  0
   55.2083   44.8772   28.5465 O   0  0  0  0  0  0
   59.2924   45.7002   30.8714 C   0  0  0  0  0  0
   59.0918   46.4648   28.6045 C   0  0  0  0  0  0
   63.0801   48.4767   34.4917 C   0  0  0  0  0  0
   61.2392   46.7247   34.8632 C   0  0  0  0  0  0
   64.8908   43.7115   33.8721 C   0  0  0  0  0  0
   66.5437   45.4951   33.0355 C   0  0  0  0  0  0
   63.3588   45.1200   28.8542 C   0  0  0  0  0  0
   61.2094   47.5469   32.2025 H   0  0  0  0  0  0
   64.9547   44.6445   30.9339 H   0  0  0  0  0  0
   65.4679   46.9994   34.7911 H   0  0  0  0  0  0
   65.6077   45.5263   35.6923 H   0  0  0  0  0  0
   63.6071   46.6785   36.3827 H   0  0  0  0  0  0
   63.1739   45.1970   35.5991 H   0  0  0  0  0  0
   57.1571   46.2560   27.7391 H   0  0  0  0  0  0
   57.5525   44.8748   31.7858 H   0  0  0  0  0  0
   55.9040   44.7002   27.9125 H   0  0  0  0  0  0
   59.8322   45.6770   31.8016 H   0  0  0  0  0  0
   59.5118   46.9418   27.7313 H   0  0  0  0  0  0
   63.0149   48.8601   35.5109 H   0  0  0  0  0  0
   64.0931   48.6597   34.1393 H   0  0  0  0  0  0
   62.4151   49.0791   33.8714 H   0  0  0  0  0  0
   61.0864   47.0176   35.9019 H   0  0  0  0  0  0
   60.5120   47.2769   34.2761 H   0  0  0  0  0  0
   60.9653   45.6773   34.7769 H   0  0  0  0  0  0
   65.6129   43.3334   34.5943 H   0  0  0  0  0  0
   63.8931   43.5084   34.2616 H   0  0  0  0  0  0
   65.0063   43.1099   32.9699 H   0  0  0  0  0  0
   67.3033   45.2897   33.7908 H   0  0  0  0  0  0
   66.7990   44.8758   32.1758 H   0  0  0  0  0  0
   66.6611   46.5377   32.7337 H   0  0  0  0  0  0
   64.3926   45.2648   28.5392 H   0  0  0  0  0  0
   63.1390   44.0540   28.7956 H   0  0  0  0  0  0
   62.7307   45.6551   28.1408 H   0  0  0  0  0  0
  1  2  2  0  0  0
  1  3  1  0  0  0
  1  6  1  0  0  0
  2  5  1  0  0  0
  2  7  1  0  0  0
  3  4  2  0  0  0
  3 26  1  0  0  0
  4  9  1  0  0  0
  4 10  1  0  0  0
  5  9  2  0  0  0
  5 27  1  0  0  0
  6 13  1  0  0  0
  6 21  1  0  0  0
  6 22  1  0  0  0
  7 23  1  0  0  0
  7 24  1  0  0  0
  7 12  1  0  0  0
  8 11  1  0  0  0
  8 14  2  0  0  0
  8 18  1  0  0  0
  9 25  1  0  0  0
 10 17  1  0  0  0
 11 15  2  0  0  0
 11 16  1  0  0  0
 12 13  1  0  0  0
 12 28  1  0  0  0
 12 29  1  0  0  0
 13 30  1  0  0  0
 13 31  1  0  0  0
 15 20  1  0  0  0
 15 32  1  0  0  0
 16 19  2  0  0  0
 16 33  1  0  0  0
 17 19  1  0  0  0
 17 20  2  0  0  0
 18 34  1  0  0  0
 19 35  1  0  0  0
 20 36  1  0  0  0
 21 37  1  0  0  0
 21 38  1  0  0  0
 21 39  1  0  0  0
 22 40  1  0  0  0
 22 41  1  0  0  0
 22 42  1  0  0  0
 23 43  1  0  0  0
 23 44  1  0  0  0
 23 45  1  0  0  0
 24 46  1  0  0  0
 24 47  1  0  0  0
 24 48  1  0  0  0
 25 49  1  0  0  0
 25 50  1  0  0  0
 25 51  1  0  0  0
M  END
> <s_m_entry_id>
31061

> <s_m_entry_name>
dock_pv.274

> <s_m_Source_Path>
/home/csk/Desktop/cluster/DUD-E-result/rxra

> <s_m_Source_File>
dock_pv.maegz

> <i_m_Source_File_Index>
274

> <chembl_id>
CHEMBL105805

> <chembl_pref_name>
None

> <i_lp_mmshare_version>
53161

> <r_lp_tautomer_probability>
1

> <s_lp_Force_Field>
OPLS_2005

> <r_lp_Energy>
24.886383

> <b_lp_Chiralities_Consistent>
1

> <s_lp_Variant>
CHEMBL2061_lig293-1

> <s_i_glide_gridfile>
glide-grid_1mv9

> <i_i_glide_lignum>
339

> <i_i_glide_rotatable_bonds>
4

> <r_i_docking_score>
-10.0120536976654

> <r_i_glide_ligand_efficiency>
-0.400482147906617

> <r_i_glide_ligand_efficiency_sa>
-1.17101690306008

> <r_i_glide_ligand_efficiency_ln>
-2.37315676338452

> <r_i_glide_gscore>
-10.0120536976654

> <r_i_glide_lipo>
-5.93447490521317

> <r_i_glide_hbond>
0

> <r_i_glide_metal>
0

> <r_i_glide_rewards>
-2.31119769290602

> <r_i_glide_evdw>
-40.7269973754883

> <r_i_glide_ecoul>
-1.5024139881134

> <r_i_glide_erotb>
0.495330867445198

> <r_i_glide_esite>
0

> <r_i_glide_emodel>
-63.5262765814195

> <r_i_glide_energy>
-42.2294113636017

> <r_i_glide_einternal>
5.77578639984131

> <i_i_glide_confnum>
10

> <i_i_glide_posenum>
122

> <r_i_glide_eff_state_penalty>
0

> <s_user_duplicate_titles>
CHEMBL2061_lig293,176458

> <i_f3d_flags>
0

> <s_m_subgroup_title>
dock_pv

> <s_m_subgroupid>
dock_pv

> <b_m_subgroup_collapsed>
1

$$$$
CHEMBL2061_lig276
                    3D
 Schrodinger Suite 2021-1.
 50 52  0  0  1  0            999 V2000
   62.9647   46.5217   32.8098 C   0  0  0  0  0  0
   64.0823   45.7146   32.4510 C   0  0  0  0  0  0
   62.6856   46.9744   34.2703 C   0  0  0  0  0  0
   65.1281   45.2274   33.4856 C   0  0  0  0  0  0
   55.6405   45.2193   30.0479 C   0  0  0  0  0  0
   64.2064   45.3102   31.1098 C   0  0  0  0  0  0
   62.0936   46.9355   31.7850 C   0  0  0  0  0  0
   57.0935   45.5120   29.7963 C   0  0  0  0  0  0
   63.5728   46.1933   35.2771 C   0  0  0  0  0  0
   65.0148   46.0388   34.8009 C   0  0  0  0  0  0
   55.1225   45.2769   31.1628 O   0  0  0  0  0  0
   62.2116   46.4904   30.4663 C   0  0  0  0  0  0
   57.5417   46.0748   28.5875 C   0  0  0  0  0  0
   58.0022   45.3096   30.8332 C   0  0  0  0  0  0
   63.2878   45.6779   30.1344 C   0  0  0  0  0  0
   61.1891   46.9001   29.3988 C   0  0  0  0  0  0
   54.9515   44.8746   28.9390 O   0  0  0  0  0  0
   59.7667   46.3313   29.5171 C   0  0  0  0  0  0
   59.3159   45.7253   30.6898 C   0  0  0  0  0  0
   58.8735   46.4767   28.4548 C   0  0  0  0  0  0
   63.0131   48.4782   34.3984 C   0  0  0  0  0  0
   61.2170   46.6643   34.6645 C   0  0  0  0  0  0
   64.8665   43.7303   33.7819 C   0  0  0  0  0  0
   66.5641   45.4817   32.9678 C   0  0  0  0  0  0
   65.0231   44.6713   30.8113 H   0  0  0  0  0  0
   61.2682   47.5872   32.0276 H   0  0  0  0  0  0
   63.1667   45.2010   35.4678 H   0  0  0  0  0  0
   63.5685   46.6877   36.2497 H   0  0  0  0  0  0
   65.6078   45.5734   35.5892 H   0  0  0  0  0  0
   65.4454   47.0311   34.6674 H   0  0  0  0  0  0
   56.8735   46.2233   27.7477 H   0  0  0  0  0  0
   57.6878   44.9000   31.7835 H   0  0  0  0  0  0
   63.4186   45.3243   29.1218 H   0  0  0  0  0  0
   61.5788   46.6427   28.4123 H   0  0  0  0  0  0
   61.1157   47.9879   29.4080 H   0  0  0  0  0  0
   55.5504   44.6614   28.2207 H   0  0  0  0  0  0
   59.9517   45.6771   31.5545 H   0  0  0  0  0  0
   59.2032   46.9332   27.5326 H   0  0  0  0  0  0
   62.8547   48.8363   35.4164 H   0  0  0  0  0  0
   64.0473   48.6959   34.1409 H   0  0  0  0  0  0
   62.3867   49.0825   33.7402 H   0  0  0  0  0  0
   61.0434   46.8434   35.7264 H   0  0  0  0  0  0
   60.4985   47.2774   34.1276 H   0  0  0  0  0  0
   60.9511   45.6298   34.4604 H   0  0  0  0  0  0
   65.5469   43.3535   34.5442 H   0  0  0  0  0  0
   63.8496   43.5421   34.1243 H   0  0  0  0  0  0
   65.0159   43.1142   32.8957 H   0  0  0  0  0  0
   67.3052   45.2382   33.7318 H   0  0  0  0  0  0
   66.8072   44.8765   32.0959 H   0  0  0  0  0  0
   66.7130   46.5262   32.6894 H   0  0  0  0  0  0
  1  2  2  0  0  0
  1  3  1  0  0  0
  1  7  1  0  0  0
  2  4  1  0  0  0
  2  6  1  0  0  0
  3  9  1  0  0  0
  3 21  1  0  0  0
  3 22  1  0  0  0
  4 23  1  0  0  0
  4 24  1  0  0  0
  4 10  1  0  0  0
  5  8  1  0  0  0
  5 11  2  0  0  0
  5 17  1  0  0  0
  6 15  2  0  0  0
  6 25  1  0  0  0
  7 12  2  0  0  0
  7 26  1  0  0  0
  8 13  2  0  0  0
  8 14  1  0  0  0
  9 10  1  0  0  0
  9 27  1  0  0  0
  9 28  1  0  0  0
 10 29  1  0  0  0
 10 30  1  0  0  0
 12 15  1  0  0  0
 12 16  1  0  0  0
 13 20  1  0  0  0
 13 31  1  0  0  0
 14 19  2  0  0  0
 14 32  1  0  0  0
 15 33  1  0  0  0
 16 18  1  0  0  0
 16 34  1  0  0  0
 16 35  1  0  0  0
 17 36  1  0  0  0
 18 19  1  0  0  0
 18 20  2  0  0  0
 19 37  1  0  0  0
 20 38  1  0  0  0
 21 39  1  0  0  0
 21 40  1  0  0  0
 21 41  1  0  0  0
 22 42  1  0  0  0
 22 43  1  0  0  0
 22 44  1  0  0  0
 23 45  1  0  0  0
 23 46  1  0  0  0
 23 47  1  0  0  0
 24 48  1  0  0  0
 24 49  1  0  0  0
 24 50  1  0  0  0
M  END
> <s_m_entry_id>
31062

> <s_m_entry_name>
dock_pv.275

> <s_m_Source_Path>
/home/csk/Desktop/cluster/DUD-E-result/rxra

> <s_m_Source_File>
dock_pv.maegz

> <i_m_Source_File_Index>
275

> <chembl_id>
CHEMBL114390

> <chembl_pref_name>
None

> <i_lp_mmshare_version>
53161

> <r_lp_tautomer_probability>
1

> <s_lp_Force_Field>
OPLS_2005

> <r_lp_Energy>
23.234155

> <b_lp_Chiralities_Consistent>
1

> <s_lp_Variant>
CHEMBL2061_lig276-1

> <s_i_glide_gridfile>
glide-grid_1mv9

> <i_i_glide_lignum>
321

> <i_i_glide_rotatable_bonds>
4

> <r_i_docking_score>
-10.0085716493757

> <r_i_glide_ligand_efficiency>
-0.417023818723987

> <r_i_glide_ligand_efficiency_sa>
-1.20290484545095

> <r_i_glide_ligand_efficiency_ln>
-2.39551045912258

> <r_i_glide_gscore>
-10.0085716493757

> <r_i_glide_lipo>
-5.84979250886435

> <r_i_glide_hbond>
0

> <r_i_glide_metal>
0

> <r_i_glide_rewards>
-2.41870646870654

> <r_i_glide_evdw>
-39.6102180480957

> <r_i_glide_ecoul>
-1.99441123008728

> <r_i_glide_erotb>
0.539599915113079

> <r_i_glide_esite>
0

> <r_i_glide_emodel>
-63.8570032838587

> <r_i_glide_energy>
-41.604629278183

> <r_i_glide_einternal>
5.12623405456543

> <i_i_glide_confnum>
11

> <i_i_glide_posenum>
3

> <r_i_glide_eff_state_penalty>
0

> <s_user_duplicate_titles>
CHEMBL2061_lig276

> <i_f3d_flags>
0

> <s_m_subgroup_title>
dock_pv

> <s_m_subgroupid>
dock_pv

> <b_m_subgroup_collapsed>
1

$$$$
CHEMBL2061_lig493
                    3D
 Schrodinger Suite 2021-1.
 47 48  0  0  1  0            999 V2000
   55.1745   45.6048   29.9816 C   0  0  0  0  0  0
   56.3880   46.0675   29.3286 C   0  0  0  0  0  0
   57.6836   45.6814   29.5056 C   0  0  0  0  0  0
   58.1317   44.5389   30.4183 C   0  0  0  0  0  0
   58.6956   46.4045   28.7338 C   0  0  0  0  0  0
   59.9892   46.5479   29.0764 C   0  0  0  0  0  0
   60.9385   47.2886   28.2554 C   0  0  0  0  0  0
   62.2110   47.5909   28.5968 C   0  0  0  0  0  0
   62.7618   47.1762   29.8830 C   0  0  0  0  0  0
   63.9512   45.5978   31.4449 C   0  0  0  0  0  0
   63.9058   46.4771   32.5441 C   0  0  0  0  0  0
   64.2931   46.0810   33.8241 C   0  0  0  0  0  0
   64.7376   44.7799   34.0336 C   0  0  0  0  0  0
   64.7933   43.8914   32.9675 C   0  0  0  0  0  0
   64.4131   44.2773   31.6759 C   0  0  0  0  0  0
   54.0649   46.0762   29.7391 O   0  0  0  0  0  0
   55.3547   44.6587   30.9387 O   0  0  0  0  0  0
   63.0971   48.3373   27.6126 C   0  0  0  0  0  0
   64.5248   43.2720   30.5335 C   0  0  0  0  0  0
   63.5471   43.6016   29.4000 C   0  0  0  0  0  0
   63.7519   45.0501   28.9389 C   0  0  0  0  0  0
   63.4505   46.0232   30.0861 C   0  0  0  0  0  0
   64.2390   47.0664   34.9764 C   0  0  0  0  0  0
   56.1708   46.8604   28.6267 H   0  0  0  0  0  0
   59.1162   44.1621   30.1392 H   0  0  0  0  0  0
   58.1320   44.8390   31.4664 H   0  0  0  0  0  0
   57.4887   43.6687   30.2993 H   0  0  0  0  0  0
   58.4065   46.8759   27.8089 H   0  0  0  0  0  0
   60.3369   46.1054   29.9991 H   0  0  0  0  0  0
   60.5954   47.6253   27.2866 H   0  0  0  0  0  0
   62.5735   47.8546   30.6972 H   0  0  0  0  0  0
   63.5715   47.4957   32.4329 H   0  0  0  0  0  0
   65.0431   44.4520   35.0168 H   0  0  0  0  0  0
   65.1432   42.8844   33.1476 H   0  0  0  0  0  0
   56.2865   44.4566   31.0311 H   0  0  0  0  0  0
   64.1382   48.0303   27.7314 H   0  0  0  0  0  0
   62.8327   48.0898   26.5826 H   0  0  0  0  0  0
   63.0252   49.4177   27.7391 H   0  0  0  0  0  0
   64.3572   42.2542   30.8910 H   0  0  0  0  0  0
   65.5405   43.3013   30.1390 H   0  0  0  0  0  0
   62.5215   43.4665   29.7378 H   0  0  0  0  0  0
   63.6898   42.9106   28.5673 H   0  0  0  0  0  0
   63.1102   45.2273   28.0762 H   0  0  0  0  0  0
   64.7719   45.2070   28.5866 H   0  0  0  0  0  0
   64.6665   48.0226   34.6750 H   0  0  0  0  0  0
   63.2071   47.2440   35.2771 H   0  0  0  0  0  0
   64.8063   46.7125   35.8375 H   0  0  0  0  0  0
  1  2  1  0  0  0
  1 16  2  0  0  0
  1 17  1  0  0  0
  2  3  2  0  0  0
  2 24  1  0  0  0
  3  4  1  0  0  0
  3  5  1  0  0  0
  4 25  1  0  0  0
  4 26  1  0  0  0
  4 27  1  0  0  0
  5  6  2  0  0  0
  5 28  1  0  0  0
  6  7  1  0  0  0
  6 29  1  0  0  0
  7  8  2  0  0  0
  7 30  1  0  0  0
  8  9  1  0  0  0
  8 18  1  0  0  0
  9 22  2  0  0  0
  9 31  1  0  0  0
 10 22  1  0  0  0
 10 11  2  0  0  0
 10 15  1  0  0  0
 11 12  1  0  0  0
 11 32  1  0  0  0
 12 13  2  0  0  0
 12 23  1  0  0  0
 13 14  1  0  0  0
 13 33  1  0  0  0
 14 15  2  0  0  0
 14 34  1  0  0  0
 15 19  1  0  0  0
 17 35  1  0  0  0
 18 36  1  0  0  0
 18 37  1  0  0  0
 18 38  1  0  0  0
 19 20  1  0  0  0
 19 39  1  0  0  0
 19 40  1  0  0  0
 20 21  1  0  0  0
 20 41  1  0  0  0
 20 42  1  0  0  0
 21 22  1  0  0  0
 21 43  1  0  0  0
 21 44  1  0  0  0
 23 45  1  0  0  0
 23 46  1  0  0  0
 23 47  1  0  0  0
M  END
> <s_m_entry_id>
31063

> <s_m_entry_name>
dock_pv.276

> <s_m_Source_Path>
/home/csk/Desktop/cluster/DUD-E-result/rxra

> <s_m_Source_File>
dock_pv.maegz

> <i_m_Source_File_Index>
276

> <chembl_id>
CHEMBL3289659

> <chembl_pref_name>
None

> <i_lp_mmshare_version>
53161

> <r_lp_tautomer_probability>
1

> <s_lp_Force_Field>
OPLS_2005

> <r_lp_Energy>
27.908792

> <b_lp_Chiralities_Consistent>
1

> <s_lp_Variant>
CHEMBL2061_lig493-1

> <s_i_glide_gridfile>
glide-grid_1mv9

> <i_i_glide_lignum>
582

> <i_i_glide_rotatable_bonds>
5

> <r_i_docking_score>
-9.96781193215436

> <r_i_glide_ligand_efficiency>
-0.433383127484972

> <r_i_glide_ligand_efficiency_sa>
-1.23248396459117

> <r_i_glide_ligand_efficiency_ln>
-2.41030730831643

> <r_i_glide_gscore>
-9.96781193215436

> <r_i_glide_lipo>
-5.71138654761296

> <r_i_glide_hbond>
-0.130753902218749

> <r_i_glide_metal>
0

> <r_i_glide_rewards>
-2.13812038080743

> <r_i_glide_evdw>
-42.0332794189453

> <r_i_glide_ecoul>
-4.42605304718018

> <r_i_glide_erotb>
0.778020826509068

> <r_i_glide_esite>
0

> <r_i_glide_emodel>
-71.192511114514

> <r_i_glide_energy>
-46.4593324661255

> <r_i_glide_einternal>
8.54507160186768

> <i_i_glide_confnum>
94

> <i_i_glide_posenum>
110

> <r_i_glide_eff_state_penalty>
0

> <s_user_duplicate_titles>
CHEMBL2061_lig493

> <i_f3d_flags>
0

> <s_m_subgroup_title>
dock_pv

> <s_m_subgroupid>
dock_pv

> <b_m_subgroup_collapsed>
1

$$$$
CHEMBL2061_lig593
                    3D
 Schrodinger Suite 2021-1.
 48 50  0  0  1  0            999 V2000
   64.2107   45.6732   30.8964 C   0  0  0  0  0  0
   63.1626   45.9634   30.0275 C   0  0  0  0  0  0
   61.9917   46.5630   30.5225 C   0  0  0  0  0  0
   61.9192   46.8768   31.8866 C   0  0  0  0  0  0
   60.8711   46.9361   29.6024 C   0  0  0  0  0  0
   64.0862   45.9112   32.2617 C   0  0  0  0  0  0
   62.9320   46.5246   32.7920 C   0  0  0  0  0  0
   62.8234   46.8203   34.3016 C   0  0  0  0  0  0
   63.8312   45.9052   35.0481 C   0  0  0  0  0  0
   65.2137   45.8901   34.3688 C   0  0  0  0  0  0
   65.1237   45.4131   33.0277 O   0  0  0  0  0  0
   63.2071   48.2943   34.5394 C   0  0  0  0  0  0
   61.3996   46.5084   34.8275 C   0  0  0  0  0  0
   63.3554   45.6807   28.6952 O   0  0  0  0  0  0
   62.5382   44.6523   28.1390 C   0  0  0  0  0  0
   62.9425   43.2769   28.6758 C   0  0  0  0  0  0
   61.1179   47.6454   28.6239 O   0  0  0  0  0  0
   59.5148   46.2840   29.7386 C   0  0  0  0  0  0
   59.0943   45.6773   30.9294 C   0  0  0  0  0  0
   57.7862   45.2474   31.0947 C   0  0  0  0  0  0
   56.8696   45.3707   30.0516 C   0  0  0  0  0  0
   57.2920   45.9128   28.8341 C   0  0  0  0  0  0
   58.6021   46.3608   28.6788 C   0  0  0  0  0  0
   55.4241   45.0434   30.2832 C   0  0  0  0  0  0
   54.8080   44.4770   29.2214 O   0  0  0  0  0  0
   54.8441   45.2769   31.3390 O   0  0  0  0  0  0
   65.1052   45.2065   30.5108 H   0  0  0  0  0  0
   61.0511   47.3969   32.2636 H   0  0  0  0  0  0
   63.4617   44.8785   35.0698 H   0  0  0  0  0  0
   63.9308   46.2077   36.0916 H   0  0  0  0  0  0
   65.8922   45.2388   34.9211 H   0  0  0  0  0  0
   65.6597   46.8842   34.3736 H   0  0  0  0  0  0
   63.2120   48.5457   35.6013 H   0  0  0  0  0  0
   64.1909   48.5339   34.1393 H   0  0  0  0  0  0
   62.4985   48.9619   34.0490 H   0  0  0  0  0  0
   61.3735   46.4549   35.9165 H   0  0  0  0  0  0
   60.6837   47.2776   34.5395 H   0  0  0  0  0  0
   61.0140   45.5689   34.4375 H   0  0  0  0  0  0
   61.4747   44.8021   28.2940 H   0  0  0  0  0  0
   62.6681   44.6902   27.0593 H   0  0  0  0  0  0
   62.4079   42.4815   28.1604 H   0  0  0  0  0  0
   64.0068   43.0940   28.5391 H   0  0  0  0  0  0
   62.7485   43.1810   29.7389 H   0  0  0  0  0  0
   59.7251   45.6770   31.8013 H   0  0  0  0  0  0
   57.4903   44.8771   32.0640 H   0  0  0  0  0  0
   56.6042   46.0502   28.0111 H   0  0  0  0  0  0
   58.8815   46.8179   27.7388 H   0  0  0  0  0  0
   55.4316   44.2064   28.5424 H   0  0  0  0  0  0
  1  6  1  0  0  0
  1  2  2  0  0  0
  1 27  1  0  0  0
  2  3  1  0  0  0
  2 14  1  0  0  0
  3  4  2  0  0  0
  3  5  1  0  0  0
  4  7  1  0  0  0
  4 28  1  0  0  0
  5 17  2  0  0  0
  5 18  1  0  0  0
  6  7  2  0  0  0
  6 11  1  0  0  0
  7  8  1  0  0  0
  8  9  1  0  0  0
  8 12  1  0  0  0
  8 13  1  0  0  0
  9 10  1  0  0  0
  9 29  1  0  0  0
  9 30  1  0  0  0
 10 11  1  0  0  0
 10 31  1  0  0  0
 10 32  1  0  0  0
 12 33  1  0  0  0
 12 34  1  0  0  0
 12 35  1  0  0  0
 13 36  1  0  0  0
 13 37  1  0  0  0
 13 38  1  0  0  0
 14 15  1  0  0  0
 15 16  1  0  0  0
 15 39  1  0  0  0
 15 40  1  0  0  0
 16 41  1  0  0  0
 16 42  1  0  0  0
 16 43  1  0  0  0
 18 19  2  0  0  0
 18 23  1  0  0  0
 19 20  1  0  0  0
 19 44  1  0  0  0
 20 21  2  0  0  0
 20 45  1  0  0  0
 21 22  1  0  0  0
 21 24  1  0  0  0
 22 23  2  0  0  0
 22 46  1  0  0  0
 23 47  1  0  0  0
 24 25  1  0  0  0
 24 26  2  0  0  0
 25 48  1  0  0  0
M  END
> <s_m_entry_id>
31064

> <s_m_entry_name>
dock_pv.277

> <s_m_Source_Path>
/home/csk/Desktop/cluster/DUD-E-result/rxra

> <s_m_Source_File>
dock_pv.maegz

> <i_m_Source_File_Index>
277

> <chembl_id>
CHEMBL3716703

> <chembl_pref_name>
None

> <i_lp_mmshare_version>
53161

> <r_lp_tautomer_probability>
1

> <s_lp_Force_Field>
OPLS_2005

> <r_lp_Energy>
31.257916

> <b_lp_Chiralities_Consistent>
1

> <s_lp_Variant>
CHEMBL2061_lig593-1

> <s_i_glide_gridfile>
glide-grid_1mv9

> <i_i_glide_lignum>
728

> <i_i_glide_rotatable_bonds>
6

> <r_i_docking_score>
-9.95190404479392

> <r_i_glide_ligand_efficiency>
-0.382765540184381

> <r_i_glide_ligand_efficiency_sa>
-1.13394140668656

> <r_i_glide_ligand_efficiency_ln>
-2.33717201005923

> <r_i_glide_gscore>
-9.95190404479392

> <r_i_glide_lipo>
-5.32311311616471

> <r_i_glide_hbond>
-0.0173563259813626

> <r_i_glide_metal>
0

> <r_i_glide_rewards>
-2.50301976603131

> <r_i_glide_evdw>
-45.0402412414551

> <r_i_glide_ecoul>
-3.09973812103271

> <r_i_glide_erotb>
0.608557943611125

> <r_i_glide_esite>
0

> <r_i_glide_emodel>
-69.4557756044721

> <r_i_glide_energy>
-48.1399793624878

> <r_i_glide_einternal>
10.6858959197998

> <i_i_glide_confnum>
53

> <i_i_glide_posenum>
170

> <r_i_glide_eff_state_penalty>
0

> <s_user_duplicate_titles>
CHEMBL2061_lig593

> <i_f3d_flags>
0

> <s_m_subgroup_title>
dock_pv

> <s_m_subgroupid>
dock_pv

> <b_m_subgroup_collapsed>
1

$$$$
CHEMBL2061_lig331
                    3D
 Schrodinger Suite 2021-1.
 47 49  0  0  1  0            999 V2000
   57.0757   45.4085   30.1581 C   0  0  0  0  0  0
   59.3777   46.1258   29.7390 C   0  0  0  0  0  0
   57.9337   46.0770   28.7907 S   0  0  0  0  0  0
   62.7883   46.5258   32.7128 C   0  0  0  0  0  0
   63.9780   45.8256   32.3679 C   0  0  0  0  0  0
   59.2080   45.6770   30.9516 N   0  0  0  0  0  0
   57.9801   45.2770   31.2008 C   0  0  0  0  0  0
   62.0771   46.4568   30.3599 C   0  0  0  0  0  0
   61.8929   46.8612   31.6815 C   0  0  0  0  0  0
   55.6616   45.1857   30.1700 C   0  0  0  0  0  0
   64.1599   45.4540   31.0248 C   0  0  0  0  0  0
   60.8613   46.8563   29.1119 S   0  0  0  0  0  0
   65.0409   45.4173   33.4205 C   0  0  0  0  0  0
   62.4503   46.9469   34.1673 C   0  0  0  0  0  0
   63.2329   45.7509   30.0271 C   0  0  0  0  0  0
   54.9673   45.2580   31.1826 O   0  0  0  0  0  0
   63.4017   46.2724   35.1904 C   0  0  0  0  0  0
   64.8567   46.2370   34.7223 C   0  0  0  0  0  0
   55.1837   44.8770   28.9390 O   0  0  0  0  0  0
   62.6235   48.4770   34.2976 C   0  0  0  0  0  0
   64.8725   43.9102   33.7362 C   0  0  0  0  0  0
   66.4656   45.7513   32.9163 C   0  0  0  0  0  0
   61.0167   46.4770   34.5338 C   0  0  0  0  0  0
   63.4971   45.2846   28.6048 C   0  0  0  0  0  0
   57.7437   44.9199   32.1916 H   0  0  0  0  0  0
   61.0101   47.4323   31.9213 H   0  0  0  0  0  0
   65.0405   44.8947   30.7478 H   0  0  0  0  0  0
   63.3449   46.7858   36.1504 H   0  0  0  0  0  0
   63.0814   45.2550   35.4055 H   0  0  0  0  0  0
   65.2068   47.2601   34.5773 H   0  0  0  0  0  0
   65.4854   45.8323   35.5175 H   0  0  0  0  0  0
   55.8880   44.7486   28.3012 H   0  0  0  0  0  0
   62.3390   48.8088   35.2953 H   0  0  0  0  0  0
   63.6515   48.7984   34.1390 H   0  0  0  0  0  0
   62.0080   49.0224   33.5832 H   0  0  0  0  0  0
   65.5430   43.5958   34.5369 H   0  0  0  0  0  0
   63.8565   43.6550   34.0379 H   0  0  0  0  0  0
   65.1050   43.2940   32.8680 H   0  0  0  0  0  0
   67.2080   45.5939   33.7000 H   0  0  0  0  0  0
   66.7673   45.1219   32.0796 H   0  0  0  0  0  0
   66.5476   46.7905   32.5936 H   0  0  0  0  0  0
   60.8091   46.6130   35.5960 H   0  0  0  0  0  0
   60.2497   47.0279   33.9983 H   0  0  0  0  0  0
   60.8548   45.4257   34.2967 H   0  0  0  0  0  0
   64.4080   44.6963   28.5392 H   0  0  0  0  0  0
   62.6737   44.6656   28.2466 H   0  0  0  0  0  0
   63.5862   46.1403   27.9348 H   0  0  0  0  0  0
  1  3  1  0  0  0
  1  7  2  0  0  0
  1 10  1  0  0  0
  2  3  1  0  0  0
  2 12  1  0  0  0
  2  6  2  0  0  0
  4  9  1  0  0  0
  4 14  1  0  0  0
  4  5  2  0  0  0
  5 11  1  0  0  0
  5 13  1  0  0  0
  6  7  1  0  0  0
  7 25  1  0  0  0
  8 12  1  0  0  0
  8  9  2  0  0  0
  8 15  1  0  0  0
  9 26  1  0  0  0
 10 16  2  0  0  0
 10 19  1  0  0  0
 11 15  2  0  0  0
 11 27  1  0  0  0
 13 18  1  0  0  0
 13 21  1  0  0  0
 13 22  1  0  0  0
 14 17  1  0  0  0
 14 20  1  0  0  0
 14 23  1  0  0  0
 15 24  1  0  0  0
 17 18  1  0  0  0
 17 28  1  0  0  0
 17 29  1  0  0  0
 18 30  1  0  0  0
 18 31  1  0  0  0
 19 32  1  0  0  0
 20 33  1  0  0  0
 20 34  1  0  0  0
 20 35  1  0  0  0
 21 36  1  0  0  0
 21 37  1  0  0  0
 21 38  1  0  0  0
 22 39  1  0  0  0
 22 40  1  0  0  0
 22 41  1  0  0  0
 23 42  1  0  0  0
 23 43  1  0  0  0
 23 44  1  0  0  0
 24 45  1  0  0  0
 24 46  1  0  0  0
 24 47  1  0  0  0
M  END
> <s_m_entry_id>
31065

> <s_m_entry_name>
dock_pv.278

> <s_m_Source_Path>
/home/csk/Desktop/cluster/DUD-E-result/rxra

> <s_m_Source_File>
dock_pv.maegz

> <i_m_Source_File_Index>
278

> <chembl_id>
CHEMBL118268

> <chembl_pref_name>
None

> <i_lp_mmshare_version>
53161

> <r_lp_tautomer_probability>
1

> <s_lp_Force_Field>
OPLS_2005

> <r_lp_Energy>
15.496787

> <b_lp_Chiralities_Consistent>
1

> <s_lp_Variant>
CHEMBL2061_lig331-1

> <s_i_glide_gridfile>
glide-grid_1mv9

> <i_i_glide_lignum>
391

> <i_i_glide_rotatable_bonds>
4

> <r_i_docking_score>
-9.94743934227139

> <r_i_glide_ligand_efficiency>
-0.414476639261308

> <r_i_glide_ligand_efficiency_sa>
-1.19555750848764

> <r_i_glide_ligand_efficiency_ln>
-2.38087869285374

> <r_i_glide_gscore>
-9.94743934227139

> <r_i_glide_lipo>
-5.63613680773569

> <r_i_glide_hbond>
0

> <r_i_glide_metal>
0

> <r_i_glide_rewards>
-2.17555516218633

> <r_i_glide_evdw>
-44.1293067932129

> <r_i_glide_ecoul>
-2.46528959274292

> <r_i_glide_erotb>
0.440511406222717

> <r_i_glide_esite>
0

> <r_i_glide_emodel>
-70.6474966068731

> <r_i_glide_energy>
-46.5945963859558

> <r_i_glide_einternal>
4.12896156311035

> <i_i_glide_confnum>
16

> <i_i_glide_posenum>
280

> <r_i_glide_eff_state_penalty>
0

> <s_user_duplicate_titles>
CHEMBL2061_lig331

> <i_f3d_flags>
0

> <s_m_subgroup_title>
dock_pv

> <s_m_subgroupid>
dock_pv

> <b_m_subgroup_collapsed>
1

$$$$
CHEMBL2061_lig93 
                    3D
 Schrodinger Suite 2021-1.
 56 58  0  0  1  0            999 V2000
   65.0545   43.2512   33.5994 C   0  0  0  0  0  0
   64.9931   44.8031   33.6879 C   0  0  0  0  0  0
   66.3861   45.4474   33.4799 C   0  0  0  0  0  0
   63.1898   48.6081   34.3593 C   0  0  0  0  0  0
   62.9937   47.0851   34.3354 C   0  0  0  0  0  0
   61.5901   46.7316   34.8782 C   0  0  0  0  0  0
   64.0752   44.8860   31.3204 C   0  0  0  0  0  0
   63.2073   45.2974   30.3213 C   0  0  0  0  0  0
   62.3242   46.3483   30.5829 C   0  0  0  0  0  0
   62.3231   46.9313   31.8570 C   0  0  0  0  0  0
   64.0417   45.4028   32.6252 C   0  0  0  0  0  0
   63.1494   46.4777   32.9064 C   0  0  0  0  0  0
   64.0869   46.5651   35.3082 C   0  0  0  0  0  0
   64.4655   45.1102   35.1126 C   0  0  0  0  0  0
   61.4005   46.7711   29.6030 N   0  0  0  0  0  0
   60.0695   46.3058   29.4859 C   0  0  0  0  0  0
   61.8731   47.8450   28.7206 C   0  0  0  0  0  0
   59.2877   46.4772   28.3377 C   0  0  0  0  0  0
   57.9908   46.0770   28.2922 N   0  0  0  0  0  0
   57.4362   45.5383   29.4082 C   0  0  0  0  0  0
   58.2261   45.3028   30.5370 C   0  0  0  0  0  0
   59.5290   45.6770   30.5609 N   0  0  0  0  0  0
   55.9449   45.3381   29.4041 C   0  0  0  0  0  0
   55.2078   45.9361   28.6228 O   0  0  0  0  0  0
   55.4794   44.4771   30.3527 O   0  0  0  0  0  0
   62.5669   47.3651   27.4385 C   0  0  0  0  0  0
   63.2162   44.5181   29.0097 C   0  0  0  0  0  0
   65.9180   42.8772   34.1420 H   0  0  0  0  0  0
   64.1602   42.7709   33.9996 H   0  0  0  0  0  0
   65.1812   42.8505   32.6007 H   0  0  0  0  0  0
   67.0935   45.1400   34.2512 H   0  0  0  0  0  0
   66.8079   45.1474   32.5207 H   0  0  0  0  0  0
   66.3494   46.5373   33.4817 H   0  0  0  0  0  0
   63.0133   48.9561   35.3766 H   0  0  0  0  0  0
   64.2160   48.8859   34.1390 H   0  0  0  0  0  0
   62.5173   49.1448   33.6902 H   0  0  0  0  0  0
   61.4700   47.0198   35.9228 H   0  0  0  0  0  0
   60.8083   47.2477   34.3205 H   0  0  0  0  0  0
   61.3750   45.6770   34.8033 H   0  0  0  0  0  0
   64.7753   44.1098   31.0591 H   0  0  0  0  0  0
   61.6183   47.7259   32.0504 H   0  0  0  0  0  0
   65.0078   47.1336   35.1900 H   0  0  0  0  0  0
   63.7938   46.7350   36.3458 H   0  0  0  0  0  0
   65.2247   44.8765   35.8534 H   0  0  0  0  0  0
   63.6048   44.4900   35.3582 H   0  0  0  0  0  0
   61.0345   48.4850   28.4504 H   0  0  0  0  0  0
   62.5692   48.4770   29.2709 H   0  0  0  0  0  0
   59.6728   46.9418   27.4440 H   0  0  0  0  0  0
   57.8407   44.8972   31.4609 H   0  0  0  0  0  0
   56.1996   44.0178   30.7861 H   0  0  0  0  0  0
   62.6944   48.1893   26.7367 H   0  0  0  0  0  0
   63.5618   46.9769   27.6499 H   0  0  0  0  0  0
   61.9946   46.5847   26.9391 H   0  0  0  0  0  0
   63.3974   43.4586   29.1950 H   0  0  0  0  0  0
   62.2641   44.5677   28.4820 H   0  0  0  0  0  0
   64.0084   44.8814   28.3618 H   0  0  0  0  0  0
  1  2  1  0  0  0
  1 28  1  0  0  0
  1 29  1  0  0  0
  1 30  1  0  0  0
  2  3  1  0  0  0
  2 11  1  0  0  0
  2 14  1  0  0  0
  3 31  1  0  0  0
  3 32  1  0  0  0
  3 33  1  0  0  0
  4  5  1  0  0  0
  4 34  1  0  0  0
  4 35  1  0  0  0
  4 36  1  0  0  0
  5  6  1  0  0  0
  5 12  1  0  0  0
  5 13  1  0  0  0
  6 37  1  0  0  0
  6 38  1  0  0  0
  6 39  1  0  0  0
  7 11  1  0  0  0
  7  8  2  0  0  0
  7 40  1  0  0  0
  8  9  1  0  0  0
  8 27  1  0  0  0
  9 10  2  0  0  0
  9 15  1  0  0  0
 10 12  1  0  0  0
 10 41  1  0  0  0
 11 12  2  0  0  0
 13 14  1  0  0  0
 13 42  1  0  0  0
 13 43  1  0  0  0
 14 44  1  0  0  0
 14 45  1  0  0  0
 15 16  1  0  0  0
 15 17  1  0  0  0
 16 18  2  0  0  0
 16 22  1  0  0  0
 17 26  1  0  0  0
 17 46  1  0  0  0
 17 47  1  0  0  0
 18 19  1  0  0  0
 18 48  1  0  0  0
 19 20  2  0  0  0
 20 21  1  0  0  0
 20 23  1  0  0  0
 21 22  2  0  0  0
 21 49  1  0  0  0
 23 24  2  0  0  0
 23 25  1  0  0  0
 25 50  1  0  0  0
 26 51  1  0  0  0
 26 52  1  0  0  0
 26 53  1  0  0  0
 27 54  1  0  0  0
 27 55  1  0  0  0
 27 56  1  0  0  0
M  END
> <s_m_entry_id>
31066

> <s_m_entry_name>
dock_pv.279

> <s_m_Source_Path>
/home/csk/Desktop/cluster/DUD-E-result/rxra

> <s_m_Source_File>
dock_pv.maegz

> <i_m_Source_File_Index>
279

> <chembl_id>
CHEMBL4440825

> <chembl_pref_name>
None

> <i_lp_mmshare_version>
53161

> <r_lp_tautomer_probability>
1

> <s_lp_Force_Field>
OPLS_2005

> <r_lp_Energy>
35.819534

> <b_lp_Chiralities_Consistent>
1

> <s_lp_Variant>
CHEMBL2061_lig93 -1

> <s_i_glide_gridfile>
glide-grid_1mv9

> <i_i_glide_lignum>
132

> <i_i_glide_rotatable_bonds>
5

> <r_i_docking_score>
-9.94285700746485

> <r_i_glide_ligand_efficiency>
-0.368253963239439

> <r_i_glide_ligand_efficiency_sa>
-1.10476188850461

> <r_i_glide_ligand_efficiency_ln>
-2.31453319052894

> <r_i_glide_gscore>
-9.94285700746485

> <r_i_glide_lipo>
-6.04997631707079

> <r_i_glide_hbond>
0

> <r_i_glide_metal>
0

> <r_i_glide_rewards>
-1.87510025447678

> <r_i_glide_evdw>
-47.6157379150391

> <r_i_glide_ecoul>
-0.432220876216888

> <r_i_glide_erotb>
0.42783959126721

> <r_i_glide_esite>
0

> <r_i_glide_emodel>
-59.3124139820224

> <r_i_glide_energy>
-48.047958791256

> <r_i_glide_einternal>
9.237868309021

> <i_i_glide_confnum>
12

> <i_i_glide_posenum>
296

> <r_i_glide_eff_state_penalty>
0

> <s_user_duplicate_titles>
CHEMBL2061_lig93 

> <i_f3d_flags>
0

> <s_m_subgroup_title>
dock_pv

> <s_m_subgroupid>
dock_pv

> <b_m_subgroup_collapsed>
1

$$$$
CHEMBL2061_lig91 
                    3D
 Schrodinger Suite 2021-1.
 55 57  0  0  1  0            999 V2000
   64.8999   43.9870   33.5845 C   0  0  0  0  0  0
   64.9613   45.4732   33.1490 C   0  0  0  0  0  0
   66.3474   45.8560   32.5744 C   0  0  0  0  0  0
   62.4077   48.4765   33.8302 C   0  0  0  0  0  0
   62.3099   46.9358   33.8218 C   0  0  0  0  0  0
   60.9029   46.4332   34.2454 C   0  0  0  0  0  0
   63.9937   45.1930   30.8062 C   0  0  0  0  0  0
   63.0052   45.3205   29.8380 C   0  0  0  0  0  0
   61.8281   46.0278   30.0995 C   0  0  0  0  0  0
   61.6979   46.5897   31.3717 C   0  0  0  0  0  0
   63.8492   45.7224   32.0967 C   0  0  0  0  0  0
   62.6422   46.4128   32.4011 C   0  0  0  0  0  0
   63.2990   46.3764   34.8799 C   0  0  0  0  0  0
   64.7513   46.3713   34.3956 C   0  0  0  0  0  0
   60.7875   46.1544   29.1323 N   0  0  0  0  0  0
   59.3742   46.0088   29.3347 C   0  0  0  0  0  0
   61.2539   46.4377   27.7580 C   0  0  0  0  0  0
   58.4262   46.2800   28.3389 C   0  0  0  0  0  0
   57.0584   46.0768   28.5406 C   0  0  0  0  0  0
   56.5874   45.5964   29.7673 C   0  0  0  0  0  0
   57.5166   45.2770   30.7552 C   0  0  0  0  0  0
   58.8698   45.5122   30.5387 C   0  0  0  0  0  0
   55.1146   45.4354   30.0455 C   0  0  0  0  0  0
   54.6717   44.6719   30.9045 O   0  0  0  0  0  0
   54.3207   46.2859   29.3389 O   0  0  0  0  0  0
   61.3596   47.9374   27.4568 C   0  0  0  0  0  0
   65.6119   43.7761   34.3821 H   0  0  0  0  0  0
   63.9118   43.6949   33.9415 H   0  0  0  0  0  0
   65.1432   43.3190   32.7592 H   0  0  0  0  0  0
   67.1234   45.7947   33.3379 H   0  0  0  0  0  0
   66.6545   45.1968   31.7628 H   0  0  0  0  0  0
   66.3524   46.8761   32.1885 H   0  0  0  0  0  0
   61.8718   48.8767   34.6886 H   0  0  0  0  0  0
   63.4299   48.8366   33.8991 H   0  0  0  0  0  0
   61.9924   48.9326   32.9323 H   0  0  0  0  0  0
   60.6928   46.6800   35.2873 H   0  0  0  0  0  0
   60.1030   46.8760   33.6552 H   0  0  0  0  0  0
   60.8075   45.3526   34.1389 H   0  0  0  0  0  0
   64.8763   44.6258   30.5489 H   0  0  0  0  0  0
   63.1653   44.8215   28.8968 H   0  0  0  0  0  0
   60.8116   47.1653   31.5824 H   0  0  0  0  0  0
   63.0287   45.3583   35.1574 H   0  0  0  0  0  0
   63.2231   46.9474   35.8075 H   0  0  0  0  0  0
   65.4049   46.0518   35.2120 H   0  0  0  0  0  0
   65.0581   47.3945   34.1776 H   0  0  0  0  0  0
   62.2293   46.0083   27.5482 H   0  0  0  0  0  0
   60.6171   45.9562   27.0178 H   0  0  0  0  0  0
   58.7289   46.6612   27.3776 H   0  0  0  0  0  0
   56.3812   46.2986   27.7291 H   0  0  0  0  0  0
   57.2041   44.8955   31.7180 H   0  0  0  0  0  0
   59.5310   45.2976   31.3465 H   0  0  0  0  0  0
   54.8670   46.8500   28.7879 H   0  0  0  0  0  0
   61.7150   48.0775   26.4360 H   0  0  0  0  0  0
   60.4026   48.4478   27.5501 H   0  0  0  0  0  0
   62.0654   48.4293   28.1261 H   0  0  0  0  0  0
  1  2  1  0  0  0
  1 27  1  0  0  0
  1 28  1  0  0  0
  1 29  1  0  0  0
  2  3  1  0  0  0
  2 11  1  0  0  0
  2 14  1  0  0  0
  3 30  1  0  0  0
  3 31  1  0  0  0
  3 32  1  0  0  0
  4  5  1  0  0  0
  4 33  1  0  0  0
  4 34  1  0  0  0
  4 35  1  0  0  0
  5  6  1  0  0  0
  5 12  1  0  0  0
  5 13  1  0  0  0
  6 36  1  0  0  0
  6 37  1  0  0  0
  6 38  1  0  0  0
  7 11  1  0  0  0
  7  8  2  0  0  0
  7 39  1  0  0  0
  8  9  1  0  0  0
  8 40  1  0  0  0
  9 10  2  0  0  0
  9 15  1  0  0  0
 10 12  1  0  0  0
 10 41  1  0  0  0
 11 12  2  0  0  0
 13 14  1  0  0  0
 13 42  1  0  0  0
 13 43  1  0  0  0
 14 44  1  0  0  0
 14 45  1  0  0  0
 15 16  1  0  0  0
 15 17  1  0  0  0
 16 18  2  0  0  0
 16 22  1  0  0  0
 17 26  1  0  0  0
 17 46  1  0  0  0
 17 47  1  0  0  0
 18 19  1  0  0  0
 18 48  1  0  0  0
 19 20  2  0  0  0
 19 49  1  0  0  0
 20 21  1  0  0  0
 20 23  1  0  0  0
 21 22  2  0  0  0
 21 50  1  0  0  0
 22 51  1  0  0  0
 23 24  2  0  0  0
 23 25  1  0  0  0
 25 52  1  0  0  0
 26 53  1  0  0  0
 26 54  1  0  0  0
 26 55  1  0  0  0
M  END
> <s_m_entry_id>
31067

> <s_m_entry_name>
dock_pv.280

> <s_m_Source_Path>
/home/csk/Desktop/cluster/DUD-E-result/rxra

> <s_m_Source_File>
dock_pv.maegz

> <i_m_Source_File_Index>
280

> <chembl_id>
CHEMBL4475014

> <chembl_pref_name>
None

> <i_lp_mmshare_version>
53161

> <r_lp_tautomer_probability>
1

> <s_lp_Force_Field>
OPLS_2005

> <r_lp_Energy>
32.530202

> <b_lp_Chiralities_Consistent>
1

> <s_lp_Variant>
CHEMBL2061_lig91 -1

> <s_i_glide_gridfile>
glide-grid_1mv9

> <i_i_glide_lignum>
130

> <i_i_glide_rotatable_bonds>
5

> <r_i_docking_score>
-9.93225458003944

> <r_i_glide_ligand_efficiency>
-0.382009791539978

> <r_i_glide_ligand_efficiency_sa>
-1.13170250430124

> <r_i_glide_ligand_efficiency_ln>
-2.33255739773679

> <r_i_glide_gscore>
-9.93225458003944

> <r_i_glide_lipo>
-6.01026597729998

> <r_i_glide_hbond>
-0.125032235168552

> <r_i_glide_metal>
0

> <r_i_glide_rewards>
-1.72036673908993

> <r_i_glide_evdw>
-43.5405654907227

> <r_i_glide_ecoul>
-2.41823530197144

> <r_i_glide_erotb>
0.463173941350868

> <r_i_glide_esite>
0

> <r_i_glide_emodel>
-70.5386798729117

> <r_i_glide_energy>
-45.9588007926941

> <r_i_glide_einternal>
5.36295175552368

> <i_i_glide_confnum>
17

> <i_i_glide_posenum>
355

> <r_i_glide_eff_state_penalty>
0

> <s_user_duplicate_titles>
CHEMBL2061_lig91 

> <i_f3d_flags>
0

> <s_m_subgroup_title>
dock_pv

> <s_m_subgroupid>
dock_pv

> <b_m_subgroup_collapsed>
1

$$$$
CHEMBL2061_lig502
                    3D
 Schrodinger Suite 2021-1.
 54 55  0  0  1  0            999 V2000
   63.8896   45.4645   31.1832 C   0  0  0  0  0  0
   62.9368   46.3422   31.7292 C   0  0  0  0  0  0
   61.8100   46.6897   30.9782 C   0  0  0  0  0  0
   61.5776   46.1279   29.7235 C   0  0  0  0  0  0
   62.5168   45.2371   29.1957 C   0  0  0  0  0  0
   63.6673   44.9185   29.9127 C   0  0  0  0  0  0
   65.1488   45.0516   31.9578 C   0  0  0  0  0  0
   64.8205   44.1280   33.1484 C   0  0  0  0  0  0
   66.0397   46.2386   32.3618 C   0  0  0  0  0  0
   60.4246   46.4970   28.9959 N   0  0  0  0  0  0
   59.1048   46.0769   29.3306 C   0  0  0  0  0  0
   60.6903   47.0003   27.6317 C   0  0  0  0  0  0
   61.8381   48.0308   27.5427 C   0  0  0  0  0  0
   58.7892   45.6702   30.6335 C   0  0  0  0  0  0
   57.4898   45.2767   30.9491 C   0  0  0  0  0  0
   56.5066   45.2605   29.9570 C   0  0  0  0  0  0
   56.8767   45.6771   28.6778 C   0  0  0  0  0  0
   58.1363   46.0771   28.3712 N   0  0  0  0  0  0
   63.1571   46.8786   32.9768 O   0  0  0  0  0  0
   62.0751   46.9352   33.9029 C   0  0  0  0  0  0
   62.4645   47.9107   35.0279 C   0  0  1  0  0  0
   55.0851   44.9120   30.2902 C   0  0  0  0  0  0
   54.4306   44.1652   29.3551 O   0  0  0  0  0  0
   54.5623   45.2765   31.3390 O   0  0  0  0  0  0
   61.3289   48.0707   36.0573 C   0  0  0  0  0  0
   63.8041   47.5369   35.6943 C   0  0  0  0  0  0
   63.8599   46.2823   36.1393 F   0  0  0  0  0  0
   61.1138   47.4205   31.3546 H   0  0  0  0  0  0
   62.3622   44.7936   28.2213 H   0  0  0  0  0  0
   64.3821   44.2336   29.4784 H   0  0  0  0  0  0
   65.7672   44.4771   31.2706 H   0  0  0  0  0  0
   64.2301   43.2662   32.8318 H   0  0  0  0  0  0
   65.7304   43.7464   33.6154 H   0  0  0  0  0  0
   64.2540   44.6487   33.9205 H   0  0  0  0  0  0
   66.3006   46.8269   31.4850 H   0  0  0  0  0  0
   65.5642   46.9070   33.0752 H   0  0  0  0  0  0
   66.9622   45.8938   32.8274 H   0  0  0  0  0  0
   60.8942   46.1565   26.9717 H   0  0  0  0  0  0
   59.8009   47.4858   27.2292 H   0  0  0  0  0  0
   61.9354   48.4280   26.5385 H   0  0  0  0  0  0
   61.6541   48.8770   28.2041 H   0  0  0  0  0  0
   62.8078   47.6056   27.8040 H   0  0  0  0  0  0
   59.5204   45.6770   31.4236 H   0  0  0  0  0  0
   57.2593   45.0050   31.9671 H   0  0  0  0  0  0
   56.1622   45.7296   27.8674 H   0  0  0  0  0  0
   61.8894   45.9366   34.3010 H   0  0  0  0  0  0
   61.1453   47.2752   33.4521 H   0  0  0  0  0  0
   62.6143   48.8768   34.5525 H   0  0  0  0  0  0
   54.9961   43.8188   28.6564 H   0  0  0  0  0  0
   61.1008   47.1207   36.5389 H   0  0  0  0  0  0
   61.5933   48.7848   36.8385 H   0  0  0  0  0  0
   60.4120   48.4302   35.5891 H   0  0  0  0  0  0
   64.0159   48.1895   36.5388 H   0  0  0  0  0  0
   64.6330   47.6521   34.9970 H   0  0  0  0  0  0
  1  2  2  0  0  0
  1  6  1  0  0  0
  1  7  1  0  0  0
  2  3  1  0  0  0
  2 19  1  0  0  0
  3  4  2  0  0  0
  3 28  1  0  0  0
  4  5  1  0  0  0
  4 10  1  0  0  0
  5  6  2  0  0  0
  5 29  1  0  0  0
  6 30  1  0  0  0
  7  8  1  0  0  0
  7  9  1  0  0  0
  7 31  1  0  0  0
  8 32  1  0  0  0
  8 33  1  0  0  0
  8 34  1  0  0  0
  9 35  1  0  0  0
  9 36  1  0  0  0
  9 37  1  0  0  0
 10 11  1  0  0  0
 10 12  1  0  0  0
 11 14  2  0  0  0
 11 18  1  0  0  0
 12 13  1  0  0  0
 12 38  1  0  0  0
 12 39  1  0  0  0
 13 40  1  0  0  0
 13 41  1  0  0  0
 13 42  1  0  0  0
 14 15  1  0  0  0
 14 43  1  0  0  0
 15 16  2  0  0  0
 15 44  1  0  0  0
 16 17  1  0  0  0
 16 22  1  0  0  0
 17 18  2  0  0  0
 17 45  1  0  0  0
 19 20  1  0  0  0
 20 21  1  0  0  0
 20 46  1  0  0  0
 20 47  1  0  0  0
 21 25  1  0  0  0
 21 26  1  0  0  0
 21 48  1  0  0  0
 22 23  1  0  0  0
 22 24  2  0  0  0
 23 49  1  0  0  0
 25 50  1  0  0  0
 25 51  1  0  0  0
 25 52  1  0  0  0
 26 27  1  0  0  0
 26 53  1  0  0  0
 26 54  1  0  0  0
M  END
> <s_m_entry_id>
31068

> <s_m_entry_name>
dock_pv.281

> <s_m_Source_Path>
/home/csk/Desktop/cluster/DUD-E-result/rxra

> <s_m_Source_File>
dock_pv.maegz

> <i_m_Source_File_Index>
281

> <chembl_id>
CHEMBL3425764

> <chembl_pref_name>
None

> <i_lp_mmshare_version>
53161

> <r_lp_tautomer_probability>
1

> <s_lp_Force_Field>
OPLS_2005

> <r_lp_Energy>
20.772194

> <b_lp_Chiralities_Consistent>
1

> <s_lp_Variant>
CHEMBL2061_lig502-2

> <s_i_glide_gridfile>
glide-grid_1mv9

> <i_i_glide_lignum>
595

> <i_i_glide_rotatable_bonds>
10

> <r_i_docking_score>
-9.92619921524617

> <r_i_glide_ligand_efficiency>
-0.36763700797208

> <r_i_glide_ligand_efficiency_sa>
-1.10291102270457

> <r_i_glide_ligand_efficiency_ln>
-2.3106555311256

> <r_i_glide_gscore>
-9.92619921524617

> <r_i_glide_lipo>
-5.98584404561137

> <r_i_glide_hbond>
-0.0991201555216978

> <r_i_glide_metal>
0

> <r_i_glide_rewards>
-1.39226947334578

> <r_i_glide_evdw>
-47.751651763916

> <r_i_glide_ecoul>
-5.92546653747559

> <r_i_glide_erotb>
0.827437028049809

> <r_i_glide_esite>
0

> <r_i_glide_emodel>
-78.3371004773376

> <r_i_glide_energy>
-53.6771183013916

> <r_i_glide_einternal>
12.4920749664307

> <i_i_glide_confnum>
28

> <i_i_glide_posenum>
345

> <r_i_glide_eff_state_penalty>
0

> <s_user_duplicate_titles>
CHEMBL2061_lig502

> <i_f3d_flags>
0

> <s_m_subgroup_title>
dock_pv

> <s_m_subgroupid>
dock_pv

> <b_m_subgroup_collapsed>
1

$$$$
CHEMBL2061_lig284
                    3D
 Schrodinger Suite 2021-1.
 64 64  0  0  1  0            999 V2000
   62.4118   46.8591   30.0003 C   0  0  0  0  0  0
   61.8567   47.4681   28.7574 C   0  0  0  0  0  0
   63.2213   45.6988   29.9559 C   0  0  0  0  0  0
   62.8438   48.0058   27.6990 C   0  0  0  0  0  0
   63.8019   45.2076   31.1411 C   0  0  0  0  0  0
   62.0770   47.4036   31.2499 C   0  0  0  0  0  0
   62.5744   46.8557   32.4406 C   0  0  0  0  0  0
   63.5199   45.8529   32.3408 C   0  0  0  0  0  0
   56.0498   45.9006   29.3655 C   0  0  0  0  0  0
   64.7495   43.9925   31.1800 C   0  0  0  0  0  0
   54.8290   45.4496   29.9992 C   0  0  0  0  0  0
   60.5233   47.4243   28.5017 C   0  0  0  0  0  0
   62.0096   47.2072   33.8310 C   0  0  0  0  0  0
   59.5416   46.7206   29.3205 C   0  0  0  0  0  0
   57.3470   45.6207   29.6563 C   0  0  0  0  0  0
   58.3419   46.3215   28.8576 C   0  0  0  0  0  0
   53.7375   45.9504   29.7385 O   0  0  0  0  0  0
   62.3120   47.8790   26.5158 F   0  0  0  0  0  0
   63.0865   49.2830   27.7391 F   0  0  0  0  0  0
   64.0203   47.3802   27.7294 F   0  0  0  0  0  0
   63.5170   45.0384   28.7784 O   0  0  0  0  0  0
   54.9739   44.4800   30.9383 O   0  0  0  0  0  0
   66.1205   44.4802   30.6200 C   0  0  0  0  0  0
   64.2530   42.8007   30.3420 C   0  0  0  0  0  0
   64.8151   43.3737   32.6200 C   0  0  0  0  0  0
   62.0094   48.7234   34.0563 C   0  0  0  0  0  0
   62.7951   46.6261   35.0437 C   0  0  0  0  0  0
   60.5825   46.6171   33.9077 C   0  0  0  0  0  0
   57.8235   44.6168   30.7063 C   0  0  0  0  0  0
   62.4751   44.6836   27.8677 C   0  0  0  0  0  0
   62.2169   43.1895   27.8512 C   0  0  0  0  0  0
   61.3769   48.2237   31.2946 H   0  0  0  0  0  0
   63.9817   45.5162   33.2477 H   0  0  0  0  0  0
   55.8415   46.6017   28.5664 H   0  0  0  0  0  0
   60.1637   47.8907   27.5948 H   0  0  0  0  0  0
   59.7819   46.4929   30.3478 H   0  0  0  0  0  0
   58.1053   46.5079   27.8210 H   0  0  0  0  0  0
   55.8995   44.2573   31.0439 H   0  0  0  0  0  0
   66.7406   44.9215   31.4016 H   0  0  0  0  0  0
   66.6992   43.6941   30.1334 H   0  0  0  0  0  0
   66.0034   45.2344   29.8378 H   0  0  0  0  0  0
   63.2082   42.5396   30.5129 H   0  0  0  0  0  0
   64.4087   42.9697   29.2919 H   0  0  0  0  0  0
   64.8580   41.9193   30.5408 H   0  0  0  0  0  0
   63.8294   43.2868   33.0750 H   0  0  0  0  0  0
   65.2094   42.3652   32.6611 H   0  0  0  0  0  0
   65.4475   43.9600   33.2879 H   0  0  0  0  0  0
   61.6081   49.3136   33.2320 H   0  0  0  0  0  0
   61.4013   48.8771   34.9470 H   0  0  0  0  0  0
   63.0134   49.1018   34.2548 H   0  0  0  0  0  0
   62.7766   45.5346   35.0733 H   0  0  0  0  0  0
   63.8409   46.9413   35.0417 H   0  0  0  0  0  0
   62.3671   46.9558   35.9918 H   0  0  0  0  0  0
   60.6005   45.5266   33.9525 H   0  0  0  0  0  0
   60.0538   46.9570   34.7958 H   0  0  0  0  0  0
   59.9861   46.8750   33.0380 H   0  0  0  0  0  0
   58.8418   44.2943   30.5002 H   0  0  0  0  0  0
   57.7564   45.0325   31.7148 H   0  0  0  0  0  0
   57.2572   43.6879   30.6614 H   0  0  0  0  0  0
   61.5103   45.1307   28.0627 H   0  0  0  0  0  0
   62.7951   45.0115   26.8798 H   0  0  0  0  0  0
   61.6109   42.9723   26.9820 H   0  0  0  0  0  0
   63.1043   42.5728   27.7412 H   0  0  0  0  0  0
   61.6447   42.9019   28.7373 H   0  0  0  0  0  0
  1  2  1  0  0  0
  1  3  1  0  0  0
  1  6  2  0  0  0
  2  4  1  0  0  0
  2 12  2  0  0  0
  3  5  2  0  0  0
  3 21  1  0  0  0
  4 18  1  0  0  0
  4 19  1  0  0  0
  4 20  1  0  0  0
  5 10  1  0  0  0
  5  8  1  0  0  0
  6  7  1  0  0  0
  6 32  1  0  0  0
  7  8  2  0  0  0
  7 13  1  0  0  0
  8 33  1  0  0  0
  9 15  2  0  0  0
  9 11  1  0  0  0
  9 34  1  0  0  0
 10 23  1  0  0  0
 10 24  1  0  0  0
 10 25  1  0  0  0
 11 17  2  0  0  0
 11 22  1  0  0  0
 12 14  1  0  0  0
 12 35  1  0  0  0
 13 26  1  0  0  0
 13 27  1  0  0  0
 13 28  1  0  0  0
 14 16  2  0  0  0
 14 36  1  0  0  0
 15 16  1  0  0  0
 15 29  1  0  0  0
 16 37  1  0  0  0
 21 30  1  0  0  0
 22 38  1  0  0  0
 23 39  1  0  0  0
 23 40  1  0  0  0
 23 41  1  0  0  0
 24 42  1  0  0  0
 24 43  1  0  0  0
 24 44  1  0  0  0
 25 45  1  0  0  0
 25 46  1  0  0  0
 25 47  1  0  0  0
 26 48  1  0  0  0
 26 49  1  0  0  0
 26 50  1  0  0  0
 27 51  1  0  0  0
 27 52  1  0  0  0
 27 53  1  0  0  0
 28 54  1  0  0  0
 28 55  1  0  0  0
 28 56  1  0  0  0
 29 57  1  0  0  0
 29 58  1  0  0  0
 29 59  1  0  0  0
 30 31  1  0  0  0
 30 60  1  0  0  0
 30 61  1  0  0  0
 31 62  1  0  0  0
 31 63  1  0  0  0
 31 64  1  0  0  0
M  END
> <s_m_entry_id>
31069

> <s_m_entry_name>
dock_pv.282

> <s_m_Source_Path>
/home/csk/Desktop/cluster/DUD-E-result/rxra

> <s_m_Source_File>
dock_pv.maegz

> <i_m_Source_File_Index>
282

> <chembl_id>
CHEMBL107555

> <chembl_pref_name>
None

> <i_lp_mmshare_version>
53161

> <r_lp_tautomer_probability>
1

> <s_lp_Force_Field>
OPLS_2005

> <r_lp_Energy>
36.517271

> <b_lp_Chiralities_Consistent>
1

> <s_lp_Variant>
CHEMBL2061_lig284-1

> <s_i_glide_gridfile>
glide-grid_1mv9

> <i_i_glide_lignum>
329

> <i_i_glide_rotatable_bonds>
10

> <r_i_docking_score>
-9.9253725001558

> <r_i_glide_ligand_efficiency>
-0.320173306456639

> <r_i_glide_ligand_efficiency_sa>
-1.00578622916378

> <r_i_glide_ligand_efficiency_ln>
-2.23847567492209

> <r_i_glide_gscore>
-9.9253725001558

> <r_i_glide_lipo>
-5.86743344920555

> <r_i_glide_hbond>
-0.172427969611994

> <r_i_glide_metal>
0

> <r_i_glide_rewards>
-2.27701426335668

> <r_i_glide_evdw>
-31.9534149169922

> <r_i_glide_ecoul>
-4.22199678421021

> <r_i_glide_erotb>
0.622473445499558

> <r_i_glide_esite>
0

> <r_i_glide_emodel>
-68.057671468153

> <r_i_glide_energy>
-36.1754117012024

> <r_i_glide_einternal>
17.251672744751

> <i_i_glide_confnum>
66

> <i_i_glide_posenum>
191

> <r_i_glide_eff_state_penalty>
0

> <s_user_duplicate_titles>
CHEMBL2061_lig284,178612

> <i_f3d_flags>
0

> <s_m_subgroup_title>
dock_pv

> <s_m_subgroupid>
dock_pv

> <b_m_subgroup_collapsed>
1

$$$$
CHEMBL2061_lig115
                    3D
 Schrodinger Suite 2021-1.
 69 71  0  0  1  0            999 V2000
   62.5958   46.4276   31.4985 C   0  0  0  0  0  0
   58.5587   45.9182   29.7493 C   0  0  0  0  0  0
   60.7791   46.6428   29.7800 C   0  0  0  0  0  0
   59.6927   46.0767   30.5119 C   0  0  0  0  0  0
   58.8076   46.4768   28.1388 S   0  0  0  0  0  0
   63.6310   45.4829   31.6255 C   0  0  0  0  0  0
   64.1012   45.1598   32.9246 C   0  0  0  0  0  0
   62.1108   46.8331   30.1575 C   0  0  0  0  0  0
   60.4078   46.9865   28.4552 C   0  0  0  0  0  0
   62.0026   46.9739   32.6447 C   0  0  0  0  0  0
   62.4041   46.5560   33.9171 C   0  0  0  0  0  0
   57.2694   45.3577   30.1136 C   0  0  0  0  0  0
   63.4033   45.6230   34.0182 C   0  0  0  0  0  0
   56.1259   45.9669   29.7076 C   0  0  0  0  0  0
   54.7577   45.5738   29.9273 C   0  0  0  0  0  0
   65.4081   44.4479   33.2632 C   0  0  0  0  0  0
   61.9026   47.0923   35.2515 C   0  0  0  0  0  0
   63.3962   42.8909   29.1332 C   0  0  0  0  0  0
   54.3598   44.5997   30.5626 O   0  0  0  0  0  0
   62.3552   43.7370   28.4497 C   0  0  0  0  0  0
   64.1132   44.9171   30.4507 O   0  0  0  0  0  0
   64.0960   43.4910   30.3602 C   0  0  0  0  0  0
   53.9152   46.4731   29.3404 O   0  0  0  0  0  0
   61.4385   44.0790   29.3390 F   0  0  0  0  0  0
   62.8085   44.8148   27.8254 F   0  0  0  0  0  0
   62.9988   47.2768   29.1767 C   0  0  0  0  0  0
   61.2789   47.5756   27.5356 C   0  0  0  0  0  0
   57.4112   44.0736   30.9187 C   0  0  0  0  0  0
   62.6007   47.7008   27.9177 C   0  0  0  0  0  0
   66.4633   44.8757   32.2637 C   0  0  0  0  0  0
   65.2079   42.9165   33.4022 C   0  0  0  0  0  0
   66.0428   44.9093   34.6187 C   0  0  0  0  0  0
   61.2869   45.9532   36.0773 C   0  0  0  0  0  0
   60.8208   48.1318   35.1155 C   0  0  0  0  0  0
   63.0755   47.7459   36.0043 C   0  0  0  0  0  0
   59.7727   45.7667   31.5400 H   0  0  0  0  0  0
   61.2239   47.7105   32.5282 H   0  0  0  0  0  0
   63.6779   45.2973   35.0062 H   0  0  0  0  0  0
   56.2257   46.8756   29.1333 H   0  0  0  0  0  0
   64.0923   42.4788   28.4072 H   0  0  0  0  0  0
   62.8115   42.0631   29.5128 H   0  0  0  0  0  0
   61.8682   43.1415   27.6832 H   0  0  0  0  0  0
   65.1164   43.1164   30.3730 H   0  0  0  0  0  0
   63.6079   43.0685   31.2280 H   0  0  0  0  0  0
   54.4034   47.1372   28.8496 H   0  0  0  0  0  0
   64.0380   47.2764   29.4039 H   0  0  0  0  0  0
   60.9583   47.8357   26.5359 H   0  0  0  0  0  0
   57.9190   43.3205   30.3154 H   0  0  0  0  0  0
   58.0065   44.2323   31.8190 H   0  0  0  0  0  0
   56.4576   43.6492   31.2062 H   0  0  0  0  0  0
   63.3373   48.0638   27.2168 H   0  0  0  0  0  0
   66.8101   45.9001   32.4102 H   0  0  0  0  0  0
   67.2134   44.1739   32.5386 H   0  0  0  0  0  0
   66.2870   44.7373   31.2054 H   0  0  0  0  0  0
   64.4204   42.6879   34.1228 H   0  0  0  0  0  0
   64.9674   42.3761   32.5031 H   0  0  0  0  0  0
   66.1256   42.4452   33.7391 H   0  0  0  0  0  0
   65.5375   44.4813   35.4809 H   0  0  0  0  0  0
   67.0868   44.6101   34.7089 H   0  0  0  0  0  0
   66.0294   45.9939   34.7278 H   0  0  0  0  0  0
   62.0325   45.2523   36.4485 H   0  0  0  0  0  0
   60.8078   46.3897   36.9382 H   0  0  0  0  0  0
   60.5400   45.3997   35.5083 H   0  0  0  0  0  0
   61.2082   48.9887   34.5605 H   0  0  0  0  0  0
   59.9902   47.6754   34.5913 H   0  0  0  0  0  0
   60.4548   48.4769   36.0833 H   0  0  0  0  0  0
   63.4956   48.6006   35.4729 H   0  0  0  0  0  0
   62.6855   48.0870   36.9393 H   0  0  0  0  0  0
   63.8937   47.0642   36.2398 H   0  0  0  0  0  0
  1  6  1  0  0  0
  1  8  1  0  0  0
  1 10  2  0  0  0
  2  4  2  0  0  0
  2 12  1  0  0  0
  2  5  1  0  0  0
  3  8  1  0  0  0
  3  4  1  0  0  0
  3  9  2  0  0  0
  4 36  1  0  0  0
  5  9  1  0  0  0
  6  7  2  0  0  0
  6 21  1  0  0  0
  7 16  1  0  0  0
  7 13  1  0  0  0
  8 26  2  0  0  0
  9 27  1  0  0  0
 10 11  1  0  0  0
 10 37  1  0  0  0
 11 13  2  0  0  0
 11 17  1  0  0  0
 12 14  2  0  0  0
 12 28  1  0  0  0
 13 38  1  0  0  0
 14 15  1  0  0  0
 14 39  1  0  0  0
 15 19  2  0  0  0
 15 23  1  0  0  0
 16 30  1  0  0  0
 16 31  1  0  0  0
 16 32  1  0  0  0
 17 33  1  0  0  0
 17 34  1  0  0  0
 17 35  1  0  0  0
 18 22  1  0  0  0
 18 20  1  0  0  0
 18 40  1  0  0  0
 18 41  1  0  0  0
 20 24  1  0  0  0
 20 25  1  0  0  0
 20 42  1  0  0  0
 21 22  1  0  0  0
 22 43  1  0  0  0
 22 44  1  0  0  0
 23 45  1  0  0  0
 26 29  1  0  0  0
 26 46  1  0  0  0
 27 29  2  0  0  0
 27 47  1  0  0  0
 28 48  1  0  0  0
 28 49  1  0  0  0
 28 50  1  0  0  0
 29 51  1  0  0  0
 30 52  1  0  0  0
 30 53  1  0  0  0
 30 54  1  0  0  0
 31 55  1  0  0  0
 31 56  1  0  0  0
 31 57  1  0  0  0
 32 58  1  0  0  0
 32 59  1  0  0  0
 32 60  1  0  0  0
 33 61  1  0  0  0
 33 62  1  0  0  0
 33 63  1  0  0  0
 34 64  1  0  0  0
 34 65  1  0  0  0
 34 66  1  0  0  0
 35 67  1  0  0  0
 35 68  1  0  0  0
 35 69  1  0  0  0
M  END
> <s_m_entry_id>
31070

> <s_m_entry_name>
dock_pv.283

> <s_m_Source_Path>
/home/csk/Desktop/cluster/DUD-E-result/rxra

> <s_m_Source_File>
dock_pv.maegz

> <i_m_Source_File_Index>
283

> <chembl_id>
CHEMBL43238

> <chembl_pref_name>
None

> <i_lp_mmshare_version>
53161

> <r_lp_tautomer_probability>
1

> <s_lp_Force_Field>
OPLS_2005

> <r_lp_Energy>
41.478499

> <b_lp_Chiralities_Consistent>
1

> <s_lp_Variant>
CHEMBL2061_lig115-1

> <s_i_glide_gridfile>
glide-grid_1mv9

> <i_i_glide_lignum>
154

> <i_i_glide_rotatable_bonds>
10

> <r_i_docking_score>
-9.91239556941851

> <r_i_glide_ligand_efficiency>
-0.283211301983386

> <r_i_glide_ligand_efficiency_sa>
-0.926402947484606

> <r_i_glide_ligand_efficiency_ln>
-2.17599082125408

> <r_i_glide_gscore>
-9.91239556941851

> <r_i_glide_lipo>
-6.88472802397573

> <r_i_glide_hbond>
-0.280213645184685

> <r_i_glide_metal>
0

> <r_i_glide_rewards>
-1.29166061757997

> <r_i_glide_evdw>
-28.8106136322021

> <r_i_glide_ecoul>
-3.36074995994568

> <r_i_glide_erotb>
0.488849892923832

> <r_i_glide_esite>
0

> <r_i_glide_emodel>
-83.8990085935962

> <r_i_glide_energy>
-32.1713635921478

> <r_i_glide_einternal>
6.17709970474243

> <i_i_glide_confnum>
10

> <i_i_glide_posenum>
25

> <r_i_glide_eff_state_penalty>
0

> <s_user_duplicate_titles>
CHEMBL2061_lig115,60544

> <i_f3d_flags>
0

> <s_m_subgroup_title>
dock_pv

> <s_m_subgroupid>
dock_pv

> <b_m_subgroup_collapsed>
1

$$$$
CHEMBL2061_lig325
                    3D
 Schrodinger Suite 2021-1.
 61 63  0  0  1  0            999 V2000
   61.7049   46.5855   29.2456 C   0  0  1  0  0  0
   60.6375   47.6702   29.3392 C   0  0  1  0  0  0
   61.6985   47.7608   28.2726 C   0  0  0  0  0  0
   62.6964   46.4347   30.4098 C   0  0  0  0  0  0
   63.0770   46.4814   32.8409 C   0  0  0  0  0  0
   64.3773   45.9380   32.6473 C   0  0  0  0  0  0
   62.2741   46.7054   31.7109 C   0  0  0  0  0  0
   64.8026   45.7008   31.3325 C   0  0  0  0  0  0
   63.9904   45.9429   30.2285 C   0  0  0  0  0  0
   59.1507   47.4188   29.0637 C   0  0  0  0  0  0
   65.2874   45.5313   33.8317 C   0  0  0  0  0  0
   62.5318   46.8865   34.2340 C   0  0  0  0  0  0
   56.1000   46.8766   29.0404 C   0  0  0  0  0  0
   58.4749   46.3308   29.4942 C   0  0  0  0  0  0
   54.6816   46.6564   28.9012 C   0  0  0  0  0  0
   57.0678   45.9599   29.3187 C   0  0  0  0  0  0
   63.3976   46.2953   35.3774 C   0  0  0  0  0  0
   64.8958   46.3444   35.0839 C   0  0  0  0  0  0
   53.9594   47.3101   28.1529 O   0  0  0  0  0  0
   61.2774   45.2565   28.6018 C   0  0  0  0  0  0
   54.2009   45.7191   29.7635 O   0  0  0  0  0  0
   64.5412   45.6489   28.8534 C   0  0  0  0  0  0
   62.5940   48.4277   34.3401 C   0  0  0  0  0  0
   61.0948   46.3376   34.4375 C   0  0  0  0  0  0
   65.0863   44.0173   34.0851 C   0  0  0  0  0  0
   66.7763   45.8653   33.5672 C   0  0  0  0  0  0
   56.7924   44.4695   29.4380 C   0  0  0  0  0  0
   60.8073   48.4217   30.1107 H   0  0  0  0  0  0
   61.4162   47.5993   27.2314 H   0  0  0  0  0  0
   62.4835   48.5104   28.3648 H   0  0  0  0  0  0
   61.2780   47.0915   31.8566 H   0  0  0  0  0  0
   65.7818   45.2826   31.1558 H   0  0  0  0  0  0
   58.6520   48.2077   28.5390 H   0  0  0  0  0  0
   56.3442   47.9169   28.9390 H   0  0  0  0  0  0
   59.0583   45.6228   30.0640 H   0  0  0  0  0  0
   63.2093   46.8332   36.3061 H   0  0  0  0  0  0
   63.1134   45.2654   35.5898 H   0  0  0  0  0  0
   65.1931   47.3841   34.9393 H   0  0  0  0  0  0
   65.4478   45.9947   35.9574 H   0  0  0  0  0  0
   60.5254   45.3855   27.8263 H   0  0  0  0  0  0
   62.1105   44.7395   28.1338 H   0  0  0  0  0  0
   60.8987   44.5676   29.3568 H   0  0  0  0  0  0
   54.9375   45.3250   30.2363 H   0  0  0  0  0  0
   65.6249   45.6768   28.8414 H   0  0  0  0  0  0
   64.2320   44.6551   28.5391 H   0  0  0  0  0  0
   64.2027   46.3872   28.1281 H   0  0  0  0  0  0
   62.2037   48.7614   35.3005 H   0  0  0  0  0  0
   63.6087   48.8133   34.2492 H   0  0  0  0  0  0
   62.0079   48.9136   33.5607 H   0  0  0  0  0  0
   60.7906   46.4134   35.4818 H   0  0  0  0  0  0
   60.3514   46.8775   33.8548 H   0  0  0  0  0  0
   61.0100   45.2941   34.1391 H   0  0  0  0  0  0
   65.6681   43.6767   34.9388 H   0  0  0  0  0  0
   64.0440   43.7508   34.2605 H   0  0  0  0  0  0
   65.4173   43.4281   33.2301 H   0  0  0  0  0  0
   67.3800   45.7234   34.4650 H   0  0  0  0  0  0
   67.2071   45.2050   32.8203 H   0  0  0  0  0  0
   66.9147   46.8949   33.2332 H   0  0  0  0  0  0
   57.6092   43.9552   28.9390 H   0  0  0  0  0  0
   56.8214   44.1368   30.4761 H   0  0  0  0  0  0
   55.8924   44.1222   28.9346 H   0  0  0  0  0  0
  1  2  1  0  0  0
  1  3  1  0  0  0
  1  4  1  0  0  0
  1 20  1  0  0  0
  2 10  1  0  0  0
  2  3  1  0  0  0
  2 28  1  0  0  0
  3 29  1  0  0  0
  3 30  1  0  0  0
  4  7  2  0  0  0
  4  9  1  0  0  0
  5  7  1  0  0  0
  5 12  1  0  0  0
  5  6  2  0  0  0
  6  8  1  0  0  0
  6 11  1  0  0  0
  7 31  1  0  0  0
  8  9  2  0  0  0
  8 32  1  0  0  0
  9 22  1  0  0  0
 10 14  2  0  0  0
 10 33  1  0  0  0
 11 18  1  0  0  0
 11 25  1  0  0  0
 11 26  1  0  0  0
 12 17  1  0  0  0
 12 23  1  0  0  0
 12 24  1  0  0  0
 13 16  2  0  0  0
 13 15  1  0  0  0
 13 34  1  0  0  0
 14 16  1  0  0  0
 14 35  1  0  0  0
 15 19  2  0  0  0
 15 21  1  0  0  0
 16 27  1  0  0  0
 17 18  1  0  0  0
 17 36  1  0  0  0
 17 37  1  0  0  0
 18 38  1  0  0  0
 18 39  1  0  0  0
 20 40  1  0  0  0
 20 41  1  0  0  0
 20 42  1  0  0  0
 21 43  1  0  0  0
 22 44  1  0  0  0
 22 45  1  0  0  0
 22 46  1  0  0  0
 23 47  1  0  0  0
 23 48  1  0  0  0
 23 49  1  0  0  0
 24 50  1  0  0  0
 24 51  1  0  0  0
 24 52  1  0  0  0
 25 53  1  0  0  0
 25 54  1  0  0  0
 25 55  1  0  0  0
 26 56  1  0  0  0
 26 57  1  0  0  0
 26 58  1  0  0  0
 27 59  1  0  0  0
 27 60  1  0  0  0
 27 61  1  0  0  0
M  END
> <s_m_entry_id>
31071

> <s_m_entry_name>
dock_pv.284

> <s_m_Source_Path>
/home/csk/Desktop/cluster/DUD-E-result/rxra

> <s_m_Source_File>
dock_pv.maegz

> <i_m_Source_File_Index>
284

> <chembl_id>
CHEMBL308883

> <chembl_pref_name>
None

> <i_lp_mmshare_version>
53161

> <r_lp_tautomer_probability>
1

> <s_lp_Force_Field>
OPLS_2005

> <r_lp_Energy>
33.630657

> <b_lp_Chiralities_Consistent>
1

> <s_lp_Variant>
CHEMBL2061_lig325-1

> <s_i_glide_gridfile>
glide-grid_1mv9

> <i_i_glide_lignum>
376

> <i_i_glide_rotatable_bonds>
5

> <r_i_docking_score>
-9.90891790445865

> <r_i_glide_ligand_efficiency>
-0.366996959424394

> <r_i_glide_ligand_efficiency_sa>
-1.10099087706362

> <r_i_glide_ligand_efficiency_ln>
-2.30663272687894

> <r_i_glide_gscore>
-9.90891790445865

> <r_i_glide_lipo>
-6.20025797610712

> <r_i_glide_hbond>
0

> <r_i_glide_metal>
0

> <r_i_glide_rewards>
-2.08296699991448

> <r_i_glide_evdw>
-37.7881851196289

> <r_i_glide_ecoul>
-2.06249904632568

> <r_i_glide_erotb>
0.573091184493258

> <r_i_glide_esite>
0

> <r_i_glide_emodel>
-36.4238116733632

> <r_i_glide_energy>
-39.8506841659546

> <r_i_glide_einternal>
7.12320852279663

> <i_i_glide_confnum>
178

> <i_i_glide_posenum>
60

> <r_i_glide_eff_state_penalty>
0

> <s_user_duplicate_titles>
CHEMBL2061_lig325,109102

> <i_f3d_flags>
0

> <s_m_subgroup_title>
dock_pv

> <s_m_subgroupid>
dock_pv

> <b_m_subgroup_collapsed>
1

$$$$
CHEMBL2061_lig121
                    3D
 Schrodinger Suite 2021-1.
 66 68  0  0  1  0            999 V2000
   62.7450   46.6892   31.2374 C   0  0  0  0  0  0
   58.6629   45.8665   29.7692 C   0  0  0  0  0  0
   60.8092   46.7493   29.6282 C   0  0  0  0  0  0
   59.8481   46.0758   30.4274 C   0  0  0  0  0  0
   63.8733   45.8596   31.2565 C   0  0  0  0  0  0
   58.7196   46.4756   28.1422 S   0  0  0  0  0  0
   64.5680   45.6305   32.4644 C   0  0  0  0  0  0
   62.1409   47.0451   29.9201 C   0  0  0  0  0  0
   60.3139   47.0596   28.3361 C   0  0  0  0  0  0
   62.2001   47.1383   32.4536 C   0  0  0  0  0  0
   62.7933   46.7991   33.6818 C   0  0  0  0  0  0
   57.4661   45.2386   30.3039 C   0  0  0  0  0  0
   63.9756   46.0754   33.6479 C   0  0  0  0  0  0
   56.2404   45.6747   29.9366 C   0  0  0  0  0  0
   64.2383   45.2778   30.0616 O   0  0  0  0  0  0
   54.9770   45.1966   30.4153 C   0  0  0  0  0  0
   65.9065   44.8694   32.5901 C   0  0  0  0  0  0
   62.2174   47.1393   35.0763 C   0  0  0  0  0  0
   54.8063   44.4078   31.3366 O   0  0  0  0  0  0
   62.5602   44.0524   28.7112 C   0  0  0  0  0  0
   63.6488   44.0023   29.7829 C   0  0  0  0  0  0
   53.9610   45.7937   29.7381 O   0  0  0  0  0  0
   62.8064   44.9188   27.7377 F   0  0  0  0  0  0
   62.4090   42.8768   28.1381 F   0  0  0  0  0  0
   62.9304   47.4784   28.8475 C   0  0  0  0  0  0
   61.0779   47.6856   27.3490 C   0  0  0  0  0  0
   57.7865   44.0944   31.2660 C   0  0  0  0  0  0
   62.4217   47.8579   27.6170 C   0  0  0  0  0  0
   65.5593   43.5184   33.3075 C   0  0  0  0  0  0
   66.8834   45.6288   33.5298 C   0  0  0  0  0  0
   66.6194   44.7541   31.1815 C   0  0  0  0  0  0
   61.0587   48.1281   35.0418 C   0  0  0  0  0  0
   63.2989   47.7719   35.9918 C   0  0  0  0  0  0
   61.6490   45.8639   35.7225 C   0  0  0  0  0  0
   60.0377   45.7578   31.4410 H   0  0  0  0  0  0
   61.2998   47.7326   32.4306 H   0  0  0  0  0  0
   64.4253   45.8042   34.5890 H   0  0  0  0  0  0
   56.1726   46.4862   29.2261 H   0  0  0  0  0  0
   61.5957   44.3020   29.1418 H   0  0  0  0  0  0
   64.4122   43.3550   29.3706 H   0  0  0  0  0  0
   63.3217   43.4827   30.6769 H   0  0  0  0  0  0
   54.3117   46.3157   29.0134 H   0  0  0  0  0  0
   63.9979   47.3927   28.9284 H   0  0  0  0  0  0
   60.6719   47.9164   26.3741 H   0  0  0  0  0  0
   58.6680   43.5609   30.9388 H   0  0  0  0  0  0
   58.0080   44.4912   32.2571 H   0  0  0  0  0  0
   57.0186   43.3266   31.3356 H   0  0  0  0  0  0
   63.0897   48.2017   26.8414 H   0  0  0  0  0  0
   65.0581   42.8319   32.6251 H   0  0  0  0  0  0
   66.4082   43.0011   33.7393 H   0  0  0  0  0  0
   64.8787   43.6471   34.1489 H   0  0  0  0  0  0
   67.1989   46.5861   33.1058 H   0  0  0  0  0  0
   66.4847   45.8359   34.5235 H   0  0  0  0  0  0
   67.7691   45.0307   33.7385 H   0  0  0  0  0  0
   66.7189   45.7000   30.6687 H   0  0  0  0  0  0
   67.6077   44.3194   31.0826 H   0  0  0  0  0  0
   66.0922   44.0749   30.5286 H   0  0  0  0  0  0
   60.2077   47.6769   34.5389 H   0  0  0  0  0  0
   60.7207   48.4113   36.0417 H   0  0  0  0  0  0
   61.3553   49.0431   34.5387 H   0  0  0  0  0  0
   64.1013   47.0880   36.2551 H   0  0  0  0  0  0
   63.7508   48.6552   35.5376 H   0  0  0  0  0  0
   62.8535   48.0780   36.9318 H   0  0  0  0  0  0
   62.4364   45.2277   36.1320 H   0  0  0  0  0  0
   60.9902   46.1088   36.5403 H   0  0  0  0  0  0
   61.0144   45.2846   35.0412 H   0  0  0  0  0  0
  1  5  1  0  0  0
  1  8  1  0  0  0
  1 10  2  0  0  0
  2  4  2  0  0  0
  2 12  1  0  0  0
  2  6  1  0  0  0
  3  8  1  0  0  0
  3  4  1  0  0  0
  3  9  2  0  0  0
  4 35  1  0  0  0
  5  7  2  0  0  0
  5 15  1  0  0  0
  6  9  1  0  0  0
  7 17  1  0  0  0
  7 13  1  0  0  0
  8 25  2  0  0  0
  9 26  1  0  0  0
 10 11  1  0  0  0
 10 36  1  0  0  0
 11 13  2  0  0  0
 11 18  1  0  0  0
 12 14  2  0  0  0
 12 27  1  0  0  0
 13 37  1  0  0  0
 14 16  1  0  0  0
 14 38  1  0  0  0
 15 21  1  0  0  0
 16 19  2  0  0  0
 16 22  1  0  0  0
 17 29  1  0  0  0
 17 30  1  0  0  0
 17 31  1  0  0  0
 18 32  1  0  0  0
 18 33  1  0  0  0
 18 34  1  0  0  0
 20 21  1  0  0  0
 20 23  1  0  0  0
 20 24  1  0  0  0
 20 39  1  0  0  0
 21 40  1  0  0  0
 21 41  1  0  0  0
 22 42  1  0  0  0
 25 28  1  0  0  0
 25 43  1  0  0  0
 26 28  2  0  0  0
 26 44  1  0  0  0
 27 45  1  0  0  0
 27 46  1  0  0  0
 27 47  1  0  0  0
 28 48  1  0  0  0
 29 49  1  0  0  0
 29 50  1  0  0  0
 29 51  1  0  0  0
 30 52  1  0  0  0
 30 53  1  0  0  0
 30 54  1  0  0  0
 31 55  1  0  0  0
 31 56  1  0  0  0
 31 57  1  0  0  0
 32 58  1  0  0  0
 32 59  1  0  0  0
 32 60  1  0  0  0
 33 61  1  0  0  0
 33 62  1  0  0  0
 33 63  1  0  0  0
 34 64  1  0  0  0
 34 65  1  0  0  0
 34 66  1  0  0  0
M  END
> <s_m_entry_id>
31072

> <s_m_entry_name>
dock_pv.285

> <s_m_Source_Path>
/home/csk/Desktop/cluster/DUD-E-result/rxra

> <s_m_Source_File>
dock_pv.maegz

> <i_m_Source_File_Index>
285

> <chembl_id>
CHEMBL290761

> <chembl_pref_name>
None

> <i_lp_mmshare_version>
53161

> <r_lp_tautomer_probability>
1

> <s_lp_Force_Field>
OPLS_2005

> <r_lp_Energy>
40.663778

> <b_lp_Chiralities_Consistent>
1

> <s_lp_Variant>
CHEMBL2061_lig121-1

> <s_i_glide_gridfile>
glide-grid_1mv9

> <i_i_glide_lignum>
160

> <i_i_glide_rotatable_bonds>
9

> <r_i_docking_score>
-9.86967411387733

> <r_i_glide_ligand_efficiency>
-0.290284532761098

> <r_i_glide_ligand_efficiency_sa>
-0.940409196955766

> <r_i_glide_ligand_efficiency_ln>
-2.18048784673737

> <r_i_glide_gscore>
-9.86967411387733

> <r_i_glide_lipo>
-7.17955261255202

> <r_i_glide_hbond>
-0.154546696491934

> <r_i_glide_metal>
0

> <r_i_glide_rewards>
-1.36234715161445

> <r_i_glide_evdw>
-24.2126884460449

> <r_i_glide_ecoul>
-2.61154794692993

> <r_i_glide_erotb>
0.429138961122819

> <r_i_glide_esite>
0

> <r_i_glide_emodel>
-75.6745277439725

> <r_i_glide_energy>
-26.8242363929749

> <r_i_glide_einternal>
10.0030221939087

> <i_i_glide_confnum>
178

> <i_i_glide_posenum>
306

> <r_i_glide_eff_state_penalty>
0

> <s_user_duplicate_titles>
CHEMBL2061_lig121,60639

> <i_f3d_flags>
0

> <s_m_subgroup_title>
dock_pv

> <s_m_subgroupid>
dock_pv

> <b_m_subgroup_collapsed>
1

$$$$
CHEMBL2061_lig23
                    3D
 Schrodinger Suite 2021-1.
 52 54  0  0  1  0            999 V2000
   64.0081   45.4665   31.2962 C   0  0  0  0  0  0
   62.9548   46.2009   31.8656 C   0  0  0  0  0  0
   61.8717   46.5837   31.0590 C   0  0  0  0  0  0
   61.7465   46.1498   29.7369 C   0  0  0  0  0  0
   62.7911   45.3862   29.1968 C   0  0  0  0  0  0
   63.9135   45.0685   29.9585 C   0  0  0  0  0  0
   65.2412   45.0468   32.1111 C   0  0  0  0  0  0
   64.9206   43.9091   33.1006 C   0  0  0  0  0  0
   65.9505   46.2298   32.8009 C   0  0  0  0  0  0
   63.0233   46.4975   33.2138 O   0  0  0  0  0  0
   60.5864   46.4765   28.9809 N   0  0  0  0  0  0
   59.2547   46.0773   29.3294 C   0  0  0  0  0  0
   60.8374   46.8400   27.5651 C   0  0  0  0  0  0
   61.9307   47.9035   27.3353 C   0  0  0  0  0  0
   58.2825   46.0770   28.3712 N   0  0  0  0  0  0
   57.0184   45.6785   28.6730 C   0  0  0  0  0  0
   56.6402   45.2688   29.9510 C   0  0  0  0  0  0
   57.6211   45.2770   30.9424 C   0  0  0  0  0  0
   58.9194   45.6768   30.6331 C   0  0  0  0  0  0
   55.2185   44.9310   30.2825 C   0  0  0  0  0  0
   54.7019   45.2772   31.3388 O   0  0  0  0  0  0
   54.5589   44.2075   29.3390 O   0  0  0  0  0  0
   61.8260   46.7942   33.9228 C   0  0  0  0  0  0
   62.1822   47.0424   35.3946 C   0  0  0  0  0  0
   63.0442   48.2225   35.7628 C   0  0  0  0  0  0
   61.5681   48.2101   36.1293 C   0  0  0  0  0  0
   61.0957   47.2143   31.4588 H   0  0  0  0  0  0
   62.7390   45.0240   28.1824 H   0  0  0  0  0  0
   64.7008   44.4840   29.5080 H   0  0  0  0  0  0
   65.9694   44.6484   31.4044 H   0  0  0  0  0  0
   64.4854   43.0501   32.5891 H   0  0  0  0  0  0
   65.8206   43.5632   33.6093 H   0  0  0  0  0  0
   64.2152   44.2282   33.8685 H   0  0  0  0  0  0
   66.0082   47.0925   32.1400 H   0  0  0  0  0  0
   65.4359   46.5494   33.7074 H   0  0  0  0  0  0
   66.9656   45.9644   33.0941 H   0  0  0  0  0  0
   61.0752   45.9367   27.0023 H   0  0  0  0  0  0
   59.9397   47.2443   27.0962 H   0  0  0  0  0  0
   62.0623   48.0769   26.2692 H   0  0  0  0  0  0
   61.6598   48.8560   27.7944 H   0  0  0  0  0  0
   62.9067   47.6099   27.7194 H   0  0  0  0  0  0
   56.3079   45.7347   27.8596 H   0  0  0  0  0  0
   57.3881   45.0025   31.9604 H   0  0  0  0  0  0
   59.6258   45.6771   31.4408 H   0  0  0  0  0  0
   55.1224   43.8564   28.6412 H   0  0  0  0  0  0
   61.1187   45.9679   33.8413 H   0  0  0  0  0  0
   61.3543   47.6767   33.5059 H   0  0  0  0  0  0
   62.3591   46.1119   35.9339 H   0  0  0  0  0  0
   63.3960   48.8750   34.9626 H   0  0  0  0  0  0
   63.7989   48.0850   36.5384 H   0  0  0  0  0  0
   61.2682   48.0807   37.1669 H   0  0  0  0  0  0
   60.8850   48.8653   35.5915 H   0  0  0  0  0  0
  1  6  1  0  0  0
  1  2  2  0  0  0
  1  7  1  0  0  0
  2 10  1  0  0  0
  2  3  1  0  0  0
  3  4  2  0  0  0
  3 27  1  0  0  0
  4  5  1  0  0  0
  4 11  1  0  0  0
  5  6  2  0  0  0
  5 28  1  0  0  0
  6 29  1  0  0  0
  7  8  1  0  0  0
  7  9  1  0  0  0
  7 30  1  0  0  0
  8 31  1  0  0  0
  8 32  1  0  0  0
  8 33  1  0  0  0
  9 34  1  0  0  0
  9 35  1  0  0  0
  9 36  1  0  0  0
 10 23  1  0  0  0
 11 12  1  0  0  0
 11 13  1  0  0  0
 12 19  1  0  0  0
 12 15  2  0  0  0
 13 14  1  0  0  0
 13 37  1  0  0  0
 13 38  1  0  0  0
 14 39  1  0  0  0
 14 40  1  0  0  0
 14 41  1  0  0  0
 15 16  1  0  0  0
 16 17  2  0  0  0
 16 42  1  0  0  0
 17 18  1  0  0  0
 17 20  1  0  0  0
 18 19  2  0  0  0
 18 43  1  0  0  0
 19 44  1  0  0  0
 20 21  2  0  0  0
 20 22  1  0  0  0
 22 45  1  0  0  0
 23 24  1  0  0  0
 23 46  1  0  0  0
 23 47  1  0  0  0
 24 25  1  0  0  0
 24 26  1  0  0  0
 24 48  1  0  0  0
 25 26  1  0  0  0
 25 49  1  0  0  0
 25 50  1  0  0  0
 26 51  1  0  0  0
 26 52  1  0  0  0
M  END
> <s_m_entry_id>
31073

> <s_m_entry_name>
dock_pv.286

> <s_m_Source_Path>
/home/csk/Desktop/cluster/DUD-E-result/rxra

> <s_m_Source_File>
dock_pv.maegz

> <i_m_Source_File_Index>
286

> <chembl_id>
CHEMBL1688384

> <chembl_pref_name>
None

> <i_lp_mmshare_version>
53161

> <r_lp_tautomer_probability>
1

> <s_lp_Force_Field>
OPLS_2005

> <r_lp_Energy>
29.844658

> <b_lp_Chiralities_Consistent>
1

> <s_lp_Variant>
CHEMBL2061_lig23-1

> <s_i_glide_gridfile>
glide-grid_1mv9

> <i_i_glide_lignum>
27

> <i_i_glide_rotatable_bonds>
9

> <r_i_docking_score>
-9.86798694902547

> <r_i_glide_ligand_efficiency>
-0.379537959577903

> <r_i_glide_ligand_efficiency_sa>
-1.12437971183978

> <r_i_glide_ligand_efficiency_ln>
-2.31746435547246

> <r_i_glide_gscore>
-9.86798694902547

> <r_i_glide_lipo>
-5.94993117840425

> <r_i_glide_hbond>
-0.060314687842573

> <r_i_glide_metal>
0

> <r_i_glide_rewards>
-1.60996889129124

> <r_i_glide_evdw>
-46.8718414306641

> <r_i_glide_ecoul>
-5.44536352157593

> <r_i_glide_erotb>
0.912624408282189

> <r_i_glide_esite>
0

> <r_i_glide_emodel>
-78.6027835589582

> <r_i_glide_energy>
-52.31720495224

> <r_i_glide_einternal>
10.3369941711426

> <i_i_glide_confnum>
9

> <i_i_glide_posenum>
152

> <r_i_glide_eff_state_penalty>
0

> <s_user_duplicate_titles>
CHEMBL2061_lig23

> <i_f3d_flags>
0

> <s_m_subgroup_title>
dock_pv

> <s_m_subgroupid>
dock_pv

> <b_m_subgroup_collapsed>
1

$$$$
CHEMBL2061_lig265
                    3D
 Schrodinger Suite 2021-1.
 48 50  0  0  1  0            999 V2000
   62.8856   46.5244   32.9657 C   0  0  0  0  0  0
   63.9623   45.6827   32.5717 C   0  0  0  0  0  0
   62.6725   46.9860   34.4339 C   0  0  0  0  0  0
   65.0272   45.1772   33.5672 C   0  0  0  0  0  0
   55.7330   45.1084   29.8030 C   0  0  0  0  0  0
   64.0367   45.2705   31.2280 C   0  0  0  0  0  0
   62.0020   46.9655   31.9653 C   0  0  0  0  0  0
   57.1896   45.4640   29.7538 C   0  0  0  0  0  0
   62.0722   46.5099   30.6489 C   0  0  0  0  0  0
   63.5580   46.1706   35.4145 C   0  0  0  0  0  0
   64.9767   45.9675   34.8983 C   0  0  0  0  0  0
   55.0831   45.0317   30.8469 O   0  0  0  0  0  0
   61.1332   46.8633   29.7086 O   0  0  0  0  0  0
   57.9837   45.2772   30.8819 C   0  0  0  0  0  0
   57.7463   46.0633   28.6154 C   0  0  0  0  0  0
   63.1065   45.6680   30.2797 C   0  0  0  0  0  0
   59.8615   46.3208   29.7390 C   0  0  0  0  0  0
   55.2080   44.8770   28.5776 O   0  0  0  0  0  0
   59.0742   46.4771   28.6040 C   0  0  0  0  0  0
   59.2985   45.7137   30.8702 C   0  0  0  0  0  0
   63.0666   48.4757   34.5389 C   0  0  0  0  0  0
   61.2095   46.7270   34.8768 C   0  0  0  0  0  0
   64.7733   43.6771   33.8429 C   0  0  0  0  0  0
   66.4264   45.4497   32.9914 C   0  0  0  0  0  0
   64.8211   44.6032   30.9051 H   0  0  0  0  0  0
   61.2069   47.6476   32.2179 H   0  0  0  0  0  0
   63.1237   45.1915   35.6121 H   0  0  0  0  0  0
   63.6031   46.6606   36.3888 H   0  0  0  0  0  0
   65.5768   45.4676   35.6598 H   0  0  0  0  0  0
   65.4376   46.9479   34.7775 H   0  0  0  0  0  0
   57.5820   44.8576   31.7920 H   0  0  0  0  0  0
   57.1459   46.2372   27.7390 H   0  0  0  0  0  0
   63.1803   45.3125   29.2626 H   0  0  0  0  0  0
   55.8987   44.7194   27.9328 H   0  0  0  0  0  0
   59.4842   46.9586   27.7285 H   0  0  0  0  0  0
   59.8473   45.6770   31.7952 H   0  0  0  0  0  0
   62.9937   48.8436   35.5632 H   0  0  0  0  0  0
   64.0864   48.6514   34.2010 H   0  0  0  0  0  0
   62.4190   49.0979   33.9204 H   0  0  0  0  0  0
   61.0548   47.0154   35.9172 H   0  0  0  0  0  0
   60.4812   47.2770   34.2878 H   0  0  0  0  0  0
   60.9389   45.6770   34.7861 H   0  0  0  0  0  0
   65.4980   43.2772   34.5515 H   0  0  0  0  0  0
   63.7777   43.4900   34.2452 H   0  0  0  0  0  0
   64.8633   43.0812   32.9341 H   0  0  0  0  0  0
   67.2077   45.1853   33.7065 H   0  0  0  0  0  0
   66.6332   44.8769   32.0892 H   0  0  0  0  0  0
   66.5632   46.5028   32.7389 H   0  0  0  0  0  0
  1  2  2  0  0  0
  1  3  1  0  0  0
  1  7  1  0  0  0
  2  4  1  0  0  0
  2  6  1  0  0  0
  3 10  1  0  0  0
  3 21  1  0  0  0
  3 22  1  0  0  0
  4 23  1  0  0  0
  4 24  1  0  0  0
  4 11  1  0  0  0
  5  8  1  0  0  0
  5 12  2  0  0  0
  5 18  1  0  0  0
  6 16  2  0  0  0
  6 25  1  0  0  0
  7  9  2  0  0  0
  7 26  1  0  0  0
  8 14  2  0  0  0
  8 15  1  0  0  0
  9 13  1  0  0  0
  9 16  1  0  0  0
 10 11  1  0  0  0
 10 27  1  0  0  0
 10 28  1  0  0  0
 11 29  1  0  0  0
 11 30  1  0  0  0
 13 17  1  0  0  0
 14 20  1  0  0  0
 14 31  1  0  0  0
 15 19  2  0  0  0
 15 32  1  0  0  0
 16 33  1  0  0  0
 17 19  1  0  0  0
 17 20  2  0  0  0
 18 34  1  0  0  0
 19 35  1  0  0  0
 20 36  1  0  0  0
 21 37  1  0  0  0
 21 38  1  0  0  0
 21 39  1  0  0  0
 22 40  1  0  0  0
 22 41  1  0  0  0
 22 42  1  0  0  0
 23 43  1  0  0  0
 23 44  1  0  0  0
 23 45  1  0  0  0
 24 46  1  0  0  0
 24 47  1  0  0  0
 24 48  1  0  0  0
M  END
> <s_m_entry_id>
31074

> <s_m_entry_name>
dock_pv.287

> <s_m_Source_Path>
/home/csk/Desktop/cluster/DUD-E-result/rxra

> <s_m_Source_File>
dock_pv.maegz

> <i_m_Source_File_Index>
287

> <chembl_id>
CHEMBL116859

> <chembl_pref_name>
None

> <i_lp_mmshare_version>
53161

> <r_lp_tautomer_probability>
1

> <s_lp_Force_Field>
OPLS_2005

> <r_lp_Energy>
26.314017

> <b_lp_Chiralities_Consistent>
1

> <s_lp_Variant>
CHEMBL2061_lig265-1

> <s_i_glide_gridfile>
glide-grid_1mv9

> <i_i_glide_lignum>
308

> <i_i_glide_rotatable_bonds>
4

> <r_i_docking_score>
-9.8425929739868

> <r_i_glide_ligand_efficiency>
-0.410108040582783

> <r_i_glide_ligand_efficiency_sa>
-1.1829562893671

> <r_i_glide_ligand_efficiency_ln>
-2.3557841458369

> <r_i_glide_gscore>
-9.8425929739868

> <r_i_glide_lipo>
-5.6433264757789

> <r_i_glide_hbond>
0

> <r_i_glide_metal>
0

> <r_i_glide_rewards>
-2.39548393517717

> <r_i_glide_evdw>
-42.6372337341309

> <r_i_glide_ecoul>
-1.37164258956909

> <r_i_glide_erotb>
0.533825512111178

> <r_i_glide_esite>
0

> <r_i_glide_emodel>
-66.8591009970494

> <r_i_glide_energy>
-44.0088763237

> <r_i_glide_einternal>
4.47247171401978

> <i_i_glide_confnum>
14

> <i_i_glide_posenum>
83

> <r_i_glide_eff_state_penalty>
0

> <s_user_duplicate_titles>
CHEMBL2061_lig265

> <i_f3d_flags>
0

> <s_m_subgroup_title>
dock_pv

> <s_m_subgroupid>
dock_pv

> <b_m_subgroup_collapsed>
1

$$$$
CHEMBL2061_lig492
                    3D
 Schrodinger Suite 2021-1.
 47 48  0  0  1  0            999 V2000
   63.0561   46.6345   30.7216 C   0  0  0  0  0  0
   63.2633   46.3043   29.4192 C   0  0  0  0  0  0
   62.5650   46.8147   28.2365 C   0  0  0  0  0  0
   61.2329   46.7025   28.0011 C   0  0  0  0  0  0
   63.4167   47.5502   27.2131 C   0  0  0  0  0  0
   60.2084   46.0795   28.8314 C   0  0  0  0  0  0
   58.8955   46.2224   28.5477 C   0  0  0  0  0  0
   57.7596   45.7470   29.3409 C   0  0  0  0  0  0
   56.5196   45.9878   28.8334 C   0  0  0  0  0  0
   58.0089   45.0956   30.7015 C   0  0  0  0  0  0
   55.2342   45.6964   29.4245 C   0  0  0  0  0  0
   55.1799   44.4790   30.0294 O   0  0  0  0  0  0
   54.2682   46.4538   29.3395 O   0  0  0  0  0  0
   61.9590   47.5863   31.1872 C   0  0  0  0  0  0
   61.2118   46.8373   32.2965 C   0  0  0  0  0  0
   62.0922   46.7846   33.5456 C   0  0  2  0  0  0
   63.8920   46.0779   31.8535 C   0  0  0  0  0  0
   63.4234   46.0911   33.2007 C   0  0  0  0  0  0
   64.2130   45.5077   34.2026 C   0  0  0  0  0  0
   65.4400   44.9275   33.9130 C   0  0  0  0  0  0
   65.9057   44.9308   32.6077 C   0  0  0  0  0  0
   65.1451   45.4971   31.5898 C   0  0  0  0  0  0
   61.2829   46.2174   34.7301 C   0  0  0  0  0  0
   64.0432   45.5973   29.1877 H   0  0  0  0  0  0
   60.8761   47.1391   27.0784 H   0  0  0  0  0  0
   64.1540   46.8789   26.7770 H   0  0  0  0  0  0
   62.8367   48.0194   26.4158 H   0  0  0  0  0  0
   63.9859   48.3348   27.7126 H   0  0  0  0  0  0
   60.5140   45.5144   29.6984 H   0  0  0  0  0  0
   58.6704   46.7713   27.6458 H   0  0  0  0  0  0
   56.4063   46.4772   27.8798 H   0  0  0  0  0  0
   58.4081   44.0871   30.5846 H   0  0  0  0  0  0
   58.7644   45.6725   31.2303 H   0  0  0  0  0  0
   57.1521   45.1089   31.3738 H   0  0  0  0  0  0
   56.0162   44.0225   29.9216 H   0  0  0  0  0  0
   62.3823   48.5226   31.5511 H   0  0  0  0  0  0
   61.2784   47.8705   30.3907 H   0  0  0  0  0  0
   60.2622   47.2769   32.5345 H   0  0  0  0  0  0
   60.9673   45.8258   31.9726 H   0  0  0  0  0  0
   62.3589   47.8062   33.8228 H   0  0  0  0  0  0
   63.8953   45.5126   35.2329 H   0  0  0  0  0  0
   66.0311   44.4864   34.7026 H   0  0  0  0  0  0
   66.8571   44.4828   32.3833 H   0  0  0  0  0  0
   65.5646   45.4817   30.5954 H   0  0  0  0  0  0
   61.8718   46.0764   35.6357 H   0  0  0  0  0  0
   60.4741   46.9020   34.9900 H   0  0  0  0  0  0
   60.8049   45.2771   34.4595 H   0  0  0  0  0  0
  1  2  2  0  0  0
  1 14  1  0  0  0
  1 17  1  0  0  0
  2  3  1  0  0  0
  2 24  1  0  0  0
  3  4  2  0  0  0
  3  5  1  0  0  0
  4  6  1  0  0  0
  4 25  1  0  0  0
  5 26  1  0  0  0
  5 27  1  0  0  0
  5 28  1  0  0  0
  6  7  2  0  0  0
  6 29  1  0  0  0
  7  8  1  0  0  0
  7 30  1  0  0  0
  8  9  2  0  0  0
  8 10  1  0  0  0
  9 11  1  0  0  0
  9 31  1  0  0  0
 10 32  1  0  0  0
 10 33  1  0  0  0
 10 34  1  0  0  0
 11 12  1  0  0  0
 11 13  2  0  0  0
 12 35  1  0  0  0
 14 15  1  0  0  0
 14 36  1  0  0  0
 14 37  1  0  0  0
 15 16  1  0  0  0
 15 38  1  0  0  0
 15 39  1  0  0  0
 16 18  1  0  0  0
 16 23  1  0  0  0
 16 40  1  0  0  0
 17 18  2  0  0  0
 17 22  1  0  0  0
 18 19  1  0  0  0
 19 20  2  0  0  0
 19 41  1  0  0  0
 20 21  1  0  0  0
 20 42  1  0  0  0
 21 22  2  0  0  0
 21 43  1  0  0  0
 22 44  1  0  0  0
 23 45  1  0  0  0
 23 46  1  0  0  0
 23 47  1  0  0  0
M  END
> <s_m_entry_id>
31075

> <s_m_entry_name>
dock_pv.288

> <s_m_Source_Path>
/home/csk/Desktop/cluster/DUD-E-result/rxra

> <s_m_Source_File>
dock_pv.maegz

> <i_m_Source_File_Index>
288

> <chembl_id>
CHEMBL3098773

> <chembl_pref_name>
None

> <i_lp_mmshare_version>
53161

> <r_lp_tautomer_probability>
1

> <s_lp_Force_Field>
OPLS_2005

> <r_lp_Energy>
29.437666

> <b_lp_Chiralities_Consistent>
1

> <s_lp_Variant>
CHEMBL2061_lig492-1

> <s_i_glide_gridfile>
glide-grid_1mv9

> <i_i_glide_lignum>
581

> <i_i_glide_rotatable_bonds>
5

> <r_i_docking_score>
-9.84025321772287

> <r_i_glide_ligand_efficiency>
-0.427837096422734

> <r_i_glide_ligand_efficiency_sa>
-1.21671179000052

> <r_i_glide_ligand_efficiency_ln>
-2.37946245452842

> <r_i_glide_gscore>
-9.84025321772287

> <r_i_glide_lipo>
-5.78008809073432

> <r_i_glide_hbond>
0

> <r_i_glide_metal>
0

> <r_i_glide_rewards>
-2.41942362725708

> <r_i_glide_evdw>
-39.5696258544922

> <r_i_glide_ecoul>
-2.9352068901062

> <r_i_glide_erotb>
0.778020826509068

> <r_i_glide_esite>
0

> <r_i_glide_emodel>
-67.336349467118

> <r_i_glide_energy>
-42.5048327445984

> <r_i_glide_einternal>
3.88917231559753

> <i_i_glide_confnum>
7

> <i_i_glide_posenum>
152

> <r_i_glide_eff_state_penalty>
0

> <s_user_duplicate_titles>
CHEMBL2061_lig492

> <i_f3d_flags>
0

> <s_m_subgroup_title>
dock_pv

> <s_m_subgroupid>
dock_pv

> <b_m_subgroup_collapsed>
1

$$$$
CHEMBL2061_lig37
                    3D
 Schrodinger Suite 2021-1.
 39 40  0  0  1  0            999 V2000
   55.6830   45.8797   29.2406 C   0  0  0  0  0  0
   55.2986   44.8197   30.0438 C   0  0  0  0  0  0
   56.2638   44.0780   30.7016 C   0  0  0  0  0  0
   57.6213   44.3309   30.5381 C   0  0  0  0  0  0
   58.0307   45.3690   29.7079 C   0  0  0  0  0  0
   57.0387   46.1201   29.0870 C   0  0  0  0  0  0
   53.9864   44.4971   30.1956 O   0  0  0  0  0  0
   59.4619   45.6772   29.4916 C   0  0  0  0  0  0
   59.9241   46.6251   28.6421 C   0  0  0  0  0  0
   61.3168   46.9373   28.4143 C   0  0  0  0  0  0
   62.3769   45.8290   28.5330 C   0  0  0  0  0  0
   63.7434   46.3560   28.9737 C   0  0  0  0  0  0
   61.6347   48.0780   28.0759 O   0  0  0  0  0  0
   64.1476   46.2721   30.3669 C   0  0  0  0  0  0
   64.4717   46.8754   28.1386 O   0  0  0  0  0  0
   63.2570   46.3358   31.3751 C   0  0  0  0  0  0
   63.5749   46.2835   32.8046 C   0  0  0  0  0  0
   64.6900   45.6087   33.3165 C   0  0  0  0  0  0
   64.9547   45.6267   34.6871 C   0  0  0  0  0  0
   64.1206   46.3400   35.5527 C   0  0  0  0  0  0
   63.0158   47.0325   35.0406 C   0  0  0  0  0  0
   62.7418   46.9855   33.6780 C   0  0  0  0  0  0
   64.4087   46.3653   36.8909 O   0  0  0  0  0  0
   61.8658   48.0770   36.1398 Br  0  0  0  0  0  0
   54.4050   47.0291   28.4164 Br  0  0  0  0  0  0
   55.9472   43.2770   31.3390 H   0  0  0  0  0  0
   58.3453   43.7093   31.0443 H   0  0  0  0  0  0
   57.3341   46.9621   28.5397 H   0  0  0  0  0  0
   53.4702   44.8820   29.4832 H   0  0  0  0  0  0
   60.1524   45.0862   30.0764 H   0  0  0  0  0  0
   59.2632   47.2369   28.0518 H   0  0  0  0  0  0
   62.0709   45.0271   29.2021 H   0  0  0  0  0  0
   62.4830   45.3780   27.5450 H   0  0  0  0  0  0
   65.2077   46.1775   30.5493 H   0  0  0  0  0  0
   62.2026   46.4384   31.1533 H   0  0  0  0  0  0
   65.3507   45.0592   32.6622 H   0  0  0  0  0  0
   65.8106   45.0911   35.0698 H   0  0  0  0  0  0
   61.8906   47.5307   33.2985 H   0  0  0  0  0  0
   65.2337   45.9339   37.1294 H   0  0  0  0  0  0
  1  6  1  0  0  0
  1  2  2  0  0  0
  1 25  1  0  0  0
  2  7  1  0  0  0
  2  3  1  0  0  0
  3  4  2  0  0  0
  3 26  1  0  0  0
  4  5  1  0  0  0
  4 27  1  0  0  0
  5  8  1  0  0  0
  5  6  2  0  0  0
  6 28  1  0  0  0
  7 29  1  0  0  0
  8  9  2  0  0  0
  8 30  1  0  0  0
  9 31  1  0  0  0
  9 10  1  0  0  0
 10 11  1  0  0  0
 10 13  2  0  0  0
 11 12  1  0  0  0
 11 32  1  0  0  0
 11 33  1  0  0  0
 12 14  1  0  0  0
 12 15  2  0  0  0
 14 16  2  0  0  0
 14 34  1  0  0  0
 16 17  1  0  0  0
 16 35  1  0  0  0
 17 18  2  0  0  0
 17 22  1  0  0  0
 18 19  1  0  0  0
 18 36  1  0  0  0
 19 20  2  0  0  0
 19 37  1  0  0  0
 20 21  1  0  0  0
 20 23  1  0  0  0
 21 22  2  0  0  0
 21 24  1  0  0  0
 22 38  1  0  0  0
 23 39  1  0  0  0
M  END
> <s_m_entry_id>
31076

> <s_m_entry_name>
dock_pv.289

> <s_m_Source_Path>
/home/csk/Desktop/cluster/DUD-E-result/rxra

> <s_m_Source_File>
dock_pv.maegz

> <i_m_Source_File_Index>
289

> <chembl_id>
CHEMBL221782

> <chembl_pref_name>
None

> <i_lp_mmshare_version>
53161

> <r_lp_tautomer_probability>
0.692307692307692

> <s_lp_Force_Field>
OPLS_2005

> <r_lp_Energy>
16.955821

> <b_lp_Chiralities_Consistent>
1

> <s_lp_Variant>
CHEMBL2061_lig37-1

> <s_i_glide_gridfile>
glide-grid_1mv9

> <i_i_glide_lignum>
45

> <i_i_glide_rotatable_bonds>
8

> <r_i_docking_score>
-9.83617430924768

> <r_i_glide_ligand_efficiency>
-0.393446972369907

> <r_i_glide_ligand_efficiency_sa>
-1.15044592502137

> <r_i_glide_ligand_efficiency_ln>
-2.33146807764956

> <r_i_glide_gscore>
-9.83617430924768

> <r_i_glide_lipo>
-5.18215308053716

> <r_i_glide_hbond>
-0.32

> <r_i_glide_metal>
0

> <r_i_glide_rewards>
-2.29745417866357

> <r_i_glide_evdw>
-44.0084190368652

> <r_i_glide_ecoul>
-2.62145113945007

> <r_i_glide_erotb>
0.557071572713829

> <r_i_glide_esite>
0

> <r_i_glide_emodel>
-68.2800825370679

> <r_i_glide_energy>
-46.6298701763153

> <r_i_glide_einternal>
6.66819477081299

> <i_i_glide_confnum>
81

> <i_i_glide_posenum>
41

> <r_i_glide_eff_state_penalty>
0

> <s_user_duplicate_titles>
CHEMBL2061_lig37,CHEMBL2061_lig37,CHEMBL2061_lig37

> <i_f3d_flags>
0

> <s_m_subgroup_title>
dock_pv

> <s_m_subgroupid>
dock_pv

> <b_m_subgroup_collapsed>
1

$$$$
CHEMBL2061_lig132
                    3D
 Schrodinger Suite 2021-1.
 64 64  0  0  1  0            999 V2000
   62.6307   46.9610   31.5503 C   0  0  0  0  0  0
   63.7430   46.1068   31.4859 C   0  0  0  0  0  0
   64.2378   45.6897   30.2465 C   0  0  0  0  0  0
   62.1262   47.5212   30.3697 C   0  0  0  0  0  0
   63.6716   46.2117   29.0823 C   0  0  0  0  0  0
   62.6555   47.1683   29.1268 C   0  0  0  0  0  0
   61.9492   47.2111   32.8402 C   0  0  0  0  0  0
   56.3816   45.2778   31.3853 C   0  0  0  0  0  0
   55.3062   44.8852   30.5022 C   0  0  0  0  0  0
   59.8685   46.0768   32.0802 C   0  0  0  0  0  0
   57.7233   45.1936   31.1869 C   0  0  0  0  0  0
   60.6991   46.7484   33.0744 C   0  0  0  0  0  0
   58.5751   45.7349   32.2484 C   0  0  0  0  0  0
   54.1615   44.6827   30.9038 O   0  0  0  0  0  0
   65.3758   44.6754   30.1103 C   0  0  0  0  0  0
   62.1201   47.8263   27.8520 C   0  0  0  0  0  0
   64.3910   45.7177   32.6274 O   0  0  0  0  0  0
   55.6363   44.8350   29.1791 O   0  0  0  0  0  0
   62.7123   48.0246   33.8776 C   0  0  0  0  0  0
   58.3514   44.5568   29.9483 C   0  0  0  0  0  0
   64.8802   43.2041   30.1391 C   0  0  0  0  0  0
   66.6022   44.9369   30.9906 C   0  0  0  0  0  0
   63.8646   44.5891   33.2927 C   0  0  0  0  0  0
   60.8346   47.1383   27.3597 C   0  0  0  0  0  0
   63.1812   47.9394   26.7328 C   0  0  0  0  0  0
   64.9029   43.9687   34.1993 C   0  0  0  0  0  0
   65.6505   45.0158   35.0079 C   0  0  0  0  0  0
   64.8203   45.6252   36.1571 C   0  0  0  0  0  0
   61.3031   48.2203   30.4171 H   0  0  0  0  0  0
   64.0578   45.8789   28.1371 H   0  0  0  0  0  0
   56.0109   45.6963   32.3098 H   0  0  0  0  0  0
   60.3116   45.8662   31.1201 H   0  0  0  0  0  0
   60.2717   46.9147   34.0537 H   0  0  0  0  0  0
   58.1330   45.9287   33.2173 H   0  0  0  0  0  0
   65.7737   44.8773   29.1203 H   0  0  0  0  0  0
   61.8574   48.8530   28.1155 H   0  0  0  0  0  0
   54.9134   44.4914   28.6518 H   0  0  0  0  0  0
   63.7313   47.6643   34.0065 H   0  0  0  0  0  0
   62.7810   49.0641   33.5544 H   0  0  0  0  0  0
   62.2167   48.0116   34.8488 H   0  0  0  0  0  0
   59.3377   44.1373   30.1393 H   0  0  0  0  0  0
   57.7697   43.6912   29.6230 H   0  0  0  0  0  0
   58.4129   45.2718   29.1271 H   0  0  0  0  0  0
   63.9641   43.0781   29.5588 H   0  0  0  0  0  0
   65.6091   42.4993   29.7396 H   0  0  0  0  0  0
   64.6942   42.8439   31.1433 H   0  0  0  0  0  0
   66.8066   46.0040   31.0795 H   0  0  0  0  0  0
   66.4936   44.5521   31.9994 H   0  0  0  0  0  0
   67.4770   44.4736   30.5390 H   0  0  0  0  0  0
   62.9967   44.8775   33.8843 H   0  0  0  0  0  0
   63.6080   43.8138   32.5844 H   0  0  0  0  0  0
   60.0783   47.1051   28.1447 H   0  0  0  0  0  0
   60.4005   47.6769   26.5165 H   0  0  0  0  0  0
   61.0210   46.1107   27.0446 H   0  0  0  0  0  0
   64.0727   48.4638   27.0829 H   0  0  0  0  0  0
   63.4940   46.9650   26.3670 H   0  0  0  0  0  0
   62.8068   48.4783   25.8665 H   0  0  0  0  0  0
   64.4227   43.2474   34.8617 H   0  0  0  0  0  0
   65.6050   43.3833   33.6064 H   0  0  0  0  0  0
   66.5266   44.4838   35.3389 H   0  0  0  0  0  0
   66.0516   45.8132   34.3805 H   0  0  0  0  0  0
   65.4618   46.0763   36.9110 H   0  0  0  0  0  0
   64.1402   46.3925   35.7959 H   0  0  0  0  0  0
   64.2108   44.8842   36.6692 H   0  0  0  0  0  0
  1  2  1  0  0  0
  1  4  2  0  0  0
  1  7  1  0  0  0
  2  3  2  0  0  0
  2 17  1  0  0  0
  3 15  1  0  0  0
  3  5  1  0  0  0
  4  6  1  0  0  0
  4 29  1  0  0  0
  5  6  2  0  0  0
  5 30  1  0  0  0
  6 16  1  0  0  0
  7 12  2  0  0  0
  7 19  1  0  0  0
  8 11  2  0  0  0
  8  9  1  0  0  0
  8 31  1  0  0  0
  9 14  2  0  0  0
  9 18  1  0  0  0
 10 12  1  0  0  0
 10 13  2  0  0  0
 10 32  1  0  0  0
 11 13  1  0  0  0
 11 20  1  0  0  0
 12 33  1  0  0  0
 13 34  1  0  0  0
 15 21  1  0  0  0
 15 22  1  0  0  0
 15 35  1  0  0  0
 16 24  1  0  0  0
 16 25  1  0  0  0
 16 36  1  0  0  0
 17 23  1  0  0  0
 18 37  1  0  0  0
 19 38  1  0  0  0
 19 39  1  0  0  0
 19 40  1  0  0  0
 20 41  1  0  0  0
 20 42  1  0  0  0
 20 43  1  0  0  0
 21 44  1  0  0  0
 21 45  1  0  0  0
 21 46  1  0  0  0
 22 47  1  0  0  0
 22 48  1  0  0  0
 22 49  1  0  0  0
 23 26  1  0  0  0
 23 50  1  0  0  0
 23 51  1  0  0  0
 24 52  1  0  0  0
 24 53  1  0  0  0
 24 54  1  0  0  0
 25 55  1  0  0  0
 25 56  1  0  0  0
 25 57  1  0  0  0
 26 27  1  0  0  0
 26 58  1  0  0  0
 26 59  1  0  0  0
 27 28  1  0  0  0
 27 60  1  0  0  0
 27 61  1  0  0  0
 28 62  1  0  0  0
 28 63  1  0  0  0
 28 64  1  0  0  0
M  END
> <s_m_entry_id>
31077

> <s_m_entry_name>
dock_pv.290

> <s_m_Source_Path>
/home/csk/Desktop/cluster/DUD-E-result/rxra

> <s_m_Source_File>
dock_pv.maegz

> <i_m_Source_File_Index>
290

> <chembl_id>
CHEMBL414218

> <chembl_pref_name>
None

> <i_lp_mmshare_version>
53161

> <r_lp_tautomer_probability>
1

> <s_lp_Force_Field>
OPLS_2005

> <r_lp_Energy>
27.012889

> <b_lp_Chiralities_Consistent>
1

> <s_lp_Variant>
CHEMBL2061_lig132-1

> <s_i_glide_gridfile>
glide-grid_1mv9

> <i_i_glide_lignum>
171

> <i_i_glide_rotatable_bonds>
11

> <r_i_docking_score>
-9.81679028177988

> <r_i_glide_ligand_efficiency>
-0.35059965292071

> <r_i_glide_ligand_efficiency_sa>
-1.06462703841994

> <r_i_glide_ligand_efficiency_ln>
-2.266003430522

> <r_i_glide_gscore>
-9.81679028177988

> <r_i_glide_lipo>
-5.46337040419451

> <r_i_glide_hbond>
-0.351583820314878

> <r_i_glide_metal>
0

> <r_i_glide_rewards>
-2.3001182783495

> <r_i_glide_evdw>
-38.1958618164062

> <r_i_glide_ecoul>
-4.74873208999634

> <r_i_glide_erotb>
0.920385125398771

> <r_i_glide_esite>
0

> <r_i_glide_emodel>
-54.2209876305067

> <r_i_glide_energy>
-42.9445939064026

> <r_i_glide_einternal>
7.12749814987183

> <i_i_glide_confnum>
6

> <i_i_glide_posenum>
95

> <r_i_glide_eff_state_penalty>
0

> <s_user_duplicate_titles>
CHEMBL2061_lig132,147276

> <i_f3d_flags>
0

> <s_m_subgroup_title>
dock_pv

> <s_m_subgroupid>
dock_pv

> <b_m_subgroup_collapsed>
1

$$$$
CHEMBL2061_lig384
                    3D
 Schrodinger Suite 2021-1.
 63 65  0  0  1  0            999 V2000
   63.1614   46.4703   33.2436 C   0  0  0  0  0  0
   64.2222   45.5403   33.0832 C   0  0  0  0  0  0
   62.6526   46.3131   30.8210 C   0  0  0  0  0  0
   61.8877   46.8212   29.6450 C   0  0  0  0  0  0
   62.4097   46.8313   32.1011 C   0  0  0  0  0  0
   64.4109   44.9739   31.8178 C   0  0  0  0  0  0
   63.6435   45.3212   30.7087 C   0  0  0  0  0  0
   62.8206   47.0596   34.6361 C   0  0  0  0  0  0
   65.2331   45.2029   34.2137 C   0  0  0  0  0  0
   56.2915   45.2792   29.7810 C   0  0  0  0  0  0
   62.5528   47.5448   28.8402 N   0  0  0  0  0  0
   60.4651   46.4300   29.4677 C   0  0  0  0  0  0
   57.7440   45.6584   29.6400 C   0  0  0  0  0  0
   64.7297   45.6725   35.6031 C   0  0  0  0  0  0
   64.0539   47.0318   35.5671 C   0  0  0  0  0  0
   55.8844   44.4939   30.6338 O   0  0  0  0  0  0
   59.4640   47.2552   28.9395 C   0  0  0  0  0  0
   60.0787   45.1902   29.9432 C   0  0  0  0  0  0
   58.7456   44.8142   30.0965 C   0  0  0  0  0  0
   58.1264   46.8774   29.0856 C   0  0  0  0  0  0
   55.4769   45.8655   28.8585 O   0  0  0  0  0  0
   61.9319   47.7224   27.5970 O   0  0  0  0  0  0
   63.9139   44.5498   29.4251 C   0  0  0  0  0  0
   62.4809   48.5423   34.5402 C   0  0  0  0  0  0
   61.6519   46.2727   35.2816 C   0  0  0  0  0  0
   65.4361   43.6791   34.3609 C   0  0  0  0  0  0
   66.5550   45.9349   33.8827 C   0  0  0  0  0  0
   62.8533   48.3354   26.7111 C   0  0  0  0  0  0
   64.0500   47.4911   26.2970 C   0  0  0  0  0  0
   65.2088   47.5182   27.2674 C   0  0  0  0  0  0
   61.6122   47.5511   32.2011 H   0  0  0  0  0  0
   65.2030   44.2536   31.6810 H   0  0  0  0  0  0
   64.0485   44.9420   36.0420 H   0  0  0  0  0  0
   65.5584   45.7235   36.3055 H   0  0  0  0  0  0
   63.7810   47.3288   36.5814 H   0  0  0  0  0  0
   64.7901   47.7659   35.2380 H   0  0  0  0  0  0
   59.6991   48.2464   28.5779 H   0  0  0  0  0  0
   60.8470   44.4694   30.1487 H   0  0  0  0  0  0
   58.5052   43.8417   30.5038 H   0  0  0  0  0  0
   57.3705   47.6232   28.9390 H   0  0  0  0  0  0
   56.0070   46.3132   28.1988 H   0  0  0  0  0  0
   64.0854   43.5010   29.6850 H   0  0  0  0  0  0
   63.0795   44.5627   28.7243 H   0  0  0  0  0  0
   64.8079   44.9311   28.9359 H   0  0  0  0  0  0
   62.2532   48.8761   35.5509 H   0  0  0  0  0  0
   63.2988   49.1486   34.1467 H   0  0  0  0  0  0
   61.6080   48.7476   33.9392 H   0  0  0  0  0  0
   61.1942   46.8408   36.0922 H   0  0  0  0  0  0
   60.8605   46.0498   34.5633 H   0  0  0  0  0  0
   61.9719   45.3415   35.7422 H   0  0  0  0  0  0
   66.0074   43.4775   35.2728 H   0  0  0  0  0  0
   64.4827   43.1529   34.4377 H   0  0  0  0  0  0
   65.9912   43.2458   33.5314 H   0  0  0  0  0  0
   67.3135   45.7600   34.6480 H   0  0  0  0  0  0
   66.9724   45.5804   32.9401 H   0  0  0  0  0  0
   66.4119   47.0116   33.7799 H   0  0  0  0  0  0
   62.3413   48.4766   25.7751 H   0  0  0  0  0  0
   63.1541   49.3051   27.0891 H   0  0  0  0  0  0
   63.6920   46.4788   26.1413 H   0  0  0  0  0  0
   64.4263   47.8609   25.3407 H   0  0  0  0  0  0
   66.0061   46.8761   26.9046 H   0  0  0  0  0  0
   65.6064   48.5297   27.3382 H   0  0  0  0  0  0
   64.9482   47.1619   28.2587 H   0  0  0  0  0  0
  1  2  2  0  0  0
  1  5  1  0  0  0
  1  8  1  0  0  0
  2  6  1  0  0  0
  2  9  1  0  0  0
  3  5  2  0  0  0
  3  4  1  0  0  0
  3  7  1  0  0  0
  4 11  2  0  0  0
  4 12  1  0  0  0
  5 31  1  0  0  0
  6  7  2  0  0  0
  6 32  1  0  0  0
  7 23  1  0  0  0
  8 15  1  0  0  0
  8 24  1  0  0  0
  8 25  1  0  0  0
  9 26  1  0  0  0
  9 27  1  0  0  0
  9 14  1  0  0  0
 10 13  1  0  0  0
 10 16  2  0  0  0
 10 21  1  0  0  0
 11 22  1  0  0  0
 12 17  2  0  0  0
 12 18  1  0  0  0
 13 19  1  0  0  0
 13 20  2  0  0  0
 14 15  1  0  0  0
 14 33  1  0  0  0
 14 34  1  0  0  0
 15 35  1  0  0  0
 15 36  1  0  0  0
 17 20  1  0  0  0
 17 37  1  0  0  0
 18 19  2  0  0  0
 18 38  1  0  0  0
 19 39  1  0  0  0
 20 40  1  0  0  0
 21 41  1  0  0  0
 22 28  1  0  0  0
 23 42  1  0  0  0
 23 43  1  0  0  0
 23 44  1  0  0  0
 24 45  1  0  0  0
 24 46  1  0  0  0
 24 47  1  0  0  0
 25 48  1  0  0  0
 25 49  1  0  0  0
 25 50  1  0  0  0
 26 51  1  0  0  0
 26 52  1  0  0  0
 26 53  1  0  0  0
 27 54  1  0  0  0
 27 55  1  0  0  0
 27 56  1  0  0  0
 28 29  1  0  0  0
 28 57  1  0  0  0
 28 58  1  0  0  0
 29 30  1  0  0  0
 29 59  1  0  0  0
 29 60  1  0  0  0
 30 61  1  0  0  0
 30 62  1  0  0  0
 30 63  1  0  0  0
M  END
> <s_m_entry_id>
31078

> <s_m_entry_name>
dock_pv.291

> <s_m_Source_Path>
/home/csk/Desktop/cluster/DUD-E-result/rxra

> <s_m_Source_File>
dock_pv.maegz

> <i_m_Source_File_Index>
291

> <chembl_id>
CHEMBL165734

> <chembl_pref_name>
None

> <i_lp_mmshare_version>
53161

> <r_lp_tautomer_probability>
1

> <s_lp_Force_Field>
OPLS_2005

> <r_lp_Energy>
35.902979

> <b_lp_Chiralities_Consistent>
1

> <s_lp_Variant>
CHEMBL2061_lig384-1

> <s_i_glide_gridfile>
glide-grid_1mv9

> <i_i_glide_lignum>
444

> <i_i_glide_rotatable_bonds>
7

> <r_i_docking_score>
-9.81417611196653

> <r_i_glide_ligand_efficiency>
-0.327139203732218

> <r_i_glide_ligand_efficiency_sa>
-1.01649756665617

> <r_i_glide_ligand_efficiency_ln>
-2.22988774665228

> <r_i_glide_gscore>
-9.81417611196653

> <r_i_glide_lipo>
-6.34080177055778

> <r_i_glide_hbond>
0

> <r_i_glide_metal>
0

> <r_i_glide_rewards>
-2.3322685364928

> <r_i_glide_evdw>
-32.747200012207

> <r_i_glide_ecoul>
-0.639796257019043

> <r_i_glide_erotb>
0.592223634247259

> <r_i_glide_esite>
0

> <r_i_glide_emodel>
-36.2457251923527

> <r_i_glide_energy>
-33.3869962692261

> <r_i_glide_einternal>
3.3703305721283

> <i_i_glide_confnum>
8

> <i_i_glide_posenum>
121

> <r_i_glide_eff_state_penalty>
0

> <s_user_duplicate_titles>
CHEMBL2061_lig384,272666

> <i_f3d_flags>
0

> <s_m_subgroup_title>
dock_pv

> <s_m_subgroupid>
dock_pv

> <b_m_subgroup_collapsed>
1

$$$$
CHEMBL2061_lig470
                    3D
 Schrodinger Suite 2021-1.
 48 49  0  0  1  0            999 V2000
   64.0966   45.5895   31.4291 C   0  0  0  0  0  0
   63.0409   46.3829   31.9161 C   0  0  0  0  0  0
   61.9722   46.7080   31.0627 C   0  0  0  0  0  0
   61.8940   46.2018   29.7607 C   0  0  0  0  0  0
   62.9455   45.3977   29.3010 C   0  0  0  0  0  0
   64.0341   45.1070   30.1178 C   0  0  0  0  0  0
   65.2964   45.1763   32.3022 C   0  0  0  0  0  0
   64.9498   43.9775   33.2042 C   0  0  0  0  0  0
   65.9522   46.3218   33.1052 C   0  0  0  0  0  0
   63.1007   46.7839   33.2339 O   0  0  0  0  0  0
   60.7771   46.5082   28.9367 N   0  0  0  0  0  0
   59.4186   46.1689   29.2345 C   0  0  0  0  0  0
   61.1123   46.8440   27.5269 C   0  0  0  0  0  0
   62.2375   47.8843   27.3435 C   0  0  0  0  0  0
   58.4708   46.3378   28.2717 N   0  0  0  0  0  0
   57.1670   46.0769   28.5393 C   0  0  0  0  0  0
   56.7221   45.5776   29.7605 C   0  0  0  0  0  0
   57.6918   45.3495   30.7471 C   0  0  0  0  0  0
   59.0275   45.6770   30.4919 C   0  0  0  0  0  0
   55.2455   45.4109   30.0090 C   0  0  0  0  0  0
   54.3992   46.0778   29.4158 O   0  0  0  0  0  0
   54.9252   44.4764   30.9413 O   0  0  0  0  0  0
   62.0108   47.4705   33.8417 C   0  0  0  0  0  0
   62.1626   47.3582   35.3609 C   0  0  0  0  0  0
   63.3382   47.8300   35.7783 F   0  0  0  0  0  0
   62.0665   46.0802   35.7388 F   0  0  0  0  0  0
   61.2111   48.0510   35.9872 F   0  0  0  0  0  0
   61.1787   47.3527   31.4028 H   0  0  0  0  0  0
   62.9214   44.9834   28.3044 H   0  0  0  0  0  0
   64.8241   44.4765   29.7336 H   0  0  0  0  0  0
   66.0758   44.8394   31.6160 H   0  0  0  0  0  0
   64.5507   43.1454   32.6219 H   0  0  0  0  0  0
   65.8314   43.6123   33.7350 H   0  0  0  0  0  0
   64.1996   44.2452   33.9500 H   0  0  0  0  0  0
   66.0125   47.2469   32.5337 H   0  0  0  0  0  0
   65.4081   46.5463   34.0230 H   0  0  0  0  0  0
   66.9647   46.0568   33.4067 H   0  0  0  0  0  0
   61.3655   45.9279   26.9922 H   0  0  0  0  0  0
   60.2545   47.2550   26.9945 H   0  0  0  0  0  0
   62.3957   48.0821   26.2849 H   0  0  0  0  0  0
   61.9790   48.8314   27.8209 H   0  0  0  0  0  0
   63.1932   47.5540   27.7449 H   0  0  0  0  0  0
   56.4686   46.2728   27.7386 H   0  0  0  0  0  0
   57.4215   45.0150   31.7374 H   0  0  0  0  0  0
   59.7317   45.5971   31.2975 H   0  0  0  0  0  0
   55.7029   43.9943   31.2309 H   0  0  0  0  0  0
   61.0502   47.0315   33.5677 H   0  0  0  0  0  0
   62.0186   48.5156   33.5302 H   0  0  0  0  0  0
  1  2  2  0  0  0
  1  7  1  0  0  0
  1  6  1  0  0  0
  2 10  1  0  0  0
  2  3  1  0  0  0
  3  4  2  0  0  0
  3 28  1  0  0  0
  4  5  1  0  0  0
  4 11  1  0  0  0
  5  6  2  0  0  0
  5 29  1  0  0  0
  6 30  1  0  0  0
  7  8  1  0  0  0
  7  9  1  0  0  0
  7 31  1  0  0  0
  8 32  1  0  0  0
  8 33  1  0  0  0
  8 34  1  0  0  0
  9 35  1  0  0  0
  9 36  1  0  0  0
  9 37  1  0  0  0
 10 23  1  0  0  0
 11 12  1  0  0  0
 11 13  1  0  0  0
 12 15  2  0  0  0
 12 19  1  0  0  0
 13 14  1  0  0  0
 13 38  1  0  0  0
 13 39  1  0  0  0
 14 40  1  0  0  0
 14 41  1  0  0  0
 14 42  1  0  0  0
 15 16  1  0  0  0
 16 17  2  0  0  0
 16 43  1  0  0  0
 17 18  1  0  0  0
 17 20  1  0  0  0
 18 19  2  0  0  0
 18 44  1  0  0  0
 19 45  1  0  0  0
 20 21  2  0  0  0
 20 22  1  0  0  0
 22 46  1  0  0  0
 23 24  1  0  0  0
 23 47  1  0  0  0
 23 48  1  0  0  0
 24 25  1  0  0  0
 24 26  1  0  0  0
 24 27  1  0  0  0
M  END
> <s_m_entry_id>
31080

> <s_m_entry_name>
dock_pv.293

> <s_m_Source_Path>
/home/csk/Desktop/cluster/DUD-E-result/rxra

> <s_m_Source_File>
dock_pv.maegz

> <i_m_Source_File_Index>
293

> <chembl_id>
CHEMBL1688387

> <chembl_pref_name>
None

> <i_lp_mmshare_version>
53161

> <r_lp_tautomer_probability>
1

> <s_lp_Force_Field>
OPLS_2005

> <r_lp_Energy>
20.307913

> <b_lp_Chiralities_Consistent>
1

> <s_lp_Variant>
CHEMBL2061_lig470-1

> <s_i_glide_gridfile>
glide-grid_1mv9

> <i_i_glide_lignum>
559

> <i_i_glide_rotatable_bonds>
9

> <r_i_docking_score>
-9.79843516012216

> <r_i_glide_ligand_efficiency>
-0.36290500593045

> <r_i_glide_ligand_efficiency_sa>
-1.08871501659528

> <r_i_glide_ligand_efficiency_ln>
-2.2809141654478

> <r_i_glide_gscore>
-9.79843516012216

> <r_i_glide_lipo>
-5.25961099941033

> <r_i_glide_hbond>
0

> <r_i_glide_metal>
0

> <r_i_glide_rewards>
-2.45577978080578

> <r_i_glide_evdw>
-47.5639762878418

> <r_i_glide_ecoul>
-2.45988750457764

> <r_i_glide_erotb>
0.664137560172682

> <r_i_glide_esite>
0

> <r_i_glide_emodel>
-75.1809468651828

> <r_i_glide_energy>
-50.0238637924194

> <r_i_glide_einternal>
5.83273506164551

> <i_i_glide_confnum>
17

> <i_i_glide_posenum>
27

> <r_i_glide_eff_state_penalty>
0

> <s_user_duplicate_titles>
CHEMBL2061_lig470

> <i_f3d_flags>
0

> <s_m_subgroup_title>
dock_pv

> <s_m_subgroupid>
dock_pv

> <b_m_subgroup_collapsed>
1

$$$$
CHEMBL2061_lig509
                    3D
 Schrodinger Suite 2021-1.
 47 48  0  0  1  0            999 V2000
   62.9412   46.4203   30.7528 C   0  0  0  0  0  0
   61.9884   47.0755   30.0359 C   0  0  0  0  0  0
   61.8208   47.1521   28.5821 C   0  0  0  0  0  0
   60.5864   47.1361   28.0271 C   0  0  0  0  0  0
   63.0180   47.3693   27.6647 C   0  0  0  0  0  0
   59.3090   46.9283   28.6931 C   0  0  0  0  0  0
   59.0094   45.8758   29.4813 C   0  0  0  0  0  0
   57.7055   45.6476   30.0932 C   0  0  0  0  0  0
   56.5869   45.8361   29.3391 C   0  0  0  0  0  0
   57.6983   45.2784   31.5727 C   0  0  0  0  0  0
   55.2078   45.6760   29.7368 C   0  0  0  0  0  0
   54.9991   44.5985   30.5436 O   0  0  0  0  0  0
   54.3035   46.4115   29.3425 O   0  0  0  0  0  0
   63.9337   45.4945   30.0289 C   0  0  0  0  0  0
   64.7081   44.4942   30.9077 C   0  0  0  0  0  0
   65.4491   46.4988   32.3852 C   0  0  0  0  0  0
   65.8170   45.1472   31.7546 C   0  0  0  0  0  0
   62.8968   46.4771   32.2551 C   0  0  0  0  0  0
   64.0738   46.5534   33.0411 C   0  0  0  0  0  0
   63.9723   46.6579   34.4337 C   0  0  0  0  0  0
   62.7329   46.7001   35.0633 C   0  0  0  0  0  0
   61.5721   46.6250   34.3041 C   0  0  0  0  0  0
   61.6567   46.5162   32.9186 C   0  0  0  0  0  0
   61.2578   47.6441   30.5922 H   0  0  0  0  0  0
   60.5239   47.2656   26.9557 H   0  0  0  0  0  0
   63.7266   48.0473   28.1391 H   0  0  0  0  0  0
   63.5351   46.4362   27.4476 H   0  0  0  0  0  0
   62.7382   47.8528   26.7271 H   0  0  0  0  0  0
   58.5494   47.6768   28.5390 H   0  0  0  0  0  0
   59.7803   45.1410   29.6694 H   0  0  0  0  0  0
   56.6771   46.1523   28.3097 H   0  0  0  0  0  0
   58.4396   45.8899   32.0874 H   0  0  0  0  0  0
   56.7634   45.5049   32.0834 H   0  0  0  0  0  0
   58.0071   44.2435   31.7244 H   0  0  0  0  0  0
   55.8266   44.1328   30.6817 H   0  0  0  0  0  0
   63.3630   44.9155   29.3009 H   0  0  0  0  0  0
   64.6543   46.0913   29.4690 H   0  0  0  0  0  0
   64.0089   43.9624   31.5558 H   0  0  0  0  0  0
   65.1564   43.7265   30.2752 H   0  0  0  0  0  0
   66.2203   46.7735   33.1071 H   0  0  0  0  0  0
   65.4853   47.2768   31.6260 H   0  0  0  0  0  0
   66.1075   44.4685   32.5548 H   0  0  0  0  0  0
   66.7084   45.2786   31.1388 H   0  0  0  0  0  0
   64.8665   46.7113   35.0376 H   0  0  0  0  0  0
   62.6754   46.7887   36.1379 H   0  0  0  0  0  0
   60.6061   46.6518   34.7867 H   0  0  0  0  0  0
   60.7347   46.4513   32.3612 H   0  0  0  0  0  0
  1  2  2  0  0  0
  1 14  1  0  0  0
  1 18  1  0  0  0
  2  3  1  0  0  0
  2 24  1  0  0  0
  3  4  2  0  0  0
  3  5  1  0  0  0
  4  6  1  0  0  0
  4 25  1  0  0  0
  5 26  1  0  0  0
  5 27  1  0  0  0
  5 28  1  0  0  0
  6  7  2  0  0  0
  6 29  1  0  0  0
  7  8  1  0  0  0
  7 30  1  0  0  0
  8  9  2  0  0  0
  8 10  1  0  0  0
  9 11  1  0  0  0
  9 31  1  0  0  0
 10 32  1  0  0  0
 10 33  1  0  0  0
 10 34  1  0  0  0
 11 12  1  0  0  0
 11 13  2  0  0  0
 12 35  1  0  0  0
 14 15  1  0  0  0
 14 36  1  0  0  0
 14 37  1  0  0  0
 15 17  1  0  0  0
 15 38  1  0  0  0
 15 39  1  0  0  0
 16 19  1  0  0  0
 16 17  1  0  0  0
 16 40  1  0  0  0
 16 41  1  0  0  0
 17 42  1  0  0  0
 17 43  1  0  0  0
 18 19  2  0  0  0
 18 23  1  0  0  0
 19 20  1  0  0  0
 20 21  2  0  0  0
 20 44  1  0  0  0
 21 22  1  0  0  0
 21 45  1  0  0  0
 22 23  2  0  0  0
 22 46  1  0  0  0
 23 47  1  0  0  0
M  END
> <s_m_entry_id>
31081

> <s_m_entry_name>
dock_pv.294

> <s_m_Source_Path>
/home/csk/Desktop/cluster/DUD-E-result/rxra

> <s_m_Source_File>
dock_pv.maegz

> <i_m_Source_File_Index>
294

> <chembl_id>
CHEMBL3622719

> <chembl_pref_name>
None

> <i_lp_mmshare_version>
53161

> <r_lp_tautomer_probability>
1

> <s_lp_Force_Field>
OPLS_2005

> <r_lp_Energy>
27.335716

> <b_lp_Chiralities_Consistent>
1

> <s_lp_Variant>
CHEMBL2061_lig509-1

> <s_i_glide_gridfile>
glide-grid_1mv9

> <i_i_glide_lignum>
602

> <i_i_glide_rotatable_bonds>
5

> <r_i_docking_score>
-9.79681954802013

> <r_i_glide_ligand_efficiency>
-0.425948676000875

> <r_i_glide_ligand_efficiency_sa>
-1.21134137352433

> <r_i_glide_ligand_efficiency_ln>
-2.36895979935956

> <r_i_glide_gscore>
-9.79681954802013

> <r_i_glide_lipo>
-5.91420347849503

> <r_i_glide_hbond>
0

> <r_i_glide_metal>
0

> <r_i_glide_rewards>
-2.22544273748009

> <r_i_glide_evdw>
-41.7814979553223

> <r_i_glide_ecoul>
-2.30746173858643

> <r_i_glide_erotb>
0.778020826509068

> <r_i_glide_esite>
0

> <r_i_glide_emodel>
-65.6546948453018

> <r_i_glide_energy>
-44.0889596939087

> <r_i_glide_einternal>
8.02109909057617

> <i_i_glide_confnum>
178

> <i_i_glide_posenum>
335

> <r_i_glide_eff_state_penalty>
0

> <s_user_duplicate_titles>
CHEMBL2061_lig509

> <i_f3d_flags>
0

> <s_m_subgroup_title>
dock_pv

> <s_m_subgroupid>
dock_pv

> <b_m_subgroup_collapsed>
1

$$$$
CHEMBL2061_lig140
                    3D
 Schrodinger Suite 2021-1.
 58 58  0  0  1  0            999 V2000
   63.6511   45.9579   30.9066 C   0  0  0  0  0  0
   62.6592   46.9407   30.7050 C   0  0  0  0  0  0
   64.0812   45.6344   32.2080 C   0  0  0  0  0  0
   62.1194   47.5874   31.8270 C   0  0  0  0  0  0
   63.5140   46.2900   33.2960 C   0  0  0  0  0  0
   62.5579   47.2831   33.1225 C   0  0  0  0  0  0
   62.4414   44.0671   28.6520 C   0  0  0  0  0  0
   64.2040   45.3152   29.8265 O   0  0  0  0  0  0
   62.1764   47.3000   29.3379 C   0  0  0  0  0  0
   56.2014   46.0599   29.2534 C   0  0  0  0  0  0
   54.9027   45.6783   29.7412 C   0  0  0  0  0  0
   59.7917   46.6283   29.7077 C   0  0  0  0  0  0
   57.3868   45.9699   29.9083 C   0  0  0  0  0  0
   60.8890   47.1840   28.9348 C   0  0  0  0  0  0
   58.5519   46.4973   29.2013 C   0  0  0  0  0  0
   63.6620   44.0255   29.5638 C   0  0  0  0  0  0
   53.9010   46.3611   29.5647 O   0  0  0  0  0  0
   65.1542   44.5788   32.4919 C   0  0  0  0  0  0
   62.5389   44.9312   27.6460 F   0  0  0  0  0  0
   62.2916   42.8768   28.1098 F   0  0  0  0  0  0
   61.3478   44.3429   29.3390 F   0  0  0  0  0  0
   62.0183   48.0416   34.3337 C   0  0  0  0  0  0
   54.8889   44.4777   30.3752 O   0  0  0  0  0  0
   63.2064   47.8270   28.3447 C   0  0  0  0  0  0
   57.5244   45.4393   31.3402 C   0  0  0  0  0  0
   64.5533   43.3630   33.2417 C   0  0  0  0  0  0
   66.3627   45.1946   33.2326 C   0  0  0  0  0  0
   63.0741   48.3190   35.4292 C   0  0  0  0  0  0
   60.8019   47.3416   34.9413 C   0  0  0  0  0  0
   61.3746   48.3563   31.6878 H   0  0  0  0  0  0
   63.8394   46.0205   34.2883 H   0  0  0  0  0  0
   56.1514   46.4845   28.2618 H   0  0  0  0  0  0
   59.9935   46.3058   30.7176 H   0  0  0  0  0  0
   60.6572   47.5086   27.9300 H   0  0  0  0  0  0
   58.4181   46.8205   28.1775 H   0  0  0  0  0  0
   64.4071   43.4469   29.0442 H   0  0  0  0  0  0
   63.4623   43.4509   30.4680 H   0  0  0  0  0  0
   65.5423   44.2231   31.5394 H   0  0  0  0  0  0
   61.7094   49.0217   33.9727 H   0  0  0  0  0  0
   55.7644   44.0860   30.3566 H   0  0  0  0  0  0
   64.1479   47.2786   28.3852 H   0  0  0  0  0  0
   62.8437   47.7683   27.3169 H   0  0  0  0  0  0
   63.3993   48.8744   28.5368 H   0  0  0  0  0  0
   58.1993   46.0727   31.9116 H   0  0  0  0  0  0
   56.5983   45.4839   31.9134 H   0  0  0  0  0  0
   57.9381   44.4294   31.3513 H   0  0  0  0  0  0
   63.6202   43.0177   32.7859 H   0  0  0  0  0  0
   65.2395   42.5155   33.2624 H   0  0  0  0  0  0
   64.3220   43.6096   34.2777 H   0  0  0  0  0  0
   66.7635   46.0574   32.6978 H   0  0  0  0  0  0
   66.1027   45.5251   34.2378 H   0  0  0  0  0  0
   67.1787   44.4878   33.3375 H   0  0  0  0  0  0
   63.9182   48.8878   35.0371 H   0  0  0  0  0  0
   62.6330   48.8841   36.2456 H   0  0  0  0  0  0
   63.4659   47.4081   35.8835 H   0  0  0  0  0  0
   60.1355   46.9169   34.1868 H   0  0  0  0  0  0
   61.0887   46.5247   35.6064 H   0  0  0  0  0  0
   60.2442   48.0762   35.5238 H   0  0  0  0  0  0
  1  2  1  0  0  0
  1  3  2  0  0  0
  1  8  1  0  0  0
  2  4  2  0  0  0
  2  9  1  0  0  0
  3  5  1  0  0  0
  3 18  1  0  0  0
  4  6  1  0  0  0
  4 30  1  0  0  0
  5  6  2  0  0  0
  5 31  1  0  0  0
  6 22  1  0  0  0
  7 16  1  0  0  0
  7 19  1  0  0  0
  7 20  1  0  0  0
  7 21  1  0  0  0
  8 16  1  0  0  0
  9 14  2  0  0  0
  9 24  1  0  0  0
 10 13  2  0  0  0
 10 11  1  0  0  0
 10 32  1  0  0  0
 11 17  2  0  0  0
 11 23  1  0  0  0
 12 14  1  0  0  0
 12 15  2  0  0  0
 12 33  1  0  0  0
 13 15  1  0  0  0
 13 25  1  0  0  0
 14 34  1  0  0  0
 15 35  1  0  0  0
 16 36  1  0  0  0
 16 37  1  0  0  0
 18 26  1  0  0  0
 18 27  1  0  0  0
 18 38  1  0  0  0
 22 28  1  0  0  0
 22 29  1  0  0  0
 22 39  1  0  0  0
 23 40  1  0  0  0
 24 41  1  0  0  0
 24 42  1  0  0  0
 24 43  1  0  0  0
 25 44  1  0  0  0
 25 45  1  0  0  0
 25 46  1  0  0  0
 26 47  1  0  0  0
 26 48  1  0  0  0
 26 49  1  0  0  0
 27 50  1  0  0  0
 27 51  1  0  0  0
 27 52  1  0  0  0
 28 53  1  0  0  0
 28 54  1  0  0  0
 28 55  1  0  0  0
 29 56  1  0  0  0
 29 57  1  0  0  0
 29 58  1  0  0  0
M  END
> <s_m_entry_id>
31082

> <s_m_entry_name>
dock_pv.295

> <s_m_Source_Path>
/home/csk/Desktop/cluster/DUD-E-result/rxra

> <s_m_Source_File>
dock_pv.maegz

> <i_m_Source_File_Index>
295

> <chembl_id>
CHEMBL423503

> <chembl_pref_name>
None

> <i_lp_mmshare_version>
53161

> <r_lp_tautomer_probability>
1

> <s_lp_Force_Field>
OPLS_2005

> <r_lp_Energy>
25.900003

> <b_lp_Chiralities_Consistent>
1

> <s_lp_Variant>
CHEMBL2061_lig140-1

> <s_i_glide_gridfile>
glide-grid_1mv9

> <i_i_glide_lignum>
179

> <i_i_glide_rotatable_bonds>
10

> <r_i_docking_score>
-9.79189605105835

> <r_i_glide_ligand_efficiency>
-0.337651587967529

> <r_i_glide_ligand_efficiency_sa>
-1.0373726537678

> <r_i_glide_ligand_efficiency_ln>
-2.24209589463251

> <r_i_glide_gscore>
-9.79189605105835

> <r_i_glide_lipo>
-5.83316883998318

> <r_i_glide_hbond>
-0.181991755323226

> <r_i_glide_metal>
0

> <r_i_glide_rewards>
-2.03007830990999

> <r_i_glide_evdw>
-38.6800384521484

> <r_i_glide_ecoul>
-3.42811560630798

> <r_i_glide_erotb>
0.701562117711672

> <r_i_glide_esite>
0

> <r_i_glide_emodel>
-61.5075698842801

> <r_i_glide_energy>
-42.1081540584564

> <r_i_glide_einternal>
3.20177745819092

> <i_i_glide_confnum>
51

> <i_i_glide_posenum>
399

> <r_i_glide_eff_state_penalty>
0

> <s_user_duplicate_titles>
CHEMBL2061_lig140,147191

> <i_f3d_flags>
0

> <s_m_subgroup_title>
dock_pv

> <s_m_subgroupid>
dock_pv

> <b_m_subgroup_collapsed>
1

$$$$
CHEMBL2061_lig327
                    3D
 Schrodinger Suite 2021-1.
 61 63  0  0  1  0            999 V2000
   61.2923   47.2919   28.3743 C   0  0  1  0  0  0
   59.9505   46.6651   27.9774 C   0  0  2  0  0  0
   59.9940   48.0859   28.4406 C   0  0  0  0  0  0
   62.0483   46.7049   29.5878 C   0  0  0  0  0  0
   62.6806   46.8384   31.9730 C   0  0  0  0  0  0
   63.5709   45.7388   31.7979 C   0  0  0  0  0  0
   61.9670   47.3048   30.8460 C   0  0  0  0  0  0
   63.6061   45.1241   30.5380 C   0  0  0  0  0  0
   62.8219   45.5437   29.4682 C   0  0  0  0  0  0
   59.2070   45.7721   28.9482 C   0  0  0  0  0  0
   64.5243   45.2282   32.9175 C   0  0  0  0  0  0
   62.3976   47.4271   33.3830 C   0  0  0  0  0  0
   55.8746   44.8567   30.4002 C   0  0  0  0  0  0
   57.8760   45.7902   29.1722 C   0  0  0  0  0  0
   57.2061   44.9750   30.1960 C   0  0  0  0  0  0
   63.5854   47.1539   34.3454 C   0  0  0  0  0  0
   64.0562   45.7008   34.3204 C   0  0  0  0  0  0
   62.1884   47.7477   27.2011 C   0  0  0  0  0  0
   62.7787   44.6631   28.2297 C   0  0  0  0  0  0
   62.2149   48.9678   33.3823 C   0  0  0  0  0  0
   61.1265   46.7138   33.9104 C   0  0  0  0  0  0
   64.5603   43.6731   33.0014 C   0  0  0  0  0  0
   65.9262   45.8198   32.6276 C   0  0  0  0  0  0
   58.0647   44.1760   31.1427 C   0  0  0  0  0  0
   54.7521   45.4647   29.7396 C   0  0  0  0  0  0
   55.0411   46.2630   28.6783 O   0  0  0  0  0  0
   53.6081   45.2727   30.1372 O   0  0  0  0  0  0
   59.7909   46.4628   26.9239 H   0  0  0  0  0  0
   59.7622   48.8714   27.7390 H   0  0  0  0  0  0
   59.4746   48.3256   29.3389 H   0  0  0  0  0  0
   61.2820   48.1301   30.9413 H   0  0  0  0  0  0
   64.2503   44.2772   30.3758 H   0  0  0  0  0  0
   59.8593   45.1154   29.5006 H   0  0  0  0  0  0
   55.5451   44.2060   31.1978 H   0  0  0  0  0  0
   57.3186   46.4731   28.5564 H   0  0  0  0  0  0
   64.4381   47.7868   34.0955 H   0  0  0  0  0  0
   63.3161   47.4304   35.3657 H   0  0  0  0  0  0
   64.8575   45.5686   35.0496 H   0  0  0  0  0  0
   63.2483   45.0708   34.6897 H   0  0  0  0  0  0
   61.6821   48.4517   26.5501 H   0  0  0  0  0  0
   63.0665   48.2724   27.5777 H   0  0  0  0  0  0
   62.5419   46.9398   26.5696 H   0  0  0  0  0  0
   63.3027   43.7179   28.3806 H   0  0  0  0  0  0
   61.7481   44.4222   27.9762 H   0  0  0  0  0  0
   63.2078   45.1603   27.3723 H   0  0  0  0  0  0
   61.6159   49.2651   34.2334 H   0  0  0  0  0  0
   63.1445   49.5107   33.5224 H   0  0  0  0  0  0
   61.6642   49.3734   32.5295 H   0  0  0  0  0  0
   60.8396   47.0704   34.9020 H   0  0  0  0  0  0
   60.2745   46.8680   33.2478 H   0  0  0  0  0  0
   61.2498   45.6371   33.9804 H   0  0  0  0  0  0
   65.3024   43.3449   33.7324 H   0  0  0  0  0  0
   63.6105   43.2497   33.3172 H   0  0  0  0  0  0
   64.8135   43.1839   32.0649 H   0  0  0  0  0  0
   66.6427   45.5624   33.4093 H   0  0  0  0  0  0
   66.3305   45.4341   31.6903 H   0  0  0  0  0  0
   65.9074   46.9070   32.5431 H   0  0  0  0  0  0
   58.8147   43.6774   30.5435 H   0  0  0  0  0  0
   58.5517   44.8747   31.8272 H   0  0  0  0  0  0
   57.6079   43.3518   31.6793 H   0  0  0  0  0  0
   54.2456   46.6123   28.2784 H   0  0  0  0  0  0
  1  2  1  0  0  0
  1  3  1  0  0  0
  1  4  1  0  0  0
  1 18  1  0  0  0
  2 10  1  0  0  0
  2  3  1  0  0  0
  2 28  1  0  0  0
  3 29  1  0  0  0
  3 30  1  0  0  0
  4  7  2  0  0  0
  4  9  1  0  0  0
  5  7  1  0  0  0
  5 12  1  0  0  0
  5  6  2  0  0  0
  6  8  1  0  0  0
  6 11  1  0  0  0
  7 31  1  0  0  0
  8  9  2  0  0  0
  8 32  1  0  0  0
  9 19  1  0  0  0
 10 14  2  0  0  0
 10 33  1  0  0  0
 11 17  1  0  0  0
 11 22  1  0  0  0
 11 23  1  0  0  0
 12 16  1  0  0  0
 12 20  1  0  0  0
 12 21  1  0  0  0
 13 15  2  0  0  0
 13 25  1  0  0  0
 13 34  1  0  0  0
 14 15  1  0  0  0
 14 35  1  0  0  0
 15 24  1  0  0  0
 16 17  1  0  0  0
 16 36  1  0  0  0
 16 37  1  0  0  0
 17 38  1  0  0  0
 17 39  1  0  0  0
 18 40  1  0  0  0
 18 41  1  0  0  0
 18 42  1  0  0  0
 19 43  1  0  0  0
 19 44  1  0  0  0
 19 45  1  0  0  0
 20 46  1  0  0  0
 20 47  1  0  0  0
 20 48  1  0  0  0
 21 49  1  0  0  0
 21 50  1  0  0  0
 21 51  1  0  0  0
 22 52  1  0  0  0
 22 53  1  0  0  0
 22 54  1  0  0  0
 23 55  1  0  0  0
 23 56  1  0  0  0
 23 57  1  0  0  0
 24 58  1  0  0  0
 24 59  1  0  0  0
 24 60  1  0  0  0
 25 26  1  0  0  0
 25 27  2  0  0  0
 26 61  1  0  0  0
M  END
> <s_m_entry_id>
31083

> <s_m_entry_name>
dock_pv.296

> <s_m_Source_Path>
/home/csk/Desktop/cluster/DUD-E-result/rxra

> <s_m_Source_File>
dock_pv.maegz

> <i_m_Source_File_Index>
296

> <chembl_id>
CHEMBL2111534

> <chembl_pref_name>
None

> <i_lp_mmshare_version>
53161

> <r_lp_tautomer_probability>
1

> <s_lp_Force_Field>
OPLS_2005

> <r_lp_Energy>
29.991987

> <b_lp_Chiralities_Consistent>
1

> <s_lp_Variant>
CHEMBL2061_lig327-3

> <s_i_glide_gridfile>
glide-grid_1mv9

> <i_i_glide_lignum>
386

> <i_i_glide_rotatable_bonds>
5

> <r_i_docking_score>
-9.78858956612571

> <r_i_glide_ligand_efficiency>
-0.362540354300952

> <r_i_glide_ligand_efficiency_sa>
-1.08762106170798

> <r_i_glide_ligand_efficiency_ln>
-2.27862227348273

> <r_i_glide_gscore>
-9.78858956612571

> <r_i_glide_lipo>
-6.09340049320946

> <r_i_glide_hbond>
-0.249218208927637

> <r_i_glide_metal>
0

> <r_i_glide_rewards>
-2.08794752387898

> <r_i_glide_evdw>
-33.533504486084

> <r_i_glide_ecoul>
-1.69626200199127

> <r_i_glide_erotb>
0.573091184493258

> <r_i_glide_esite>
0

> <r_i_glide_emodel>
-48.7225533454721

> <r_i_glide_energy>
-35.2297664880753

> <r_i_glide_einternal>
9.58589172363281

> <i_i_glide_confnum>
2

> <i_i_glide_posenum>
304

> <r_i_glide_eff_state_penalty>
0

> <s_user_duplicate_titles>
CHEMBL2061_lig327,CHEMBL2061_lig325

> <i_f3d_flags>
0

> <s_m_subgroup_title>
dock_pv

> <s_m_subgroupid>
dock_pv

> <b_m_subgroup_collapsed>
1

$$$$
CHEMBL2061_lig54
                    3D
 Schrodinger Suite 2021-1.
 52 53  0  0  1  0            999 V2000
   63.0385   45.9383   31.7259 C   0  0  0  0  0  0
   64.0099   45.0062   31.9802 C   0  0  0  0  0  0
   62.7594   47.0783   32.6563 C   0  0  0  0  0  0
   63.4683   46.9735   33.9571 C   0  0  0  0  0  0
   64.8521   45.0257   33.2018 C   0  0  0  0  0  0
   64.4215   46.0317   34.2018 C   0  0  0  0  0  0
   62.1240   45.8894   30.4768 C   0  0  2  0  0  0
   62.0097   48.0227   32.3889 O   0  0  0  0  0  0
   65.8104   44.2680   33.3812 O   0  0  0  0  0  0
   55.0549   44.7418   29.8589 C   0  0  0  0  0  0
   62.6456   46.7520   29.3147 C   0  0  0  0  0  0
   54.0081   44.1658   30.1388 O   0  0  0  0  0  0
   64.3656   43.8083   31.0782 C   0  0  0  0  0  0
   62.9896   48.0082   34.9858 C   0  0  0  0  0  0
   65.1773   45.8776   35.5196 C   0  0  0  0  0  0
   55.5354   44.8773   28.5957 O   0  0  0  0  0  0
   60.6072   46.0510   30.7692 C   0  0  0  0  0  0
   55.9331   45.4140   30.9146 C   0  0  0  0  0  0
   63.9069   46.4767   28.7747 C   0  0  0  0  0  0
   61.8870   47.7950   28.7646 C   0  0  0  0  0  0
   59.7240   45.3999   29.6920 C   0  0  0  0  0  0
   57.4480   45.0850   30.8719 C   0  0  0  0  0  0
   58.2355   45.7632   29.7285 C   0  0  0  0  0  0
   62.3867   48.5547   27.7217 C   0  0  0  0  0  0
   64.4080   47.2571   27.7374 C   0  0  0  0  0  0
   63.6491   48.2877   27.2118 C   0  0  0  0  0  0
   62.1612   44.8790   30.0875 H   0  0  0  0  0  0
   64.3626   42.8746   31.6443 H   0  0  0  0  0  0
   63.7192   43.6333   30.2250 H   0  0  0  0  0  0
   65.3659   43.9478   30.6664 H   0  0  0  0  0  0
   61.9031   48.1188   34.9721 H   0  0  0  0  0  0
   63.2404   47.7675   36.0154 H   0  0  0  0  0  0
   63.4297   48.9803   34.7574 H   0  0  0  0  0  0
   66.2353   46.0767   35.3419 H   0  0  0  0  0  0
   64.8314   46.4957   36.3391 H   0  0  0  0  0  0
   65.0821   44.8618   35.8861 H   0  0  0  0  0  0
   55.0682   44.2901   27.9935 H   0  0  0  0  0  0
   60.4080   47.1058   30.8440 H   0  0  0  0  0  0
   60.3448   45.6774   31.7566 H   0  0  0  0  0  0
   55.7632   46.4770   30.8419 H   0  0  0  0  0  0
   55.5377   45.1224   31.8863 H   0  0  0  0  0  0
   64.5195   45.6795   29.1643 H   0  0  0  0  0  0
   60.9067   48.0607   29.1214 H   0  0  0  0  0  0
   59.8394   44.3191   29.7499 H   0  0  0  0  0  0
   60.1021   45.6773   28.7072 H   0  0  0  0  0  0
   57.8880   45.3998   31.8196 H   0  0  0  0  0  0
   57.5920   44.0031   30.8300 H   0  0  0  0  0  0
   57.8330   45.4602   28.7654 H   0  0  0  0  0  0
   58.1155   46.8464   29.7585 H   0  0  0  0  0  0
   61.7950   49.3699   27.3390 H   0  0  0  0  0  0
   65.3924   47.0562   27.3391 H   0  0  0  0  0  0
   64.0566   48.8770   26.4085 H   0  0  0  0  0  0
  1  2  2  0  0  0
  1  3  1  0  0  0
  1  7  1  0  0  0
  2  5  1  0  0  0
  2 13  1  0  0  0
  3  4  1  0  0  0
  3  8  2  0  0  0
  4  6  2  0  0  0
  4 14  1  0  0  0
  5  9  2  0  0  0
  5  6  1  0  0  0
  6 15  1  0  0  0
  7 11  1  0  0  0
  7 17  1  0  0  0
  7 27  1  0  0  0
 10 18  1  0  0  0
 10 12  2  0  0  0
 10 16  1  0  0  0
 11 19  1  0  0  0
 11 20  2  0  0  0
 13 28  1  0  0  0
 13 29  1  0  0  0
 13 30  1  0  0  0
 14 31  1  0  0  0
 14 32  1  0  0  0
 14 33  1  0  0  0
 15 34  1  0  0  0
 15 35  1  0  0  0
 15 36  1  0  0  0
 16 37  1  0  0  0
 17 21  1  0  0  0
 17 38  1  0  0  0
 17 39  1  0  0  0
 18 22  1  0  0  0
 18 40  1  0  0  0
 18 41  1  0  0  0
 19 25  2  0  0  0
 19 42  1  0  0  0
 20 24  1  0  0  0
 20 43  1  0  0  0
 21 23  1  0  0  0
 21 44  1  0  0  0
 21 45  1  0  0  0
 22 23  1  0  0  0
 22 46  1  0  0  0
 22 47  1  0  0  0
 23 48  1  0  0  0
 23 49  1  0  0  0
 24 26  2  0  0  0
 24 50  1  0  0  0
 25 26  1  0  0  0
 25 51  1  0  0  0
 26 52  1  0  0  0
M  END
> <s_m_entry_id>
31084

> <s_m_entry_name>
dock_pv.297

> <s_m_Source_Path>
/home/csk/Desktop/cluster/DUD-E-result/rxra

> <s_m_Source_File>
dock_pv.maegz

> <i_m_Source_File_Index>
297

> <chembl_id>
CHEMBL70972

> <chembl_pref_name>
SERATRODAST

> <i_lp_mmshare_version>
53161

> <r_lp_tautomer_probability>
1

> <s_lp_Force_Field>
OPLS_2005

> <r_lp_Energy>
12.849648

> <b_lp_Chiralities_Consistent>
1

> <s_lp_Variant>
CHEMBL2061_lig54-1

> <s_i_glide_gridfile>
glide-grid_1mv9

> <i_i_glide_lignum>
75

> <i_i_glide_rotatable_bonds>
9

> <r_i_docking_score>
-9.78732391500052

> <r_i_glide_ligand_efficiency>
-0.376435535192328

> <r_i_glide_ligand_efficiency_sa>
-1.11518879180496

> <r_i_glide_ligand_efficiency_ln>
-2.2985209066087

> <r_i_glide_gscore>
-9.78732391500052

> <r_i_glide_lipo>
-4.95100172955744

> <r_i_glide_hbond>
-0.308916318982429

> <r_i_glide_metal>
0

> <r_i_glide_rewards>
-2.75816224201749

> <r_i_glide_evdw>
-42.0463180541992

> <r_i_glide_ecoul>
-5.89186954498291

> <r_i_glide_erotb>
1.21685271001424

> <r_i_glide_esite>
0

> <r_i_glide_emodel>
-70.4256528271696

> <r_i_glide_energy>
-47.9381875991821

> <r_i_glide_einternal>
10.0842056274414

> <i_i_glide_confnum>
135

> <i_i_glide_posenum>
264

> <r_i_glide_eff_state_penalty>
0

> <s_user_duplicate_titles>
CHEMBL2061_lig54

> <i_f3d_flags>
0

> <s_m_subgroup_title>
dock_pv

> <s_m_subgroupid>
dock_pv

> <b_m_subgroup_collapsed>
1

$$$$
CHEMBL2061_lig573
                    3D
 Schrodinger Suite 2021-1.
 31 33  0  0  1  0            999 V2000
   55.3492   45.1110   29.3627 N   0  0  0  0  0  0
   57.5484   45.7335   29.2920 C   0  0  0  0  0  0
   55.6212   44.7016   30.5818 C   0  0  0  0  0  0
   56.2761   45.6770   28.6106 C   0  0  0  0  0  0
   57.3662   45.0182   30.9022 S   0  0  0  0  0  0
   58.6258   46.2713   28.6722 C   0  0  0  0  0  0
   61.6458   46.5947   30.5803 C   0  0  0  0  0  0
   65.6017   45.4799   33.4947 C   0  0  0  0  0  0
   60.3279   46.2830   30.4283 O   0  0  0  0  0  0
   59.9898   46.4769   29.1241 C   0  0  0  0  0  0
   62.1698   46.9555   29.3499 C   0  0  0  0  0  0
   64.1484   45.9226   33.3461 C   0  0  0  0  0  0
   62.2373   46.4650   31.9391 C   0  0  0  0  0  0
   61.1198   46.8987   28.4370 C   0  0  0  0  0  0
   63.5850   46.1161   32.0780 C   0  0  0  0  0  0
   54.8080   44.1934   31.3390 O   0  0  0  0  0  0
   56.0080   46.0770   27.4960 O   0  0  0  0  0  0
   65.6346   44.1620   33.6910 F   0  0  0  0  0  0
   66.3229   45.7655   32.4098 F   0  0  0  0  0  0
   66.1703   46.0770   34.5390 F   0  0  0  0  0  0
   63.3543   46.1197   34.4827 C   0  0  0  0  0  0
   61.4542   46.6331   33.0850 C   0  0  0  0  0  0
   62.0129   46.4770   34.3526 C   0  0  0  0  0  0
   54.4229   44.9929   28.9878 H   0  0  0  0  0  0
   58.5105   46.6232   27.6575 H   0  0  0  0  0  0
   63.1904   47.2419   29.1431 H   0  0  0  0  0  0
   61.1757   47.1374   27.3848 H   0  0  0  0  0  0
   64.1870   45.9598   31.1939 H   0  0  0  0  0  0
   63.7713   45.9784   35.4699 H   0  0  0  0  0  0
   60.4063   46.8770   32.9942 H   0  0  0  0  0  0
   61.4011   46.6124   35.2326 H   0  0  0  0  0  0
  1  3  1  0  0  0
  1  4  1  0  0  0
  1 24  1  0  0  0
  2  4  1  0  0  0
  2  6  2  0  0  0
  2  5  1  0  0  0
  3  5  1  0  0  0
  3 16  2  0  0  0
  4 17  2  0  0  0
  6 10  1  0  0  0
  6 25  1  0  0  0
  7  9  1  0  0  0
  7 13  1  0  0  0
  7 11  2  0  0  0
  8 12  1  0  0  0
  8 18  1  0  0  0
  8 19  1  0  0  0
  8 20  1  0  0  0
  9 10  1  0  0  0
 10 14  2  0  0  0
 11 14  1  0  0  0
 11 26  1  0  0  0
 12 15  2  0  0  0
 12 21  1  0  0  0
 13 15  1  0  0  0
 13 22  2  0  0  0
 14 27  1  0  0  0
 15 28  1  0  0  0
 21 23  2  0  0  0
 21 29  1  0  0  0
 22 23  1  0  0  0
 22 30  1  0  0  0
 23 31  1  0  0  0
M  END
> <s_m_entry_id>
31085

> <s_m_entry_name>
dock_pv.298

> <s_m_Source_Path>
/home/csk/Desktop/cluster/DUD-E-result/rxra

> <s_m_Source_File>
dock_pv.maegz

> <i_m_Source_File_Index>
298

> <chembl_id>
CHEMBL62768

> <chembl_pref_name>
None

> <i_lp_mmshare_version>
53161

> <r_lp_tautomer_probability>
1

> <s_lp_Force_Field>
OPLS_2005

> <r_lp_Energy>
11.246736

> <b_lp_Chiralities_Consistent>
1

> <s_lp_Variant>
CHEMBL2061_lig573-1

> <s_i_glide_gridfile>
glide-grid_1mv9

> <i_i_glide_lignum>
704

> <i_i_glide_rotatable_bonds>
3

> <r_i_docking_score>
-9.78711814955125

> <r_i_glide_ligand_efficiency>
-0.425526876067446

> <r_i_glide_ligand_efficiency_sa>
-1.2101418306228

> <r_i_glide_ligand_efficiency_ln>
-2.36661391324236

> <r_i_glide_gscore>
-9.78711814955125

> <r_i_glide_lipo>
-4.06634641940954

> <r_i_glide_hbond>
-0.207862969781099

> <r_i_glide_metal>
0

> <r_i_glide_rewards>
-3.73726840996982

> <r_i_glide_evdw>
-35.2469902038574

> <r_i_glide_ecoul>
-2.28031086921692

> <r_i_glide_erotb>
0.328755790184617

> <r_i_glide_esite>
0

> <r_i_glide_emodel>
-56.4069655374108

> <r_i_glide_energy>
-37.5273010730743

> <r_i_glide_einternal>
1.34434926509857

> <i_i_glide_confnum>
4

> <i_i_glide_posenum>
379

> <r_i_glide_eff_state_penalty>
0

> <s_user_duplicate_titles>
CHEMBL2061_lig573

> <i_f3d_flags>
0

> <s_m_subgroup_title>
dock_pv

> <s_m_subgroupid>
dock_pv

> <b_m_subgroup_collapsed>
1

$$$$
CHEMBL2061_lig587
                    3D
 Schrodinger Suite 2021-1.
 70 72  0  0  1  0            999 V2000
   64.2751   45.3061   31.4701 C   0  0  0  0  0  0
   63.4955   45.7665   30.4105 C   0  0  0  0  0  0
   62.5103   46.7408   30.6312 C   0  0  0  0  0  0
   62.3689   47.2234   31.9406 C   0  0  0  0  0  0
   61.5163   47.2460   29.5392 C   0  0  2  0  0  0
   60.1005   46.6353   29.6050 C   0  0  0  0  0  0
   59.8115   45.6639   30.5394 C   0  0  0  0  0  0
   58.5513   45.0687   30.6595 C   0  0  0  0  0  0
   57.5180   45.4681   29.8312 C   0  0  0  0  0  0
   57.7766   46.4891   28.9400 C   0  0  0  0  0  0
   59.0444   47.0697   28.8063 C   0  0  0  0  0  0
   56.1328   44.8882   29.9135 C   0  0  0  0  0  0
   55.6384   44.4482   30.9398 O   0  0  0  0  0  0
   55.4704   44.8842   28.7260 O   0  0  0  0  0  0
   64.1044   45.7493   32.7891 C   0  0  0  0  0  0
   63.1313   46.7554   33.0301 C   0  0  0  0  0  0
   62.8368   47.2925   34.4561 C   0  0  0  0  0  0
   63.9270   46.8619   35.4717 C   0  0  0  0  0  0
   64.3617   45.4195   35.3008 C   0  0  0  0  0  0
   65.0013   45.1672   33.9138 C   0  0  0  0  0  0
   62.8969   48.8225   34.4940 C   0  0  0  0  0  0
   61.4613   46.7586   34.9160 C   0  0  0  0  0  0
   65.1032   43.6319   33.8341 C   0  0  0  0  0  0
   66.3958   45.8469   33.8304 C   0  0  0  0  0  0
   63.7358   45.2451   29.1700 O   0  0  0  0  0  0
   63.1958   43.9588   28.9116 C   0  0  0  0  0  0
   62.2643   44.1001   27.7213 C   0  0  0  0  0  0
   62.0194   47.0289   28.2192 O   0  0  0  0  0  0
   61.9465   48.1107   27.2997 C   0  0  0  0  0  0
   63.1466   49.0396   27.4959 C   0  0  0  0  0  0
   64.4707   48.6120   26.8151 C   0  0  0  0  0  0
   64.9734   47.2770   27.3424 C   0  0  0  0  0  0
   65.0349   44.5727   31.2433 H   0  0  0  0  0  0
   61.6040   47.9618   32.1251 H   0  0  0  0  0  0
   61.4093   48.3164   29.7250 H   0  0  0  0  0  0
   60.6054   45.3354   31.1784 H   0  0  0  0  0  0
   58.4081   44.2901   31.3962 H   0  0  0  0  0  0
   56.9017   46.8762   28.4783 H   0  0  0  0  0  0
   59.1877   47.8959   28.1365 H   0  0  0  0  0  0
   54.6776   44.3535   28.7943 H   0  0  0  0  0  0
   63.6012   47.0318   36.4986 H   0  0  0  0  0  0
   64.8067   47.4884   35.3526 H   0  0  0  0  0  0
   63.4934   44.7799   35.4565 H   0  0  0  0  0  0
   65.0555   45.1595   36.0985 H   0  0  0  0  0  0
   62.8128   49.1242   35.5405 H   0  0  0  0  0  0
   63.8477   49.2109   34.1393 H   0  0  0  0  0  0
   62.0947   49.2771   33.9141 H   0  0  0  0  0  0
   61.2316   47.0541   35.9416 H   0  0  0  0  0  0
   60.6546   47.1422   34.2892 H   0  0  0  0  0  0
   61.4063   45.6783   34.8674 H   0  0  0  0  0  0
   65.7033   43.2775   34.6696 H   0  0  0  0  0  0
   64.1305   43.1383   33.8742 H   0  0  0  0  0  0
   65.6005   43.2854   32.9378 H   0  0  0  0  0  0
   67.0099   45.6200   34.6986 H   0  0  0  0  0  0
   66.9594   45.5134   32.9610 H   0  0  0  0  0  0
   66.3217   46.9323   33.7548 H   0  0  0  0  0  0
   64.0029   43.2698   28.6788 H   0  0  0  0  0  0
   62.6499   43.5204   29.7387 H   0  0  0  0  0  0
   62.0110   43.1263   27.3078 H   0  0  0  0  0  0
   61.3549   44.6059   28.0274 H   0  0  0  0  0  0
   62.7020   44.7126   26.9347 H   0  0  0  0  0  0
   61.9475   47.7114   26.2888 H   0  0  0  0  0  0
   61.0199   48.6735   27.3997 H   0  0  0  0  0  0
   62.8157   50.0759   27.3392 H   0  0  0  0  0  0
   63.3914   49.0234   28.5388 H   0  0  0  0  0  0
   64.4043   48.4706   25.7392 H   0  0  0  0  0  0
   65.2247   49.3828   26.9739 H   0  0  0  0  0  0
   65.8597   46.9329   26.8099 H   0  0  0  0  0  0
   65.2058   47.2805   28.4024 H   0  0  0  0  0  0
   64.1854   46.5422   27.2074 H   0  0  0  0  0  0
  1 15  1  0  0  0
  1  2  2  0  0  0
  1 33  1  0  0  0
  2  3  1  0  0  0
  2 25  1  0  0  0
  3  4  2  0  0  0
  3  5  1  0  0  0
  4 16  1  0  0  0
  4 34  1  0  0  0
  5  6  1  0  0  0
  5 28  1  0  0  0
  5 35  1  0  0  0
  6  7  2  0  0  0
  6 11  1  0  0  0
  7  8  1  0  0  0
  7 36  1  0  0  0
  8  9  2  0  0  0
  8 37  1  0  0  0
  9 10  1  0  0  0
  9 12  1  0  0  0
 10 11  2  0  0  0
 10 38  1  0  0  0
 11 39  1  0  0  0
 12 13  2  0  0  0
 12 14  1  0  0  0
 14 40  1  0  0  0
 15 16  2  0  0  0
 15 20  1  0  0  0
 16 17  1  0  0  0
 17 18  1  0  0  0
 17 21  1  0  0  0
 17 22  1  0  0  0
 18 19  1  0  0  0
 18 41  1  0  0  0
 18 42  1  0  0  0
 19 20  1  0  0  0
 19 43  1  0  0  0
 19 44  1  0  0  0
 20 23  1  0  0  0
 20 24  1  0  0  0
 21 45  1  0  0  0
 21 46  1  0  0  0
 21 47  1  0  0  0
 22 48  1  0  0  0
 22 49  1  0  0  0
 22 50  1  0  0  0
 23 51  1  0  0  0
 23 52  1  0  0  0
 23 53  1  0  0  0
 24 54  1  0  0  0
 24 55  1  0  0  0
 24 56  1  0  0  0
 25 26  1  0  0  0
 26 27  1  0  0  0
 26 57  1  0  0  0
 26 58  1  0  0  0
 27 59  1  0  0  0
 27 60  1  0  0  0
 27 61  1  0  0  0
 28 29  1  0  0  0
 29 30  1  0  0  0
 29 62  1  0  0  0
 29 63  1  0  0  0
 30 31  1  0  0  0
 30 64  1  0  0  0
 30 65  1  0  0  0
 31 32  1  0  0  0
 31 66  1  0  0  0
 31 67  1  0  0  0
 32 68  1  0  0  0
 32 69  1  0  0  0
 32 70  1  0  0  0
M  END
> <s_m_entry_id>
31086

> <s_m_entry_name>
dock_pv.299

> <s_m_Source_Path>
/home/csk/Desktop/cluster/DUD-E-result/rxra

> <s_m_Source_File>
dock_pv.maegz

> <i_m_Source_File_Index>
299

> <chembl_id>
CHEMBL3718230

> <chembl_pref_name>
None

> <i_lp_mmshare_version>
53161

> <r_lp_tautomer_probability>
1

> <s_lp_Force_Field>
OPLS_2005

> <r_lp_Energy>
30.4657

> <b_lp_Chiralities_Consistent>
1

> <s_lp_Variant>
CHEMBL2061_lig587-1

> <s_i_glide_gridfile>
glide-grid_1mv9

> <i_i_glide_lignum>
720

> <i_i_glide_rotatable_bonds>
10

> <r_i_docking_score>
-9.78118966899667

> <r_i_glide_ligand_efficiency>
-0.305662177156146

> <r_i_glide_ligand_efficiency_sa>
-0.970416922008043

> <r_i_glide_ligand_efficiency_ln>
-2.19027499204879

> <r_i_glide_gscore>
-9.78118966899667

> <r_i_glide_lipo>
-7.07367856176257

> <r_i_glide_hbond>
0

> <r_i_glide_metal>
0

> <r_i_glide_rewards>
-1.76864372727273

> <r_i_glide_evdw>
-33.6517524719238

> <r_i_glide_ecoul>
0.118196614086628

> <r_i_glide_erotb>
0.725990751521815

> <r_i_glide_esite>
0

> <r_i_glide_emodel>
-44.6007275530077

> <r_i_glide_energy>
-33.5335558578372

> <r_i_glide_einternal>
14.2086715698242

> <i_i_glide_confnum>
13

> <i_i_glide_posenum>
67

> <r_i_glide_eff_state_penalty>
0

> <s_user_duplicate_titles>
CHEMBL2061_lig587

> <i_f3d_flags>
0

> <s_m_subgroup_title>
dock_pv

> <s_m_subgroupid>
dock_pv

> <b_m_subgroup_collapsed>
1

$$$$
CHEMBL2061_lig495
                    3D
 Schrodinger Suite 2021-1.
 47 48  0  0  1  0            999 V2000
   54.5723   45.7564   29.6098 C   0  0  0  0  0  0
   55.8683   45.9976   29.0382 C   0  0  0  0  0  0
   57.0898   45.8088   29.5963 C   0  0  0  0  0  0
   57.3261   45.2768   31.0134 C   0  0  0  0  0  0
   58.2107   46.2325   28.7669 C   0  0  0  0  0  0
   59.4855   46.3813   29.1591 C   0  0  0  0  0  0
   60.5114   46.9050   28.2678 C   0  0  0  0  0  0
   61.7760   47.2145   28.6270 C   0  0  0  0  0  0
   62.1823   47.0736   30.0232 C   0  0  0  0  0  0
   63.5633   46.3107   31.9620 C   0  0  0  0  0  0
   62.5460   46.5660   32.9041 C   0  0  0  0  0  0
   62.7772   46.4792   34.2714 C   0  0  0  0  0  0
   64.0384   46.1389   34.7357 C   0  0  0  0  0  0
   65.0651   45.8640   33.8339 C   0  0  0  0  0  0
   64.8358   45.9260   32.4461 C   0  0  0  0  0  0
   53.6082   46.4767   29.3571 O   0  0  0  0  0  0
   54.4964   44.6280   30.3694 O   0  0  0  0  0  0
   62.7194   47.8052   27.5874 C   0  0  0  0  0  0
   65.9401   45.6064   31.4481 C   0  0  0  0  0  0
   65.3828   44.9724   30.1788 C   0  0  0  0  0  0
   64.3079   45.8348   29.5111 C   0  0  0  0  0  0
   63.2976   46.4564   30.4835 C   0  0  0  0  0  0
   66.4450   45.5591   34.3941 C   0  0  0  0  0  0
   55.7866   46.4192   28.0455 H   0  0  0  0  0  0
   58.0488   45.9135   31.5230 H   0  0  0  0  0  0
   56.4535   45.3074   31.6641 H   0  0  0  0  0  0
   57.7670   44.2800   30.9866 H   0  0  0  0  0  0
   58.0037   46.4766   27.7389 H   0  0  0  0  0  0
   59.7562   46.1236   30.1719 H   0  0  0  0  0  0
   60.2350   47.0587   27.2337 H   0  0  0  0  0  0
   61.4996   47.5224   30.7238 H   0  0  0  0  0  0
   61.5416   46.8224   32.6106 H   0  0  0  0  0  0
   61.9790   46.6816   34.9707 H   0  0  0  0  0  0
   64.2173   46.0916   35.8004 H   0  0  0  0  0  0
   55.3445   44.1785   30.3659 H   0  0  0  0  0  0
   63.3245   48.5895   28.0429 H   0  0  0  0  0  0
   63.3882   47.0525   27.1714 H   0  0  0  0  0  0
   62.1763   48.2889   26.7759 H   0  0  0  0  0  0
   66.6866   44.9288   31.8620 H   0  0  0  0  0  0
   66.4443   46.5323   31.2029 H   0  0  0  0  0  0
   64.9967   43.9734   30.3887 H   0  0  0  0  0  0
   66.2112   44.8734   29.4778 H   0  0  0  0  0  0
   63.8063   45.2525   28.7374 H   0  0  0  0  0  0
   64.8085   46.6492   28.9901 H   0  0  0  0  0  0
   66.5790   46.0744   35.3390 H   0  0  0  0  0  0
   66.5854   44.4880   34.5410 H   0  0  0  0  0  0
   67.2381   45.9426   33.7539 H   0  0  0  0  0  0
  1  2  1  0  0  0
  1 16  2  0  0  0
  1 17  1  0  0  0
  2  3  2  0  0  0
  2 24  1  0  0  0
  3  4  1  0  0  0
  3  5  1  0  0  0
  4 25  1  0  0  0
  4 26  1  0  0  0
  4 27  1  0  0  0
  5  6  2  0  0  0
  5 28  1  0  0  0
  6  7  1  0  0  0
  6 29  1  0  0  0
  7  8  2  0  0  0
  7 30  1  0  0  0
  8  9  1  0  0  0
  8 18  1  0  0  0
  9 22  2  0  0  0
  9 31  1  0  0  0
 10 22  1  0  0  0
 10 11  2  0  0  0
 10 15  1  0  0  0
 11 12  1  0  0  0
 11 32  1  0  0  0
 12 13  2  0  0  0
 12 33  1  0  0  0
 13 14  1  0  0  0
 13 34  1  0  0  0
 14 15  2  0  0  0
 14 23  1  0  0  0
 15 19  1  0  0  0
 17 35  1  0  0  0
 18 36  1  0  0  0
 18 37  1  0  0  0
 18 38  1  0  0  0
 19 20  1  0  0  0
 19 39  1  0  0  0
 19 40  1  0  0  0
 20 21  1  0  0  0
 20 41  1  0  0  0
 20 42  1  0  0  0
 21 22  1  0  0  0
 21 43  1  0  0  0
 21 44  1  0  0  0
 23 45  1  0  0  0
 23 46  1  0  0  0
 23 47  1  0  0  0
M  END
> <s_m_entry_id>
31087

> <s_m_entry_name>
dock_pv.300

> <s_m_Source_Path>
/home/csk/Desktop/cluster/DUD-E-result/rxra

> <s_m_Source_File>
dock_pv.maegz

> <i_m_Source_File_Index>
300

> <chembl_id>
CHEMBL3289657

> <chembl_pref_name>
None

> <i_lp_mmshare_version>
53161

> <r_lp_tautomer_probability>
1

> <s_lp_Force_Field>
OPLS_2005

> <r_lp_Energy>
28.994024

> <b_lp_Chiralities_Consistent>
1

> <s_lp_Variant>
CHEMBL2061_lig495-1

> <s_i_glide_gridfile>
glide-grid_1mv9

> <i_i_glide_lignum>
584

> <i_i_glide_rotatable_bonds>
5

> <r_i_docking_score>
-9.7770307652753

> <r_i_glide_ligand_efficiency>
-0.425088294142404

> <r_i_glide_ligand_efficiency_sa>
-1.20889456196952

> <r_i_glide_ligand_efficiency_ln>
-2.3641746922571

> <r_i_glide_gscore>
-9.7770307652753

> <r_i_glide_lipo>
-5.77999563783905

> <r_i_glide_hbond>
-0.24756220955437

> <r_i_glide_metal>
0

> <r_i_glide_rewards>
-1.88914621441805

> <r_i_glide_evdw>
-40.1963157653809

> <r_i_glide_ecoul>
-4.17994594573975

> <r_i_glide_erotb>
0.778020826509068

> <r_i_glide_esite>
-0.00153984984289041

> <r_i_glide_emodel>
-69.0145900127231

> <r_i_glide_energy>
-44.3762617111206

> <r_i_glide_einternal>
5.07166528701782

> <i_i_glide_confnum>
54

> <i_i_glide_posenum>
151

> <r_i_glide_eff_state_penalty>
0

> <s_user_duplicate_titles>
CHEMBL2061_lig495

> <i_f3d_flags>
0

> <s_m_subgroup_title>
dock_pv

> <s_m_subgroupid>
dock_pv

> <b_m_subgroup_collapsed>
1

$$$$
CHEMBL2061_lig342
                    3D
 Schrodinger Suite 2021-1.
 58 58  0  0  1  0            999 V2000
   62.3168   47.0393   29.9650 C   0  0  0  0  0  0
   63.1751   45.9268   29.9302 C   0  0  0  0  0  0
   63.7594   45.4533   31.1141 C   0  0  0  0  0  0
   62.0285   47.6378   31.2007 C   0  0  0  0  0  0
   63.4722   46.0780   32.3279 C   0  0  0  0  0  0
   62.6101   47.1696   32.3877 C   0  0  0  0  0  0
   61.7336   47.5682   28.7048 C   0  0  0  0  0  0
   55.9918   45.8662   29.3168 C   0  0  0  0  0  0
   54.7885   45.4315   29.9851 C   0  0  0  0  0  0
   59.4745   46.6748   29.2053 C   0  0  0  0  0  0
   57.2906   45.5901   29.5970 C   0  0  0  0  0  0
   60.4346   47.3868   28.3802 C   0  0  0  0  0  0
   58.2685   46.2768   28.7682 C   0  0  0  0  0  0
   53.6965   45.9315   29.7389 O   0  0  0  0  0  0
   64.7550   44.2969   31.0793 C   0  0  0  0  0  0
   62.3121   47.8379   33.7342 C   0  0  0  0  0  0
   63.4746   45.2938   28.7434 O   0  0  0  0  0  0
   54.9511   44.4777   30.9375 O   0  0  0  0  0  0
   62.6885   48.2865   27.7569 C   0  0  0  0  0  0
   57.7770   44.6238   30.6776 C   0  0  0  0  0  0
   64.6196   43.3269   32.2796 C   0  0  0  0  0  0
   66.1678   44.8749   30.8706 C   0  0  0  0  0  0
   62.4159   44.5523   28.1374 C   0  0  0  0  0  0
   63.5433   48.0014   34.6559 C   0  0  0  0  0  0
   61.1822   47.0960   34.4748 C   0  0  0  0  0  0
   62.6398   43.0511   28.3260 C   0  0  0  0  0  0
   61.3534   48.4769   31.2375 H   0  0  0  0  0  0
   63.9338   45.7146   33.2331 H   0  0  0  0  0  0
   55.7650   46.5451   28.5059 H   0  0  0  0  0  0
   59.7405   46.4645   30.2308 H   0  0  0  0  0  0
   60.0868   47.7856   27.4378 H   0  0  0  0  0  0
   58.0076   46.4772   27.7392 H   0  0  0  0  0  0
   64.5218   43.6873   30.2081 H   0  0  0  0  0  0
   62.0002   48.8581   33.5099 H   0  0  0  0  0  0
   55.8778   44.2466   31.0147 H   0  0  0  0  0  0
   63.5751   47.6802   27.5700 H   0  0  0  0  0  0
   62.2211   48.4730   26.7911 H   0  0  0  0  0  0
   63.0078   49.2544   28.1389 H   0  0  0  0  0  0
   58.8164   44.3377   30.5245 H   0  0  0  0  0  0
   57.6427   45.0412   31.6763 H   0  0  0  0  0  0
   57.2427   43.6773   30.6244 H   0  0  0  0  0  0
   63.6087   43.3154   32.6831 H   0  0  0  0  0  0
   64.8083   42.2962   31.9813 H   0  0  0  0  0  0
   65.2909   43.5857   33.0991 H   0  0  0  0  0  0
   66.1307   45.6770   30.1390 H   0  0  0  0  0  0
   66.5797   45.2836   31.7938 H   0  0  0  0  0  0
   66.8650   44.1403   30.4701 H   0  0  0  0  0  0
   61.4287   44.8120   28.5168 H   0  0  0  0  0  0
   62.4085   44.7938   27.0745 H   0  0  0  0  0  0
   64.3808   48.4671   34.1391 H   0  0  0  0  0  0
   63.3059   48.6357   35.5114 H   0  0  0  0  0  0
   63.8906   47.0477   35.0540 H   0  0  0  0  0  0
   60.3380   46.8768   33.8198 H   0  0  0  0  0  0
   61.5287   46.1383   34.8665 H   0  0  0  0  0  0
   60.8085   47.6807   35.3162 H   0  0  0  0  0  0
   62.0081   42.4849   27.6479 H   0  0  0  0  0  0
   63.6717   42.7609   28.1392 H   0  0  0  0  0  0
   62.3945   42.7408   29.3383 H   0  0  0  0  0  0
  1  2  1  0  0  0
  1  4  2  0  0  0
  1  7  1  0  0  0
  2  3  2  0  0  0
  2 17  1  0  0  0
  3 15  1  0  0  0
  3  5  1  0  0  0
  4  6  1  0  0  0
  4 27  1  0  0  0
  5  6  2  0  0  0
  5 28  1  0  0  0
  6 16  1  0  0  0
  7 12  2  0  0  0
  7 19  1  0  0  0
  8 11  2  0  0  0
  8  9  1  0  0  0
  8 29  1  0  0  0
  9 14  2  0  0  0
  9 18  1  0  0  0
 10 12  1  0  0  0
 10 13  2  0  0  0
 10 30  1  0  0  0
 11 13  1  0  0  0
 11 20  1  0  0  0
 12 31  1  0  0  0
 13 32  1  0  0  0
 15 21  1  0  0  0
 15 22  1  0  0  0
 15 33  1  0  0  0
 16 24  1  0  0  0
 16 25  1  0  0  0
 16 34  1  0  0  0
 17 23  1  0  0  0
 18 35  1  0  0  0
 19 36  1  0  0  0
 19 37  1  0  0  0
 19 38  1  0  0  0
 20 39  1  0  0  0
 20 40  1  0  0  0
 20 41  1  0  0  0
 21 42  1  0  0  0
 21 43  1  0  0  0
 21 44  1  0  0  0
 22 45  1  0  0  0
 22 46  1  0  0  0
 22 47  1  0  0  0
 23 26  1  0  0  0
 23 48  1  0  0  0
 23 49  1  0  0  0
 24 50  1  0  0  0
 24 51  1  0  0  0
 24 52  1  0  0  0
 25 53  1  0  0  0
 25 54  1  0  0  0
 25 55  1  0  0  0
 26 56  1  0  0  0
 26 57  1  0  0  0
 26 58  1  0  0  0
M  END
> <s_m_entry_id>
31088

> <s_m_entry_name>
dock_pv.301

> <s_m_Source_Path>
/home/csk/Desktop/cluster/DUD-E-result/rxra

> <s_m_Source_File>
dock_pv.maegz

> <i_m_Source_File_Index>
301

> <chembl_id>
CHEMBL88740

> <chembl_pref_name>
None

> <i_lp_mmshare_version>
53161

> <r_lp_tautomer_probability>
1

> <s_lp_Force_Field>
OPLS_2005

> <r_lp_Energy>
27.294262

> <b_lp_Chiralities_Consistent>
1

> <s_lp_Variant>
CHEMBL2061_lig342-1

> <s_i_glide_gridfile>
glide-grid_1mv9

> <i_i_glide_lignum>
402

> <i_i_glide_rotatable_bonds>
9

> <r_i_docking_score>
-9.77462969894389

> <r_i_glide_ligand_efficiency>
-0.375947296113227

> <r_i_glide_ligand_efficiency_sa>
-1.11374238545426

> <r_i_glide_ligand_efficiency_ln>
-2.29553971162093

> <r_i_glide_gscore>
-9.77462969894389

> <r_i_glide_lipo>
-5.67385102253677

> <r_i_glide_hbond>
-0.174039442650878

> <r_i_glide_metal>
0

> <r_i_glide_rewards>
-1.82915601187572

> <r_i_glide_evdw>
-44.1671714782715

> <r_i_glide_ecoul>
-4.27969837188721

> <r_i_glide_erotb>
0.752730107816134

> <r_i_glide_esite>
0

> <r_i_glide_emodel>
-71.7577920202698

> <r_i_glide_energy>
-48.4468698501587

> <r_i_glide_einternal>
6.34234523773193

> <i_i_glide_confnum>
38

> <i_i_glide_posenum>
88

> <r_i_glide_eff_state_penalty>
0

> <s_user_duplicate_titles>
CHEMBL2061_lig342,147190

> <i_f3d_flags>
0

> <s_m_subgroup_title>
dock_pv

> <s_m_subgroupid>
dock_pv

> <b_m_subgroup_collapsed>
1

$$$$
CHEMBL2061_lig26
                    3D
 Schrodinger Suite 2021-1.
 53 53  0  0  1  0            999 V2000
   64.8558   46.5963   33.9028 C   0  0  0  0  0  0
   63.8850   46.2453   35.0518 C   0  0  0  0  0  0
   62.4564   46.7890   34.8536 C   0  0  2  0  0  0
   62.0956   46.9270   33.3795 C   0  0  0  0  0  0
   62.8903   46.7017   32.3048 C   0  0  0  0  0  0
   64.3429   46.1894   32.4863 C   0  0  2  0  0  0
   64.4817   44.6550   32.1247 C   0  0  0  0  0  0
   65.2738   43.7784   33.1207 C   0  0  0  0  0  0
   65.0042   44.3795   30.6952 C   0  0  0  0  0  0
   62.2545   48.1397   35.5492 C   0  0  0  0  0  0
   62.3071   47.0069   30.9964 C   0  0  0  0  0  0
   62.8995   46.9222   29.7880 C   0  0  0  0  0  0
   62.2691   47.1955   28.4941 C   0  0  0  0  0  0
   60.9772   46.9058   28.1927 C   0  0  0  0  0  0
   63.1264   47.8789   27.4403 C   0  0  0  0  0  0
   59.9939   46.2524   29.0470 C   0  0  0  0  0  0
   58.6670   46.3396   28.8257 C   0  0  0  0  0  0
   57.6100   45.8068   29.6902 C   0  0  0  0  0  0
   56.3243   45.9563   29.2617 C   0  0  0  0  0  0
   57.9917   45.1989   31.0444 C   0  0  0  0  0  0
   55.0940   45.5498   29.9148 C   0  0  0  0  0  0
   55.2319   44.4765   30.7329 O   0  0  0  0  0  0
   54.0093   46.0996   29.7384 O   0  0  0  0  0  0
   65.8406   46.1754   34.0993 H   0  0  0  0  0  0
   65.0300   47.6740   33.9094 H   0  0  0  0  0  0
   64.3029   46.6016   35.9939 H   0  0  0  0  0  0
   63.8029   45.1729   35.1885 H   0  0  0  0  0  0
   61.7523   46.0783   35.2925 H   0  0  0  0  0  0
   61.0923   47.2771   33.1885 H   0  0  0  0  0  0
   64.9742   46.7481   31.7931 H   0  0  0  0  0  0
   63.4906   44.2259   32.1382 H   0  0  0  0  0  0
   66.3233   44.0755   33.1567 H   0  0  0  0  0  0
   64.8915   43.8011   34.1345 H   0  0  0  0  0  0
   65.2080   42.7281   32.8382 H   0  0  0  0  0  0
   65.9275   44.9263   30.4832 H   0  0  0  0  0  0
   65.2081   43.3182   30.5393 H   0  0  0  0  0  0
   64.2683   44.6181   29.9323 H   0  0  0  0  0  0
   61.2347   48.5069   35.4242 H   0  0  0  0  0  0
   62.4459   48.0771   36.6188 H   0  0  0  0  0  0
   62.9426   48.8769   35.1399 H   0  0  0  0  0  0
   61.2823   47.3477   31.0018 H   0  0  0  0  0  0
   63.9402   46.6478   29.7507 H   0  0  0  0  0  0
   60.6303   47.1877   27.2078 H   0  0  0  0  0  0
   64.0036   47.2673   27.2243 H   0  0  0  0  0  0
   62.5981   48.0788   26.5086 H   0  0  0  0  0  0
   63.5136   48.8197   27.8323 H   0  0  0  0  0  0
   60.3474   45.6828   29.8940 H   0  0  0  0  0  0
   58.3870   46.8759   27.9325 H   0  0  0  0  0  0
   56.1333   46.4506   28.3201 H   0  0  0  0  0  0
   58.8279   45.7480   31.4773 H   0  0  0  0  0  0
   57.2200   45.3116   31.8079 H   0  0  0  0  0  0
   58.2974   44.1547   30.9398 H   0  0  0  0  0  0
   56.1359   44.1556   30.7104 H   0  0  0  0  0  0
  1  2  1  0  0  0
  1  6  1  0  0  0
  1 24  1  0  0  0
  1 25  1  0  0  0
  2  3  1  0  0  0
  2 26  1  0  0  0
  2 27  1  0  0  0
  3 10  1  0  0  0
  3  4  1  0  0  0
  3 28  1  0  0  0
  4  5  2  0  0  0
  4 29  1  0  0  0
  5  6  1  0  0  0
  5 11  1  0  0  0
  6  7  1  0  0  0
  6 30  1  0  0  0
  7  8  1  0  0  0
  7  9  1  0  0  0
  7 31  1  0  0  0
  8 32  1  0  0  0
  8 33  1  0  0  0
  8 34  1  0  0  0
  9 35  1  0  0  0
  9 36  1  0  0  0
  9 37  1  0  0  0
 10 38  1  0  0  0
 10 39  1  0  0  0
 10 40  1  0  0  0
 11 12  2  0  0  0
 11 41  1  0  0  0
 12 13  1  0  0  0
 12 42  1  0  0  0
 13 14  2  0  0  0
 13 15  1  0  0  0
 14 16  1  0  0  0
 14 43  1  0  0  0
 15 44  1  0  0  0
 15 45  1  0  0  0
 15 46  1  0  0  0
 16 17  2  0  0  0
 16 47  1  0  0  0
 17 18  1  0  0  0
 17 48  1  0  0  0
 18 19  2  0  0  0
 18 20  1  0  0  0
 19 21  1  0  0  0
 19 49  1  0  0  0
 20 50  1  0  0  0
 20 51  1  0  0  0
 20 52  1  0  0  0
 21 22  1  0  0  0
 21 23  2  0  0  0
 22 53  1  0  0  0
M  END
> <s_m_entry_id>
31089

> <s_m_entry_name>
dock_pv.302

> <s_m_Source_Path>
/home/csk/Desktop/cluster/DUD-E-result/rxra

> <s_m_Source_File>
dock_pv.maegz

> <i_m_Source_File_Index>
302

> <chembl_id>
CHEMBL508378

> <chembl_pref_name>
None

> <i_lp_mmshare_version>
53161

> <r_lp_tautomer_probability>
1

> <s_lp_Force_Field>
OPLS_2005

> <r_lp_Energy>
25.577193

> <b_lp_Chiralities_Consistent>
1

> <s_lp_Variant>
CHEMBL2061_lig26-1

> <s_i_glide_gridfile>
glide-grid_1mv9

> <i_i_glide_lignum>
30

> <i_i_glide_rotatable_bonds>
7

> <r_i_docking_score>
-9.7688878963579

> <r_i_glide_ligand_efficiency>
-0.424734256363387

> <r_i_glide_ligand_efficiency_sa>
-1.2078877256212

> <r_i_glide_ligand_efficiency_ln>
-2.36220567271742

> <r_i_glide_gscore>
-9.7688878963579

> <r_i_glide_lipo>
-5.8081389100732

> <r_i_glide_hbond>
-0.145876764744424

> <r_i_glide_metal>
0

> <r_i_glide_rewards>
-2.27052098954554

> <r_i_glide_evdw>
-38.9168930053711

> <r_i_glide_ecoul>
-3.58941006660461

> <r_i_glide_erotb>
0.939904928264508

> <r_i_glide_esite>
0

> <r_i_glide_emodel>
-65.6035884621699

> <r_i_glide_energy>
-42.5063030719757

> <r_i_glide_einternal>
7.48885488510132

> <i_i_glide_confnum>
155

> <i_i_glide_posenum>
130

> <r_i_glide_eff_state_penalty>
0

> <s_user_duplicate_titles>
CHEMBL2061_lig26

> <i_f3d_flags>
0

> <s_m_subgroup_title>
dock_pv

> <s_m_subgroupid>
dock_pv

> <b_m_subgroup_collapsed>
1

$$$$
CHEMBL2061_lig133
                    3D
 Schrodinger Suite 2021-1.
 61 61  0  0  1  0            999 V2000
   62.9009   46.6422   30.8166 C   0  0  0  0  0  0
   63.9395   45.7210   31.0694 C   0  0  0  0  0  0
   64.4548   45.5970   32.3837 C   0  0  0  0  0  0
   62.3436   47.3525   31.8911 C   0  0  0  0  0  0
   63.8549   46.3027   33.4237 C   0  0  0  0  0  0
   62.8029   47.1792   33.1982 C   0  0  0  0  0  0
   62.3639   46.8775   29.4446 C   0  0  0  0  0  0
   56.4468   45.5191   29.9041 C   0  0  0  0  0  0
   55.1965   45.1368   30.5097 C   0  0  0  0  0  0
   60.0436   46.1641   29.9819 C   0  0  0  0  0  0
   57.6706   45.6049   30.4886 C   0  0  0  0  0  0
   61.0703   46.6885   29.1046 C   0  0  0  0  0  0
   58.7497   46.0785   29.6288 C   0  0  0  0  0  0
   54.3361   44.4775   29.9413 O   0  0  0  0  0  0
   65.6603   44.7247   32.7433 C   0  0  0  0  0  0
   62.1616   47.9344   34.3635 C   0  0  0  0  0  0
   64.3984   44.9432   30.0207 O   0  0  0  0  0  0
   55.0087   45.6770   31.7388 O   0  0  0  0  0  0
   63.3351   47.3927   28.3914 C   0  0  0  0  0  0
   57.9548   45.2788   31.9619 C   0  0  0  0  0  0
   65.2286   43.4436   33.4935 C   0  0  0  0  0  0
   66.7251   45.4902   33.5646 C   0  0  0  0  0  0
   64.1480   43.5385   30.1430 C   0  0  0  0  0  0
   63.1265   48.2907   35.5148 C   0  0  0  0  0  0
   60.9455   47.1738   34.9106 C   0  0  0  0  0  0
   63.3896   42.9081   28.9552 C   0  0  0  0  0  0
   62.4203   43.8072   28.1992 C   0  0  0  0  0  0
   61.5380   48.0502   31.7059 H   0  0  0  0  0  0
   64.2162   46.1558   34.4275 H   0  0  0  0  0  0
   56.3307   45.7321   28.8510 H   0  0  0  0  0  0
   60.3560   45.8283   30.9576 H   0  0  0  0  0  0
   60.7794   46.9293   28.0919 H   0  0  0  0  0  0
   58.4959   46.4017   28.6275 H   0  0  0  0  0  0
   66.1561   44.4770   31.8086 H   0  0  0  0  0  0
   61.8266   48.8894   33.9612 H   0  0  0  0  0  0
   55.7723   46.2012   31.9909 H   0  0  0  0  0  0
   64.3300   46.9605   28.4984 H   0  0  0  0  0  0
   62.9857   47.1728   27.3809 H   0  0  0  0  0  0
   63.4096   48.4761   28.4641 H   0  0  0  0  0  0
   58.8209   45.8063   32.3557 H   0  0  0  0  0  0
   57.1771   45.6176   32.6367 H   0  0  0  0  0  0
   58.0778   44.2060   32.0977 H   0  0  0  0  0  0
   64.5462   42.8234   32.9201 H   0  0  0  0  0  0
   66.0827   42.8178   33.7391 H   0  0  0  0  0  0
   64.7327   43.6801   34.4349 H   0  0  0  0  0  0
   67.0456   46.3968   33.0509 H   0  0  0  0  0  0
   66.3662   45.7821   34.5511 H   0  0  0  0  0  0
   67.6079   44.8778   33.7389 H   0  0  0  0  0  0
   65.1084   43.0345   30.2461 H   0  0  0  0  0  0
   63.6080   43.3014   31.0561 H   0  0  0  0  0  0
   63.9749   48.8762   35.1611 H   0  0  0  0  0  0
   62.6089   48.8782   36.2698 H   0  0  0  0  0  0
   63.5091   47.4102   36.0300 H   0  0  0  0  0  0
   60.2522   46.8771   34.1219 H   0  0  0  0  0  0
   61.2433   46.2671   35.4379 H   0  0  0  0  0  0
   60.4081   47.8098   35.6122 H   0  0  0  0  0  0
   64.0821   42.4769   28.2395 H   0  0  0  0  0  0
   62.8075   42.0770   29.3432 H   0  0  0  0  0  0
   62.0082   43.2810   27.3404 H   0  0  0  0  0  0
   61.6067   44.0997   28.8546 H   0  0  0  0  0  0
   62.9120   44.6994   27.8173 H   0  0  0  0  0  0
  1  2  1  0  0  0
  1  4  2  0  0  0
  1  7  1  0  0  0
  2  3  2  0  0  0
  2 17  1  0  0  0
  3 15  1  0  0  0
  3  5  1  0  0  0
  4  6  1  0  0  0
  4 28  1  0  0  0
  5  6  2  0  0  0
  5 29  1  0  0  0
  6 16  1  0  0  0
  7 12  2  0  0  0
  7 19  1  0  0  0
  8 11  2  0  0  0
  8  9  1  0  0  0
  8 30  1  0  0  0
  9 14  2  0  0  0
  9 18  1  0  0  0
 10 12  1  0  0  0
 10 13  2  0  0  0
 10 31  1  0  0  0
 11 13  1  0  0  0
 11 20  1  0  0  0
 12 32  1  0  0  0
 13 33  1  0  0  0
 15 21  1  0  0  0
 15 22  1  0  0  0
 15 34  1  0  0  0
 16 24  1  0  0  0
 16 25  1  0  0  0
 16 35  1  0  0  0
 17 23  1  0  0  0
 18 36  1  0  0  0
 19 37  1  0  0  0
 19 38  1  0  0  0
 19 39  1  0  0  0
 20 40  1  0  0  0
 20 41  1  0  0  0
 20 42  1  0  0  0
 21 43  1  0  0  0
 21 44  1  0  0  0
 21 45  1  0  0  0
 22 46  1  0  0  0
 22 47  1  0  0  0
 22 48  1  0  0  0
 23 26  1  0  0  0
 23 49  1  0  0  0
 23 50  1  0  0  0
 24 51  1  0  0  0
 24 52  1  0  0  0
 24 53  1  0  0  0
 25 54  1  0  0  0
 25 55  1  0  0  0
 25 56  1  0  0  0
 26 27  1  0  0  0
 26 57  1  0  0  0
 26 58  1  0  0  0
 27 59  1  0  0  0
 27 60  1  0  0  0
 27 61  1  0  0  0
M  END
> <s_m_entry_id>
31090

> <s_m_entry_name>
dock_pv.303

> <s_m_Source_Path>
/home/csk/Desktop/cluster/DUD-E-result/rxra

> <s_m_Source_File>
dock_pv.maegz

> <i_m_Source_File_Index>
303

> <chembl_id>
CHEMBL91779

> <chembl_pref_name>
None

> <i_lp_mmshare_version>
53161

> <r_lp_tautomer_probability>
1

> <s_lp_Force_Field>
OPLS_2005

> <r_lp_Energy>
26.521119

> <b_lp_Chiralities_Consistent>
1

> <s_lp_Variant>
CHEMBL2061_lig133-1

> <s_i_glide_gridfile>
glide-grid_1mv9

> <i_i_glide_lignum>
172

> <i_i_glide_rotatable_bonds>
10

> <r_i_docking_score>
-9.73843002379645

> <r_i_glide_ligand_efficiency>
-0.360682593473943

> <r_i_glide_ligand_efficiency_sa>
-1.08204777923308

> <r_i_glide_ligand_efficiency_ln>
-2.26694595897316

> <r_i_glide_gscore>
-9.73843002379645

> <r_i_glide_lipo>
-5.90594996980587

> <r_i_glide_hbond>
-0.0888517824217644

> <r_i_glide_metal>
0

> <r_i_glide_rewards>
-1.83747093865543

> <r_i_glide_evdw>
-46.1856269836426

> <r_i_glide_ecoul>
-2.93366646766663

> <r_i_glide_erotb>
0.843173986418729

> <r_i_glide_esite>
0

> <r_i_glide_emodel>
-72.1409612865194

> <r_i_glide_energy>
-49.1192934513092

> <r_i_glide_einternal>
4.88338708877563

> <i_i_glide_confnum>
6

> <i_i_glide_posenum>
117

> <r_i_glide_eff_state_penalty>
0

> <s_user_duplicate_titles>
CHEMBL2061_lig133,146724

> <i_f3d_flags>
0

> <s_m_subgroup_title>
dock_pv

> <s_m_subgroupid>
dock_pv

> <b_m_subgroup_collapsed>
1

$$$$
CHEMBL2061_lig392
                    3D
 Schrodinger Suite 2021-1.
 61 64  0  0  1  0            999 V2000
   60.6577   47.0681   29.4060 C   0  0  0  0  0  0
   60.1537   47.1283   28.1260 C   0  0  0  0  0  0
   63.2642   46.5356   33.1822 C   0  0  0  0  0  0
   63.8859   45.2963   32.8687 C   0  0  0  0  0  0
   62.7054   46.8301   30.8056 C   0  0  0  0  0  0
   62.0009   47.6876   29.7596 C   0  0  1  0  0  0
   58.9763   46.4832   28.0298 O   0  0  0  0  0  0
   62.7086   47.2773   32.1298 C   0  0  0  0  0  0
   59.6867   46.3805   30.1410 C   0  0  0  0  0  0
   58.6544   46.0652   29.2741 C   0  0  0  0  0  0
   63.8198   44.8452   31.5386 C   0  0  0  0  0  0
   63.2313   45.5625   30.5147 C   0  0  0  0  0  0
   63.2327   47.1098   34.6223 C   0  0  0  0  0  0
   64.6293   44.4500   33.9348 C   0  0  0  0  0  0
   57.3672   45.4704   29.4193 C   0  0  0  0  0  0
   55.2012   45.0872   30.4459 C   0  0  0  0  0  0
   56.5484   45.5777   30.4741 C   0  0  0  0  0  0
   64.9314   45.3351   35.1680 C   0  0  0  0  0  0
   63.6660   46.0336   35.6369 C   0  0  0  0  0  0
   54.4073   45.2845   31.3389 O   0  0  0  0  0  0
   60.8679   47.6428   26.9152 C   0  0  0  0  0  0
   54.8381   44.4568   29.3076 O   0  0  0  0  0  0
   62.8124   47.9992   28.4494 C   0  0  0  0  0  0
   63.1432   44.8715   29.1528 C   0  0  0  0  0  0
   63.8621   43.1657   34.3541 C   0  0  0  0  0  0
   65.9377   43.9843   33.3406 C   0  0  0  0  0  0
   64.2400   48.2746   34.7253 C   0  0  0  0  0  0
   61.8063   47.5495   35.0234 C   0  0  0  0  0  0
   61.9549   48.6170   27.3641 C   0  0  0  0  0  0
   61.7915   48.6466   30.2278 H   0  0  0  0  0  0
   62.2672   48.2366   32.3555 H   0  0  0  0  0  0
   59.7307   46.1552   31.1972 H   0  0  0  0  0  0
   64.1933   43.8700   31.2733 H   0  0  0  0  0  0
   57.0550   44.9414   28.5382 H   0  0  0  0  0  0
   56.8530   46.0764   31.3839 H   0  0  0  0  0  0
   65.7064   46.0620   34.9279 H   0  0  0  0  0  0
   65.3361   44.7983   36.0094 H   0  0  0  0  0  0
   63.8419   46.4762   36.6159 H   0  0  0  0  0  0
   62.8852   45.2836   35.7871 H   0  0  0  0  0  0
   61.3485   46.7551   26.5391 H   0  0  0  0  0  0
   60.2327   48.0818   26.1528 H   0  0  0  0  0  0
   53.9272   44.1746   29.3379 H   0  0  0  0  0  0
   63.2974   47.1202   28.0372 H   0  0  0  0  0  0
   63.6064   48.7205   28.5405 H   0  0  0  0  0  0
   63.0576   43.7905   29.2663 H   0  0  0  0  0  0
   62.2608   45.1571   28.5825 H   0  0  0  0  0  0
   64.0337   45.0655   28.5567 H   0  0  0  0  0  0
   64.0002   42.9288   35.4104 H   0  0  0  0  0  0
   62.8085   43.1765   34.1390 H   0  0  0  0  0  0
   64.2089   42.2819   33.8161 H   0  0  0  0  0  0
   66.4782   43.4122   34.0901 H   0  0  0  0  0  0
   65.6075   43.3083   32.5430 H   0  0  0  0  0  0
   66.5671   44.7826   32.9414 H   0  0  0  0  0  0
   64.4596   48.4806   35.7714 H   0  0  0  0  0  0
   65.1801   48.0738   34.2120 H   0  0  0  0  0  0
   63.8304   49.1931   34.3099 H   0  0  0  0  0  0
   61.7197   47.7249   36.0983 H   0  0  0  0  0  0
   61.5602   48.4951   34.5460 H   0  0  0  0  0  0
   61.0500   46.8123   34.7461 H   0  0  0  0  0  0
   62.6136   48.8781   26.5393 H   0  0  0  0  0  0
   61.5275   49.5497   27.7334 H   0  0  0  0  0  0
  1  2  2  0  0  0
  1  6  1  0  0  0
  1  9  1  0  0  0
  2  7  1  0  0  0
  2 21  1  0  0  0
  3  8  2  0  0  0
  3 13  1  0  0  0
  3  4  1  0  0  0
  4 11  2  0  0  0
  4 14  1  0  0  0
  5  6  1  0  0  0
  5  8  1  0  0  0
  5 12  2  0  0  0
  6 23  1  0  0  0
  6 30  1  0  0  0
  7 10  1  0  0  0
  8 31  1  0  0  0
  9 10  2  0  0  0
  9 32  1  0  0  0
 10 15  1  0  0  0
 11 12  1  0  0  0
 11 33  1  0  0  0
 12 24  1  0  0  0
 13 19  1  0  0  0
 13 27  1  0  0  0
 13 28  1  0  0  0
 14 18  1  0  0  0
 14 25  1  0  0  0
 14 26  1  0  0  0
 15 17  2  0  0  0
 15 34  1  0  0  0
 16 17  1  0  0  0
 16 20  2  0  0  0
 16 22  1  0  0  0
 17 35  1  0  0  0
 18 19  1  0  0  0
 18 36  1  0  0  0
 18 37  1  0  0  0
 19 38  1  0  0  0
 19 39  1  0  0  0
 21 29  1  0  0  0
 21 40  1  0  0  0
 21 41  1  0  0  0
 22 42  1  0  0  0
 23 29  1  0  0  0
 23 43  1  0  0  0
 23 44  1  0  0  0
 24 45  1  0  0  0
 24 46  1  0  0  0
 24 47  1  0  0  0
 25 48  1  0  0  0
 25 49  1  0  0  0
 25 50  1  0  0  0
 26 51  1  0  0  0
 26 52  1  0  0  0
 26 53  1  0  0  0
 27 54  1  0  0  0
 27 55  1  0  0  0
 27 56  1  0  0  0
 28 57  1  0  0  0
 28 58  1  0  0  0
 28 59  1  0  0  0
 29 60  1  0  0  0
 29 61  1  0  0  0
M  END
> <s_m_entry_id>
31091

> <s_m_entry_name>
dock_pv.304

> <s_m_Source_Path>
/home/csk/Desktop/cluster/DUD-E-result/rxra

> <s_m_Source_File>
dock_pv.maegz

> <i_m_Source_File_Index>
304

> <chembl_id>
CHEMBL432140

> <chembl_pref_name>
None

> <i_lp_mmshare_version>
53161

> <r_lp_tautomer_probability>
1

> <s_lp_Force_Field>
OPLS_2005

> <r_lp_Energy>
23.97851

> <b_lp_Chiralities_Consistent>
1

> <s_lp_Variant>
CHEMBL2061_lig392-1

> <s_i_glide_gridfile>
glide-grid_1mv9

> <i_i_glide_lignum>
454

> <i_i_glide_rotatable_bonds>
4

> <r_i_docking_score>
-9.734472133624

> <r_i_glide_ligand_efficiency>
-0.335671452883586

> <r_i_glide_ligand_efficiency_sa>
-1.0312890514391

> <r_i_glide_ligand_efficiency_ln>
-2.22894727368495

> <r_i_glide_gscore>
-9.734472133624

> <r_i_glide_lipo>
-6.64614333152785

> <r_i_glide_hbond>
-0.168760915943437

> <r_i_glide_metal>
0

> <r_i_glide_rewards>
-1.84332207477433

> <r_i_glide_evdw>
-24.730993270874

> <r_i_glide_ecoul>
-1.4657918214798

> <r_i_glide_erotb>
0.380172625387294

> <r_i_glide_esite>
0

> <r_i_glide_emodel>
-64.6466047026415

> <r_i_glide_energy>
-26.1967850923538

> <r_i_glide_einternal>
10.8637657165527

> <i_i_glide_confnum>
20

> <i_i_glide_posenum>
304

> <r_i_glide_eff_state_penalty>
0

> <s_user_duplicate_titles>
CHEMBL2061_lig392

> <i_f3d_flags>
0

> <s_m_subgroup_title>
dock_pv

> <s_m_subgroupid>
dock_pv

> <b_m_subgroup_collapsed>
1

$$$$
CHEMBL2061_lig584
                    3D
 Schrodinger Suite 2021-1.
 58 60  0  0  1  0            999 V2000
   64.1522   45.3766   31.5419 C   0  0  0  0  0  0
   63.4325   46.0334   30.5511 C   0  0  0  0  0  0
   62.4341   46.9277   30.8922 C   0  0  0  0  0  0
   62.2827   47.2730   32.2352 C   0  0  0  0  0  0
   61.4967   47.3777   29.8155 C   0  0  0  0  0  0
   60.1301   46.7522   29.7389 C   0  0  0  0  0  0
   61.9180   48.0771   28.8961 O   0  0  0  0  0  0
   59.3111   46.8824   28.6134 C   0  0  0  0  0  0
   58.0332   46.3293   28.6071 C   0  0  0  0  0  0
   57.5095   45.6770   29.7239 C   0  0  0  0  0  0
   58.3355   45.5204   30.8407 C   0  0  0  0  0  0
   59.6190   46.0626   30.8432 C   0  0  0  0  0  0
   63.6538   45.7243   29.2326 O   0  0  0  0  0  0
   62.9544   44.5777   28.7873 C   0  0  0  0  0  0
   56.0523   45.2770   29.7377 C   0  0  0  0  0  0
   55.2507   45.6753   28.8941 O   0  0  0  0  0  0
   55.6861   44.4770   30.7746 O   0  0  0  0  0  0
   64.0347   45.7043   32.9128 C   0  0  0  0  0  0
   63.0589   46.6909   33.2594 C   0  0  0  0  0  0
   62.8597   47.1942   34.7131 C   0  0  0  0  0  0
   63.5101   46.2410   35.7368 C   0  0  0  0  0  0
   64.8928   45.7877   35.3159 C   0  0  0  0  0  0
   64.8960   44.9752   34.0023 C   0  0  0  0  0  0
   63.5626   48.5631   34.8094 C   0  0  0  0  0  0
   61.3621   47.2485   35.1040 C   0  0  0  0  0  0
   64.2824   43.5810   34.2952 C   0  0  0  0  0  0
   66.4029   44.9050   33.6229 C   0  0  0  0  0  0
   62.4082   44.8476   27.4025 C   0  0  0  0  0  0
   62.0080   43.6842   26.9397 F   0  0  0  0  0  0
   61.3933   45.6871   27.3390 F   0  0  0  0  0  0
   64.9315   44.2381   31.0790 N   0  3  0  0  0  0
   66.0059   44.4771   30.5387 O   0  0  0  0  0  0
   64.4081   43.1302   31.1814 O   0  5  0  0  0  0
   61.5374   48.0097   32.4919 H   0  0  0  0  0  0
   59.6510   47.4225   27.7400 H   0  0  0  0  0  0
   57.4153   46.4745   27.7391 H   0  0  0  0  0  0
   57.9947   45.0436   31.7478 H   0  0  0  0  0  0
   60.1865   45.9401   31.7517 H   0  0  0  0  0  0
   63.6570   43.7458   28.7365 H   0  0  0  0  0  0
   62.1389   44.2614   29.4432 H   0  0  0  0  0  0
   56.4595   44.1932   31.2615 H   0  0  0  0  0  0
   63.6080   46.7425   36.6994 H   0  0  0  0  0  0
   62.8875   45.3608   35.9106 H   0  0  0  0  0  0
   65.5429   46.6526   35.2150 H   0  0  0  0  0  0
   65.3153   45.2127   36.1367 H   0  0  0  0  0  0
   63.5377   48.9745   35.8193 H   0  0  0  0  0  0
   64.6036   48.4770   34.5042 H   0  0  0  0  0  0
   63.1010   49.2893   34.1412 H   0  0  0  0  0  0
   61.2301   47.4044   36.1756 H   0  0  0  0  0  0
   60.8512   48.0767   34.6282 H   0  0  0  0  0  0
   60.8364   46.3294   34.8401 H   0  0  0  0  0  0
   64.4464   43.2607   35.3229 H   0  0  0  0  0  0
   63.2081   43.5644   34.1390 H   0  0  0  0  0  0
   64.7044   42.8049   33.6579 H   0  0  0  0  0  0
   67.0397   44.7360   34.4929 H   0  0  0  0  0  0
   66.6240   44.0775   32.9551 H   0  0  0  0  0  0
   66.7479   45.8246   33.1475 H   0  0  0  0  0  0
   63.1591   45.2769   26.7395 H   0  0  0  0  0  0
  1 18  1  0  0  0
  1  2  2  0  0  0
  1 31  1  0  0  0
  2  3  1  0  0  0
  2 13  1  0  0  0
  3  4  2  0  0  0
  3  5  1  0  0  0
  4 19  1  0  0  0
  4 34  1  0  0  0
  5  6  1  0  0  0
  5  7  2  0  0  0
  6  8  2  0  0  0
  6 12  1  0  0  0
  8  9  1  0  0  0
  8 35  1  0  0  0
  9 10  2  0  0  0
  9 36  1  0  0  0
 10 11  1  0  0  0
 10 15  1  0  0  0
 11 12  2  0  0  0
 11 37  1  0  0  0
 12 38  1  0  0  0
 13 14  1  0  0  0
 14 28  1  0  0  0
 14 39  1  0  0  0
 14 40  1  0  0  0
 15 16  2  0  0  0
 15 17  1  0  0  0
 17 41  1  0  0  0
 18 19  2  0  0  0
 18 23  1  0  0  0
 19 20  1  0  0  0
 20 21  1  0  0  0
 20 24  1  0  0  0
 20 25  1  0  0  0
 21 22  1  0  0  0
 21 42  1  0  0  0
 21 43  1  0  0  0
 22 23  1  0  0  0
 22 44  1  0  0  0
 22 45  1  0  0  0
 23 26  1  0  0  0
 23 27  1  0  0  0
 24 46  1  0  0  0
 24 47  1  0  0  0
 24 48  1  0  0  0
 25 49  1  0  0  0
 25 50  1  0  0  0
 25 51  1  0  0  0
 26 52  1  0  0  0
 26 53  1  0  0  0
 26 54  1  0  0  0
 27 55  1  0  0  0
 27 56  1  0  0  0
 27 57  1  0  0  0
 28 29  1  0  0  0
 28 30  1  0  0  0
 28 58  1  0  0  0
 31 32  2  0  0  0
 31 33  1  0  0  0
M  CHG  2  31   1  33  -1
M  END
> <s_m_entry_id>
31092

> <s_m_entry_name>
dock_pv.305

> <s_m_Source_Path>
/home/csk/Desktop/cluster/DUD-E-result/rxra

> <s_m_Source_File>
dock_pv.maegz

> <i_m_Source_File_Index>
305

> <chembl_id>
CHEMBL3716204

> <chembl_pref_name>
None

> <i_lp_mmshare_version>
53161

> <r_lp_tautomer_probability>
1

> <s_lp_Force_Field>
OPLS_2005

> <r_lp_Energy>
48.411704

> <b_lp_Chiralities_Consistent>
1

> <s_lp_Variant>
CHEMBL2061_lig584-1

> <s_i_glide_gridfile>
glide-grid_1mv9

> <i_i_glide_lignum>
715

> <i_i_glide_rotatable_bonds>
8

> <r_i_docking_score>
-9.73438959797426

> <r_i_glide_ligand_efficiency>
-0.294981502968917

> <r_i_glide_ligand_efficiency_sa>
-0.946163296383812

> <r_i_glide_ligand_efficiency_ln>
-2.16487784461759

> <r_i_glide_gscore>
-9.73438959797426

> <r_i_glide_lipo>
-5.90052460746638

> <r_i_glide_hbond>
0

> <r_i_glide_metal>
0

> <r_i_glide_rewards>
-2.60827206482106

> <r_i_glide_evdw>
-33.6532440185547

> <r_i_glide_ecoul>
-0.104972802102566

> <r_i_glide_erotb>
0.472815195556299

> <r_i_glide_esite>
0

> <r_i_glide_emodel>
-36.8170683215231

> <r_i_glide_energy>
-33.7582168206573

> <r_i_glide_einternal>
21.1762065887451

> <i_i_glide_confnum>
289

> <i_i_glide_posenum>
196

> <r_i_glide_eff_state_penalty>
0

> <s_user_duplicate_titles>
CHEMBL2061_lig584

> <i_f3d_flags>
0

> <s_m_subgroup_title>
dock_pv

> <s_m_subgroupid>
dock_pv

> <b_m_subgroup_collapsed>
1

$$$$
CHEMBL2061_lig380
                    3D
 Schrodinger Suite 2021-1.
 66 68  0  0  1  0            999 V2000
   63.0337   46.3558   33.0936 C   0  0  0  0  0  0
   64.0079   45.3923   32.7025 C   0  0  0  0  0  0
   62.0081   46.1854   30.8471 C   0  0  0  0  0  0
   60.9871   46.6624   29.8973 C   0  0  0  0  0  0
   62.0633   46.7236   32.1415 C   0  0  0  0  0  0
   63.9940   44.9275   31.3796 C   0  0  0  0  0  0
   63.0087   45.2769   30.4658 C   0  0  0  0  0  0
   62.9753   46.9543   34.5324 C   0  0  0  0  0  0
   65.0876   44.8438   33.6617 C   0  0  0  0  0  0
   55.4134   45.0227   30.3023 C   0  0  0  0  0  0
   61.4626   47.5655   29.1324 N   0  0  0  0  0  0
   59.5904   46.1093   29.9087 C   0  0  0  0  0  0
   56.8801   45.2950   30.1270 C   0  0  0  0  0  0
   64.7437   45.2022   35.1268 C   0  0  0  0  0  0
   64.2877   46.6496   35.2988 C   0  0  0  0  0  0
   54.8080   45.2771   31.3390 O   0  0  0  0  0  0
   59.0417   45.6770   31.1198 C   0  0  0  0  0  0
   58.7434   46.0770   28.7870 C   0  0  0  0  0  0
   57.4094   45.6805   28.8935 C   0  0  0  0  0  0
   57.7200   45.2770   31.2346 C   0  0  0  0  0  0
   54.8080   44.4770   29.2227 O   0  0  0  0  0  0
   60.5954   48.0770   28.1682 O   0  0  0  0  0  0
   63.0649   44.5920   29.0993 C   0  0  0  0  0  0
   62.8727   48.4959   34.5109 C   0  0  0  0  0  0
   61.7690   46.3539   35.3019 C   0  0  0  0  0  0
   65.1314   43.2915   33.6093 C   0  0  0  0  0  0
   66.4420   45.4870   33.2759 C   0  0  0  0  0  0
   61.1674   47.9026   26.8733 C   0  0  0  0  0  0
   62.6541   48.3259   26.6625 C   0  0  0  0  0  0
   63.7311   47.3203   27.1013 C   0  0  0  0  0  0
   65.1308   47.6769   26.5853 C   0  0  0  0  0  0
   61.3085   47.4418   32.4260 H   0  0  0  0  0  0
   64.7567   44.2400   31.0476 H   0  0  0  0  0  0
   63.9729   44.5398   35.5200 H   0  0  0  0  0  0
   65.6080   45.0160   35.7508 H   0  0  0  0  0  0
   64.1766   46.8828   36.3596 H   0  0  0  0  0  0
   65.0901   47.2956   34.9391 H   0  0  0  0  0  0
   59.6210   45.6940   32.0301 H   0  0  0  0  0  0
   59.0903   46.3632   27.8081 H   0  0  0  0  0  0
   56.7909   45.7252   28.0083 H   0  0  0  0  0  0
   57.3495   45.0272   32.2115 H   0  0  0  0  0  0
   55.4390   44.1781   28.5633 H   0  0  0  0  0  0
   63.0359   43.5094   29.2293 H   0  0  0  0  0  0
   62.2516   44.8594   28.4260 H   0  0  0  0  0  0
   64.0082   44.8236   28.6048 H   0  0  0  0  0  0
   62.7538   48.8769   35.5259 H   0  0  0  0  0  0
   63.7775   48.9689   34.1389 H   0  0  0  0  0  0
   62.0259   48.8661   33.9340 H   0  0  0  0  0  0
   61.4793   46.9894   36.1390 H   0  0  0  0  0  0
   60.8842   46.2481   34.6729 H   0  0  0  0  0  0
   61.9869   45.3861   35.7417 H   0  0  0  0  0  0
   66.0028   42.9118   34.1390 H   0  0  0  0  0  0
   64.2408   42.8371   34.0463 H   0  0  0  0  0  0
   65.2071   42.8908   32.6038 H   0  0  0  0  0  0
   67.2291   45.2167   33.9811 H   0  0  0  0  0  0
   66.7700   45.1522   32.2913 H   0  0  0  0  0  0
   66.3934   46.5757   33.2406 H   0  0  0  0  0  0
   60.5185   48.4770   26.2108 H   0  0  0  0  0  0
   61.0216   46.8681   26.5683 H   0  0  0  0  0  0
   62.8283   49.2827   27.1503 H   0  0  0  0  0  0
   62.8078   48.4770   25.5965 H   0  0  0  0  0  0
   63.4494   46.3336   26.7405 H   0  0  0  0  0  0
   63.7845   47.2548   28.1865 H   0  0  0  0  0  0
   65.8632   46.9508   26.9387 H   0  0  0  0  0  0
   65.4401   48.6606   26.9390 H   0  0  0  0  0  0
   65.1714   47.6770   25.4957 H   0  0  0  0  0  0
  1  2  2  0  0  0
  1  5  1  0  0  0
  1  8  1  0  0  0
  2  6  1  0  0  0
  2  9  1  0  0  0
  3  5  2  0  0  0
  3  4  1  0  0  0
  3  7  1  0  0  0
  4 11  2  0  0  0
  4 12  1  0  0  0
  5 32  1  0  0  0
  6  7  2  0  0  0
  6 33  1  0  0  0
  7 23  1  0  0  0
  8 15  1  0  0  0
  8 24  1  0  0  0
  8 25  1  0  0  0
  9 26  1  0  0  0
  9 27  1  0  0  0
  9 14  1  0  0  0
 10 13  1  0  0  0
 10 16  2  0  0  0
 10 21  1  0  0  0
 11 22  1  0  0  0
 12 17  2  0  0  0
 12 18  1  0  0  0
 13 19  1  0  0  0
 13 20  2  0  0  0
 14 15  1  0  0  0
 14 34  1  0  0  0
 14 35  1  0  0  0
 15 36  1  0  0  0
 15 37  1  0  0  0
 17 20  1  0  0  0
 17 38  1  0  0  0
 18 19  2  0  0  0
 18 39  1  0  0  0
 19 40  1  0  0  0
 20 41  1  0  0  0
 21 42  1  0  0  0
 22 28  1  0  0  0
 23 43  1  0  0  0
 23 44  1  0  0  0
 23 45  1  0  0  0
 24 46  1  0  0  0
 24 47  1  0  0  0
 24 48  1  0  0  0
 25 49  1  0  0  0
 25 50  1  0  0  0
 25 51  1  0  0  0
 26 52  1  0  0  0
 26 53  1  0  0  0
 26 54  1  0  0  0
 27 55  1  0  0  0
 27 56  1  0  0  0
 27 57  1  0  0  0
 28 29  1  0  0  0
 28 58  1  0  0  0
 28 59  1  0  0  0
 29 30  1  0  0  0
 29 60  1  0  0  0
 29 61  1  0  0  0
 30 31  1  0  0  0
 30 62  1  0  0  0
 30 63  1  0  0  0
 31 64  1  0  0  0
 31 65  1  0  0  0
 31 66  1  0  0  0
M  END
> <s_m_entry_id>
31093

> <s_m_entry_name>
dock_pv.306

> <s_m_Source_Path>
/home/csk/Desktop/cluster/DUD-E-result/rxra

> <s_m_Source_File>
dock_pv.maegz

> <i_m_Source_File_Index>
306

> <chembl_id>
CHEMBL162005

> <chembl_pref_name>
None

> <i_lp_mmshare_version>
53161

> <r_lp_tautomer_probability>
1

> <s_lp_Force_Field>
OPLS_2005

> <r_lp_Energy>
36.709615

> <b_lp_Chiralities_Consistent>
1

> <s_lp_Variant>
CHEMBL2061_lig380-1

> <s_i_glide_gridfile>
glide-grid_1mv9

> <i_i_glide_lignum>
440

> <i_i_glide_rotatable_bonds>
8

> <r_i_docking_score>
-9.73398732411793

> <r_i_glide_ligand_efficiency>
-0.313999591100578

> <r_i_glide_ligand_efficiency_sa>
-0.986392239213079

> <r_i_glide_ligand_efficiency_ln>
-2.19531245247429

> <r_i_glide_gscore>
-9.73398732411793

> <r_i_glide_lipo>
-6.97890532916097

> <r_i_glide_hbond>
-0.0285518808803224

> <r_i_glide_metal>
0

> <r_i_glide_rewards>
-0.515479139975123

> <r_i_glide_evdw>
-48.66064453125

> <r_i_glide_ecoul>
-2.97710418701172

> <r_i_glide_erotb>
0.668546880512743

> <r_i_glide_esite>
0

> <r_i_glide_emodel>
-56.7727749783214

> <r_i_glide_energy>
-51.6377487182617

> <r_i_glide_einternal>
18.7554225921631

> <i_i_glide_confnum>
16

> <i_i_glide_posenum>
149

> <r_i_glide_eff_state_penalty>
0

> <s_user_duplicate_titles>
CHEMBL2061_lig380,272665

> <i_f3d_flags>
0

> <s_m_subgroup_title>
dock_pv

> <s_m_subgroupid>
dock_pv

> <b_m_subgroup_collapsed>
1

$$$$
CHEMBL2061_lig334
                    3D
 Schrodinger Suite 2021-1.
 55 55  0  0  1  0            999 V2000
   62.5532   46.6886   30.2414 C   0  0  0  0  0  0
   63.4943   45.6605   30.4480 C   0  0  0  0  0  0
   63.9636   45.3994   31.7458 C   0  0  0  0  0  0
   62.0772   47.4155   31.3469 C   0  0  0  0  0  0
   63.4451   46.1115   32.8232 C   0  0  0  0  0  0
   62.5192   47.1283   32.6448 C   0  0  0  0  0  0
   62.0680   47.0080   28.8738 C   0  0  0  0  0  0
   56.0927   45.9247   29.1540 C   0  0  0  0  0  0
   54.8077   45.6451   29.7390 C   0  0  0  0  0  0
   59.7216   46.3087   29.3320 C   0  0  0  0  0  0
   57.3155   45.7743   29.7236 C   0  0  0  0  0  0
   60.7847   46.8290   28.4898 C   0  0  0  0  0  0
   58.4489   46.2032   28.9101 C   0  0  0  0  0  0
   53.8340   46.3747   29.5779 O   0  0  0  0  0  0
   65.0137   44.3358   32.0344 C   0  0  0  0  0  0
   62.0079   47.8881   33.8698 C   0  0  0  0  0  0
   63.9726   44.9137   29.3921 O   0  0  0  0  0  0
   54.7626   44.4771   30.4354 O   0  0  0  0  0  0
   63.0960   47.5728   27.9003 C   0  0  0  0  0  0
   57.5391   45.2765   31.1557 C   0  0  0  0  0  0
   64.3645   43.0729   32.6334 C   0  0  0  0  0  0
   66.1425   44.8690   32.9430 C   0  0  0  0  0  0
   63.1145   48.2560   34.8876 C   0  0  0  0  0  0
   60.8691   47.1138   34.5589 C   0  0  0  0  0  0
   63.1015   43.8794   28.9387 C   0  0  0  0  0  0
   61.3589   48.2075   31.1937 H   0  0  0  0  0  0
   63.7600   45.8614   33.8231 H   0  0  0  0  0  0
   56.0027   46.3300   28.1557 H   0  0  0  0  0  0
   59.9696   46.0141   30.3402 H   0  0  0  0  0  0
   60.5261   47.0955   27.4744 H   0  0  0  0  0  0
   58.2558   46.4769   27.8822 H   0  0  0  0  0  0
   65.4913   44.0770   31.0889 H   0  0  0  0  0  0
   61.6180   48.8368   33.5099 H   0  0  0  0  0  0
   55.6148   44.0385   30.3880 H   0  0  0  0  0  0
   64.0126   46.9830   27.8960 H   0  0  0  0  0  0
   62.7151   47.5924   26.8786 H   0  0  0  0  0  0
   63.3458   48.6003   28.1612 H   0  0  0  0  0  0
   58.2353   45.9397   31.6677 H   0  0  0  0  0  0
   56.6515   45.2954   31.7842 H   0  0  0  0  0  0
   58.0038   44.2897   31.1573 H   0  0  0  0  0  0
   63.6339   42.6285   31.9556 H   0  0  0  0  0  0
   65.1109   42.3165   32.8577 H   0  0  0  0  0  0
   63.8514   43.2916   33.5708 H   0  0  0  0  0  0
   66.6834   45.6901   32.4723 H   0  0  0  0  0  0
   65.7930   45.2120   33.9154 H   0  0  0  0  0  0
   66.8470   44.0773   33.1551 H   0  0  0  0  0  0
   63.9251   48.8095   34.4134 H   0  0  0  0  0  0
   62.7232   48.8770   35.6918 H   0  0  0  0  0  0
   63.5474   47.3797   35.3693 H   0  0  0  0  0  0
   60.0850   46.8390   33.8526 H   0  0  0  0  0  0
   61.2307   46.1943   35.0204 H   0  0  0  0  0  0
   60.4080   47.7187   35.3392 H   0  0  0  0  0  0
   63.6064   43.2660   28.1960 H   0  0  0  0  0  0
   62.8104   43.2029   29.7388 H   0  0  0  0  0  0
   62.1971   44.2743   28.4768 H   0  0  0  0  0  0
  1  2  1  0  0  0
  1  4  2  0  0  0
  1  7  1  0  0  0
  2  3  2  0  0  0
  2 17  1  0  0  0
  3 15  1  0  0  0
  3  5  1  0  0  0
  4  6  1  0  0  0
  4 26  1  0  0  0
  5  6  2  0  0  0
  5 27  1  0  0  0
  6 16  1  0  0  0
  7 12  2  0  0  0
  7 19  1  0  0  0
  8 11  2  0  0  0
  8  9  1  0  0  0
  8 28  1  0  0  0
  9 14  2  0  0  0
  9 18  1  0  0  0
 10 12  1  0  0  0
 10 13  2  0  0  0
 10 29  1  0  0  0
 11 13  1  0  0  0
 11 20  1  0  0  0
 12 30  1  0  0  0
 13 31  1  0  0  0
 15 21  1  0  0  0
 15 22  1  0  0  0
 15 32  1  0  0  0
 16 23  1  0  0  0
 16 24  1  0  0  0
 16 33  1  0  0  0
 17 25  1  0  0  0
 18 34  1  0  0  0
 19 35  1  0  0  0
 19 36  1  0  0  0
 19 37  1  0  0  0
 20 38  1  0  0  0
 20 39  1  0  0  0
 20 40  1  0  0  0
 21 41  1  0  0  0
 21 42  1  0  0  0
 21 43  1  0  0  0
 22 44  1  0  0  0
 22 45  1  0  0  0
 22 46  1  0  0  0
 23 47  1  0  0  0
 23 48  1  0  0  0
 23 49  1  0  0  0
 24 50  1  0  0  0
 24 51  1  0  0  0
 24 52  1  0  0  0
 25 53  1  0  0  0
 25 54  1  0  0  0
 25 55  1  0  0  0
M  END
> <s_m_entry_id>
31094

> <s_m_entry_name>
dock_pv.307

> <s_m_Source_Path>
/home/csk/Desktop/cluster/DUD-E-result/rxra

> <s_m_Source_File>
dock_pv.maegz

> <i_m_Source_File_Index>
307

> <chembl_id>
CHEMBL90824

> <chembl_pref_name>
None

> <i_lp_mmshare_version>
53161

> <r_lp_tautomer_probability>
1

> <s_lp_Force_Field>
OPLS_2005

> <r_lp_Energy>
27.765107

> <b_lp_Chiralities_Consistent>
1

> <s_lp_Variant>
CHEMBL2061_lig334-1

> <s_i_glide_gridfile>
glide-grid_1mv9

> <i_i_glide_lignum>
394

> <i_i_glide_rotatable_bonds>
8

> <r_i_docking_score>
-9.73397326940636

> <r_i_glide_ligand_efficiency>
-0.389358930776254

> <r_i_glide_ligand_efficiency_sa>
-1.13849241889981

> <r_i_glide_ligand_efficiency_ln>
-2.30724336848915

> <r_i_glide_gscore>
-9.73397326940636

> <r_i_glide_lipo>
-5.66998379263088

> <r_i_glide_hbond>
-0.222512910077521

> <r_i_glide_metal>
0

> <r_i_glide_rewards>
-1.87433220864271

> <r_i_glide_evdw>
-40.7712783813477

> <r_i_glide_ecoul>
-3.83533000946045

> <r_i_glide_erotb>
0.646719062431197

> <r_i_glide_esite>
0

> <r_i_glide_emodel>
-69.1519234540603

> <r_i_glide_energy>
-44.6066083908081

> <r_i_glide_einternal>
1.83764100074768

> <i_i_glide_confnum>
7

> <i_i_glide_posenum>
274

> <r_i_glide_eff_state_penalty>
0

> <s_user_duplicate_titles>
CHEMBL2061_lig334,146723

> <i_f3d_flags>
0

> <s_m_subgroup_title>
dock_pv

> <s_m_subgroupid>
dock_pv

> <b_m_subgroup_collapsed>
1

$$$$
CHEMBL2061_lig321
                    3D
 Schrodinger Suite 2021-1.
 44 45  0  0  1  0            999 V2000
   64.3925   45.9117   32.9094 C   0  0  0  0  0  0
   63.2901   46.2137   32.1122 C   0  0  0  0  0  0
   66.5601   45.2193   33.2014 O   0  0  0  0  0  0
   64.5936   45.9799   34.3967 C   0  0  0  0  0  0
   63.3358   46.0288   30.7170 C   0  0  0  0  0  0
   65.5490   45.4560   32.3136 C   0  0  0  0  0  0
   62.1182   46.2197   29.8779 C   0  0  0  0  0  0
   56.1707   44.9757   30.4879 C   0  0  0  0  0  0
   54.7505   44.9942   30.2374 C   0  0  0  0  0  0
   59.6043   46.0770   29.7493 C   0  0  0  0  0  0
   66.0399   45.4268   34.5136 C   0  0  0  0  0  0
   57.1382   45.6071   29.7850 C   0  0  0  0  0  0
   60.8935   45.9817   30.4057 C   0  0  0  0  0  0
   58.4981   45.5428   30.3068 C   0  0  0  0  0  0
   64.5335   45.5583   30.1469 C   0  0  0  0  0  0
   54.0080   44.0770   30.5390 O   0  0  0  0  0  0
   65.6491   45.2770   30.9390 C   0  0  0  0  0  0
   54.2845   46.1710   29.7390 O   0  0  0  0  0  0
   64.4326   47.4315   34.9027 C   0  0  0  0  0  0
   63.6080   45.0669   35.1450 C   0  0  0  0  0  0
   62.3417   46.6960   28.4430 C   0  0  0  0  0  0
   56.8305   46.3315   28.4943 C   0  0  0  0  0  0
   62.3949   46.5826   32.5892 H   0  0  0  0  0  0
   56.4379   44.3801   31.3390 H   0  0  0  0  0  0
   59.5406   46.5977   28.8095 H   0  0  0  0  0  0
   66.0398   44.4570   35.0129 H   0  0  0  0  0  0
   66.7049   46.0770   35.0743 H   0  0  0  0  0  0
   60.8501   45.6770   31.4381 H   0  0  0  0  0  0
   58.6305   45.0257   31.2471 H   0  0  0  0  0  0
   64.6102   45.3871   29.0834 H   0  0  0  0  0  0
   66.5621   44.9218   30.4842 H   0  0  0  0  0  0
   55.0215   46.7613   29.5724 H   0  0  0  0  0  0
   64.4080   47.4841   35.9920 H   0  0  0  0  0  0
   65.2317   48.0770   34.5390 H   0  0  0  0  0  0
   63.4929   47.8671   34.5603 H   0  0  0  0  0  0
   63.8548   44.9949   36.2053 H   0  0  0  0  0  0
   62.5940   45.4606   35.0746 H   0  0  0  0  0  0
   63.6080   44.0545   34.7371 H   0  0  0  0  0  0
   63.0680   47.5093   28.4207 H   0  0  0  0  0  0
   62.7201   45.8781   27.8296 H   0  0  0  0  0  0
   61.4373   47.0617   27.9616 H   0  0  0  0  0  0
   57.6974   46.4628   27.8508 H   0  0  0  0  0  0
   56.1296   45.7527   27.8900 H   0  0  0  0  0  0
   56.3522   47.2770   28.7331 H   0  0  0  0  0  0
  1  2  1  0  0  0
  1  4  1  0  0  0
  1  6  2  0  0  0
  2  5  2  0  0  0
  2 23  1  0  0  0
  3  6  1  0  0  0
  3 11  1  0  0  0
  4 11  1  0  0  0
  4 19  1  0  0  0
  4 20  1  0  0  0
  5  7  1  0  0  0
  5 15  1  0  0  0
  6 17  1  0  0  0
  7 13  2  0  0  0
  7 21  1  0  0  0
  8 12  2  0  0  0
  8  9  1  0  0  0
  8 24  1  0  0  0
  9 16  2  0  0  0
  9 18  1  0  0  0
 10 13  1  0  0  0
 10 14  2  0  0  0
 10 25  1  0  0  0
 11 26  1  0  0  0
 11 27  1  0  0  0
 12 14  1  0  0  0
 12 22  1  0  0  0
 13 28  1  0  0  0
 14 29  1  0  0  0
 15 17  2  0  0  0
 15 30  1  0  0  0
 17 31  1  0  0  0
 18 32  1  0  0  0
 19 33  1  0  0  0
 19 34  1  0  0  0
 19 35  1  0  0  0
 20 36  1  0  0  0
 20 37  1  0  0  0
 20 38  1  0  0  0
 21 39  1  0  0  0
 21 40  1  0  0  0
 21 41  1  0  0  0
 22 42  1  0  0  0
 22 43  1  0  0  0
 22 44  1  0  0  0
M  END
> <s_m_entry_id>
31095

> <s_m_entry_name>
dock_pv.308

> <s_m_Source_Path>
/home/csk/Desktop/cluster/DUD-E-result/rxra

> <s_m_Source_File>
dock_pv.maegz

> <i_m_Source_File_Index>
308

> <chembl_id>
CHEMBL340495

> <chembl_pref_name>
None

> <i_lp_mmshare_version>
53161

> <r_lp_tautomer_probability>
1

> <s_lp_Force_Field>
OPLS_2005

> <r_lp_Energy>
30.924695

> <b_lp_Chiralities_Consistent>
1

> <s_lp_Variant>
CHEMBL2061_lig321-1

> <s_i_glide_gridfile>
glide-grid_1mv9

> <i_i_glide_lignum>
369

> <i_i_glide_rotatable_bonds>
5

> <r_i_docking_score>
-9.72665665522401

> <r_i_glide_ligand_efficiency>
-0.442120757055637

> <r_i_glide_ligand_efficiency_sa>
-1.23883974889259

> <r_i_glide_ligand_efficiency_ln>
-2.37754967495863

> <r_i_glide_gscore>
-9.72665665522401

> <r_i_glide_lipo>
-5.08403062827863

> <r_i_glide_hbond>
-0.32

> <r_i_glide_metal>
0

> <r_i_glide_rewards>
-2.54903744125265

> <r_i_glide_evdw>
-33.7411346435547

> <r_i_glide_ecoul>
-6.07326602935791

> <r_i_glide_erotb>
0.824458050888698

> <r_i_glide_esite>
0

> <r_i_glide_emodel>
-60.0882371250622

> <r_i_glide_energy>
-39.8144006729126

> <r_i_glide_einternal>
3.40350365638733

> <i_i_glide_confnum>
6

> <i_i_glide_posenum>
187

> <r_i_glide_eff_state_penalty>
0

> <s_user_duplicate_titles>
CHEMBL2061_lig321

> <i_f3d_flags>
0

> <s_m_subgroup_title>
dock_pv

> <s_m_subgroupid>
dock_pv

> <b_m_subgroup_collapsed>
1

$$$$
CHEMBL2061_lig29
                    3D
 Schrodinger Suite 2021-1.
 56 57  0  0  1  0            999 V2000
   55.1154   45.2768   30.0857 C   0  0  0  0  0  0
   56.5750   45.5138   29.7998 C   0  0  0  0  0  0
   57.5510   45.2737   30.7715 C   0  0  0  0  0  0
   58.8846   45.5899   30.5098 C   0  0  0  0  0  0
   59.2577   46.0773   29.2501 C   0  0  0  0  0  0
   58.3190   46.2447   28.2865 N   0  0  0  0  0  0
   57.0153   45.9881   28.5611 C   0  0  0  0  0  0
   54.7218   44.4836   30.9382 O   0  0  0  0  0  0
   54.2701   46.0779   29.3754 O   0  0  0  0  0  0
   60.6069   46.3761   28.9290 N   0  0  0  0  0  0
   60.8347   47.4948   27.9821 C   0  0  0  0  0  0
   62.2665   47.6726   27.4331 C   0  0  0  0  0  0
   61.7124   46.0335   29.7394 C   0  0  0  0  0  0
   62.5900   44.9977   29.3651 C   0  0  0  0  0  0
   63.6720   44.6802   30.1802 C   0  0  0  0  0  0
   63.8872   45.3524   31.3886 C   0  0  0  0  0  0
   63.0016   46.3724   31.7761 C   0  0  0  0  0  0
   61.9421   46.7252   30.9313 C   0  0  0  0  0  0
   65.0760   44.9319   32.2592 C   0  0  0  0  0  0
   64.6490   44.2522   33.5754 C   0  0  0  0  0  0
   66.0892   46.0706   32.4730 C   0  0  0  0  0  0
   63.2071   47.0434   32.9611 O   0  0  0  0  0  0
   62.1202   47.0706   33.8823 C   0  0  0  0  0  0
   62.5291   47.8668   35.1396 C   0  0  0  0  0  0
   63.7451   47.2437   35.8518 C   0  0  0  0  0  0
   61.3454   48.0389   36.1086 C   0  0  0  0  0  0
   62.4080   44.2513   28.1978 N   0  0  0  0  0  0
   57.2762   44.8896   31.7434 H   0  0  0  0  0  0
   59.6078   45.4785   31.2964 H   0  0  0  0  0  0
   56.3357   46.1450   27.7371 H   0  0  0  0  0  0
   54.7556   46.6877   28.8155 H   0  0  0  0  0  0
   60.1632   47.4035   27.1256 H   0  0  0  0  0  0
   60.5359   48.4173   28.4789 H   0  0  0  0  0  0
   62.3065   48.4768   26.6988 H   0  0  0  0  0  0
   62.9737   47.9244   28.2229 H   0  0  0  0  0  0
   62.6160   46.7660   26.9385 H   0  0  0  0  0  0
   64.3413   43.8852   29.8808 H   0  0  0  0  0  0
   61.2896   47.5397   31.2031 H   0  0  0  0  0  0
   65.6080   44.1651   31.6993 H   0  0  0  0  0  0
   64.0058   43.3916   33.3872 H   0  0  0  0  0  0
   65.5171   43.8903   34.1295 H   0  0  0  0  0  0
   64.1079   44.9303   34.2310 H   0  0  0  0  0  0
   66.4080   46.4773   31.5120 H   0  0  0  0  0  0
   65.6836   46.8922   33.0617 H   0  0  0  0  0  0
   66.9776   45.7123   32.9920 H   0  0  0  0  0  0
   61.8313   46.0525   34.1492 H   0  0  0  0  0  0
   61.2522   47.5410   33.4238 H   0  0  0  0  0  0
   62.8221   48.8644   34.8068 H   0  0  0  0  0  0
   63.5464   46.2110   36.1413 H   0  0  0  0  0  0
   64.0110   47.7931   36.7535 H   0  0  0  0  0  0
   64.6213   47.2402   35.2060 H   0  0  0  0  0  0
   61.0344   47.0843   36.5333 H   0  0  0  0  0  0
   61.6052   48.6949   36.9380 H   0  0  0  0  0  0
   60.4801   48.4769   35.6105 H   0  0  0  0  0  0
   63.0391   43.4923   27.9779 H   0  0  0  0  0  0
   61.5876   44.4283   27.6370 H   0  0  0  0  0  0
  1  2  1  0  0  0
  1  8  2  0  0  0
  1  9  1  0  0  0
  2  3  1  0  0  0
  2  7  2  0  0  0
  3  4  2  0  0  0
  3 28  1  0  0  0
  4  5  1  0  0  0
  4 29  1  0  0  0
  5  6  2  0  0  0
  5 10  1  0  0  0
  6  7  1  0  0  0
  7 30  1  0  0  0
  9 31  1  0  0  0
 10 11  1  0  0  0
 10 13  1  0  0  0
 11 12  1  0  0  0
 11 32  1  0  0  0
 11 33  1  0  0  0
 12 34  1  0  0  0
 12 35  1  0  0  0
 12 36  1  0  0  0
 13 14  1  0  0  0
 13 18  2  0  0  0
 14 15  2  0  0  0
 14 27  1  0  0  0
 15 16  1  0  0  0
 15 37  1  0  0  0
 16 17  2  0  0  0
 16 19  1  0  0  0
 17 18  1  0  0  0
 17 22  1  0  0  0
 18 38  1  0  0  0
 19 20  1  0  0  0
 19 21  1  0  0  0
 19 39  1  0  0  0
 20 40  1  0  0  0
 20 41  1  0  0  0
 20 42  1  0  0  0
 21 43  1  0  0  0
 21 44  1  0  0  0
 21 45  1  0  0  0
 22 23  1  0  0  0
 23 24  1  0  0  0
 23 46  1  0  0  0
 23 47  1  0  0  0
 24 25  1  0  0  0
 24 26  1  0  0  0
 24 48  1  0  0  0
 25 49  1  0  0  0
 25 50  1  0  0  0
 25 51  1  0  0  0
 26 52  1  0  0  0
 26 53  1  0  0  0
 26 54  1  0  0  0
 27 55  1  0  0  0
 27 56  1  0  0  0
M  END
> <s_m_entry_id>
31096

> <s_m_entry_name>
dock_pv.309

> <s_m_Source_Path>
/home/csk/Desktop/cluster/DUD-E-result/rxra

> <s_m_Source_File>
dock_pv.maegz

> <i_m_Source_File_Index>
309

> <chembl_id>
CHEMBL2029405

> <chembl_pref_name>
None

> <i_lp_mmshare_version>
53161

> <r_lp_tautomer_probability>
1

> <s_lp_Force_Field>
OPLS_2005

> <r_lp_Energy>
27.071586

> <b_lp_Chiralities_Consistent>
1

> <s_lp_Variant>
CHEMBL2061_lig29-1

> <s_i_glide_gridfile>
glide-grid_1mv9

> <i_i_glide_lignum>
33

> <i_i_glide_rotatable_bonds>
9

> <r_i_docking_score>
-9.72584128746401

> <r_i_glide_ligand_efficiency>
-0.360216343980149

> <r_i_glide_ligand_efficiency_sa>
-1.08064903075323

> <r_i_glide_ligand_efficiency_ln>
-2.26401550869651

> <r_i_glide_gscore>
-9.72584128746401

> <r_i_glide_lipo>
-5.91764939760779

> <r_i_glide_hbond>
-0.16004784861726

> <r_i_glide_metal>
0

> <r_i_glide_rewards>
-1.49694177822711

> <r_i_glide_evdw>
-49.3676834106445

> <r_i_glide_ecoul>
-2.5483980178833

> <r_i_glide_erotb>
0.699441610202869

> <r_i_glide_esite>
0

> <r_i_glide_emodel>
-77.9445870010177

> <r_i_glide_energy>
-51.9160814285278

> <r_i_glide_einternal>
8.44046592712402

> <i_i_glide_confnum>
6

> <i_i_glide_posenum>
351

> <r_i_glide_eff_state_penalty>
0

> <s_user_duplicate_titles>
CHEMBL2061_lig29

> <i_f3d_flags>
0

> <s_m_subgroup_title>
dock_pv

> <s_m_subgroupid>
dock_pv

> <b_m_subgroup_collapsed>
1

$$$$
CHEMBL2061_lig471
                    3D
 Schrodinger Suite 2021-1.
 51 52  0  0  1  0            999 V2000
   63.7647   45.4006   31.1729 C   0  0  0  0  0  0
   62.7786   46.2411   31.7226 C   0  0  0  0  0  0
   61.6529   46.5709   30.9455 C   0  0  0  0  0  0
   61.4691   46.0417   29.6635 C   0  0  0  0  0  0
   62.4494   45.1840   29.1491 C   0  0  0  0  0  0
   63.5862   44.8762   29.8896 C   0  0  0  0  0  0
   65.0345   45.0248   31.9472 C   0  0  0  0  0  0
   64.7468   44.0855   33.1340 C   0  0  0  0  0  0
   62.9653   46.6854   33.0187 O   0  0  0  0  0  0
   60.3281   46.3907   28.8982 N   0  0  0  0  0  0
   58.9875   46.0173   29.2225 C   0  0  0  0  0  0
   60.6277   46.7713   27.4949 C   0  0  0  0  0  0
   61.7381   47.8299   27.3254 C   0  0  0  0  0  0
   58.0377   46.0770   28.2506 N   0  0  0  0  0  0
   56.7393   45.8255   28.5391 C   0  0  0  0  0  0
   56.3051   45.4567   29.8094 C   0  0  0  0  0  0
   57.2864   45.2769   30.7885 C   0  0  0  0  0  0
   58.6225   45.5763   30.5036 C   0  0  0  0  0  0
   54.8435   45.2770   30.1110 C   0  0  0  0  0  0
   54.4245   44.4775   30.9390 O   0  0  0  0  0  0
   54.0335   46.1510   29.4464 O   0  0  0  0  0  0
   61.9900   47.5099   33.6435 C   0  0  0  0  0  0
   65.8773   46.2494   32.3457 C   0  0  0  0  0  0
   62.2851   47.6054   35.1482 C   0  0  0  0  0  0
   63.6102   48.3099   35.4653 C   0  0  0  0  0  0
   60.9051   47.2474   31.3256 H   0  0  0  0  0  0
   62.3400   44.7467   28.1687 H   0  0  0  0  0  0
   64.3265   44.2169   29.4589 H   0  0  0  0  0  0
   65.6757   44.4768   31.2574 H   0  0  0  0  0  0
   64.1769   43.2118   32.8170 H   0  0  0  0  0  0
   65.6725   43.7244   33.5848 H   0  0  0  0  0  0
   64.1772   44.5848   33.9180 H   0  0  0  0  0  0
   60.8918   45.8727   26.9387 H   0  0  0  0  0  0
   59.7554   47.1744   26.9780 H   0  0  0  0  0  0
   61.8685   48.0757   26.2726 H   0  0  0  0  0  0
   61.4851   48.7536   27.8461 H   0  0  0  0  0  0
   62.7084   47.4932   27.6908 H   0  0  0  0  0  0
   56.0562   45.9244   27.7075 H   0  0  0  0  0  0
   57.0155   44.9738   31.7845 H   0  0  0  0  0  0
   59.3415   45.4987   31.2994 H   0  0  0  0  0  0
   54.5485   46.7553   28.9071 H   0  0  0  0  0  0
   60.9910   47.0861   33.5224 H   0  0  0  0  0  0
   62.0079   48.5008   33.1864 H   0  0  0  0  0  0
   66.0588   46.8770   31.4757 H   0  0  0  0  0  0
   65.3951   46.8652   33.1028 H   0  0  0  0  0  0
   66.8416   45.9455   32.7514 H   0  0  0  0  0  0
   62.2933   46.6029   35.5786 H   0  0  0  0  0  0
   61.4705   48.1387   35.6415 H   0  0  0  0  0  0
   63.7940   48.3439   36.5365 H   0  0  0  0  0  0
   63.6082   49.3335   35.0945 H   0  0  0  0  0  0
   64.4540   47.7929   35.0100 H   0  0  0  0  0  0
  1  6  1  0  0  0
  1  2  2  0  0  0
  1  7  1  0  0  0
  2  9  1  0  0  0
  2  3  1  0  0  0
  3  4  2  0  0  0
  3 26  1  0  0  0
  4  5  1  0  0  0
  4 10  1  0  0  0
  5  6  2  0  0  0
  5 27  1  0  0  0
  6 28  1  0  0  0
  7  8  1  0  0  0
  7 23  1  0  0  0
  7 29  1  0  0  0
  8 30  1  0  0  0
  8 31  1  0  0  0
  8 32  1  0  0  0
  9 22  1  0  0  0
 10 12  1  0  0  0
 10 11  1  0  0  0
 11 14  2  0  0  0
 11 18  1  0  0  0
 12 13  1  0  0  0
 12 33  1  0  0  0
 12 34  1  0  0  0
 13 35  1  0  0  0
 13 36  1  0  0  0
 13 37  1  0  0  0
 14 15  1  0  0  0
 15 16  2  0  0  0
 15 38  1  0  0  0
 16 17  1  0  0  0
 16 19  1  0  0  0
 17 18  2  0  0  0
 17 39  1  0  0  0
 18 40  1  0  0  0
 19 20  2  0  0  0
 19 21  1  0  0  0
 21 41  1  0  0  0
 22 24  1  0  0  0
 22 42  1  0  0  0
 22 43  1  0  0  0
 23 44  1  0  0  0
 23 45  1  0  0  0
 23 46  1  0  0  0
 24 25  1  0  0  0
 24 47  1  0  0  0
 24 48  1  0  0  0
 25 49  1  0  0  0
 25 50  1  0  0  0
 25 51  1  0  0  0
M  END
> <s_m_entry_id>
31097

> <s_m_entry_name>
dock_pv.310

> <s_m_Source_Path>
/home/csk/Desktop/cluster/DUD-E-result/rxra

> <s_m_Source_File>
dock_pv.maegz

> <i_m_Source_File_Index>
310

> <chembl_id>
CHEMBL1688388

> <chembl_pref_name>
None

> <i_lp_mmshare_version>
53161

> <r_lp_tautomer_probability>
1

> <s_lp_Force_Field>
OPLS_2005

> <r_lp_Energy>
19.378467

> <b_lp_Chiralities_Consistent>
1

> <s_lp_Variant>
CHEMBL2061_lig471-1

> <s_i_glide_gridfile>
glide-grid_1mv9

> <i_i_glide_lignum>
560

> <i_i_glide_rotatable_bonds>
9

> <r_i_docking_score>
-9.72396397255129

> <r_i_glide_ligand_efficiency>
-0.388958558902052

> <r_i_glide_ligand_efficiency_sa>
-1.13732172443901

> <r_i_glide_ligand_efficiency_ln>
-2.30487086518008

> <r_i_glide_gscore>
-9.72396397255129

> <r_i_glide_lipo>
-5.60285674319522

> <r_i_glide_hbond>
-0.32

> <r_i_glide_metal>
0

> <r_i_glide_rewards>
-1.6529464797713

> <r_i_glide_evdw>
-46.5711479187012

> <r_i_glide_ecoul>
-4.18779134750366

> <r_i_glide_erotb>
0.808565348475834

> <r_i_glide_esite>
0

> <r_i_glide_emodel>
-75.414679484419

> <r_i_glide_energy>
-50.7589392662048

> <r_i_glide_einternal>
9.31693840026855

> <i_i_glide_confnum>
18

> <i_i_glide_posenum>
311

> <r_i_glide_eff_state_penalty>
0

> <s_user_duplicate_titles>
CHEMBL2061_lig471

> <i_f3d_flags>
0

> <s_m_subgroup_title>
dock_pv

> <s_m_subgroupid>
dock_pv

> <b_m_subgroup_collapsed>
1

$$$$
CHEMBL2061_lig250
                    3D
 Schrodinger Suite 2021-1.
 46 48  0  0  1  0            999 V2000
   63.9375   45.8815   32.8868 C   0  0  0  0  0  0
   61.2927   46.5616   28.7259 C   0  0  0  0  0  0
   62.3804   46.6938   29.5307 C   0  0  0  0  0  0
   55.8253   45.1170   30.2013 C   0  0  0  0  0  0
   65.0981   44.9796   33.3813 C   0  0  0  0  0  0
   63.0568   46.5680   33.7573 C   0  0  0  0  0  0
   63.3559   46.7836   35.4885 S   0  0  0  0  0  0
   59.8835   46.2203   29.1159 C   0  0  0  0  0  0
   57.2322   45.4686   29.8023 C   0  0  0  0  0  0
   62.5569   46.6491   30.9950 C   0  0  0  0  0  0
   63.6560   45.9584   31.5098 C   0  0  0  0  0  0
   55.3953   45.2775   31.3396 O   0  0  0  0  0  0
   58.8057   46.4769   28.2637 C   0  0  0  0  0  0
   59.5877   45.5880   30.3146 C   0  0  0  0  0  0
   58.2883   45.2456   30.6843 C   0  0  0  0  0  0
   57.5036   46.0769   28.5755 C   0  0  0  0  0  0
   61.9372   47.2205   33.2496 C   0  0  0  0  0  0
   55.0729   44.5921   29.2003 O   0  0  0  0  0  0
   61.6897   47.2759   31.8844 C   0  0  0  0  0  0
   64.2643   45.2740   35.8281 C   0  0  0  0  0  0
   65.4574   45.2249   34.8764 C   0  0  0  0  0  0
   61.5215   46.6906   27.2303 C   0  0  0  0  0  0
   64.6482   43.5047   33.2251 C   0  0  0  0  0  0
   66.3901   45.2793   32.5872 C   0  0  0  0  0  0
   63.3156   46.9005   29.0286 H   0  0  0  0  0  0
   64.2963   45.4381   30.8136 H   0  0  0  0  0  0
   58.9642   46.9837   27.3322 H   0  0  0  0  0  0
   60.3994   45.2795   30.9391 H   0  0  0  0  0  0
   58.1195   44.7638   31.6378 H   0  0  0  0  0  0
   56.7064   46.2844   27.8756 H   0  0  0  0  0  0
   61.2523   47.6918   33.9351 H   0  0  0  0  0  0
   55.6090   44.3372   28.4450 H   0  0  0  0  0  0
   60.8206   47.8030   31.5251 H   0  0  0  0  0  0
   64.5938   45.3368   36.8648 H   0  0  0  0  0  0
   63.6092   44.4092   35.7402 H   0  0  0  0  0  0
   66.0125   46.1586   34.9820 H   0  0  0  0  0  0
   66.1449   44.4533   35.2154 H   0  0  0  0  0  0
   61.0907   45.8143   26.7440 H   0  0  0  0  0  0
   61.0575   47.5963   26.8389 H   0  0  0  0  0  0
   62.5776   46.7310   26.9573 H   0  0  0  0  0  0
   65.4169   42.8158   33.5751 H   0  0  0  0  0  0
   63.7353   43.2847   33.7785 H   0  0  0  0  0  0
   64.4496   43.2531   32.1819 H   0  0  0  0  0  0
   67.2079   44.6909   32.9946 H   0  0  0  0  0  0
   66.3144   45.0127   31.5335 H   0  0  0  0  0  0
   66.6724   46.3321   32.6465 H   0  0  0  0  0  0
  1  5  1  0  0  0
  1  6  2  0  0  0
  1 11  1  0  0  0
  2  3  2  0  0  0
  2  8  1  0  0  0
  2 22  1  0  0  0
  3 10  1  0  0  0
  3 25  1  0  0  0
  4  9  1  0  0  0
  4 12  2  0  0  0
  4 18  1  0  0  0
  5 21  1  0  0  0
  5 23  1  0  0  0
  5 24  1  0  0  0
  6  7  1  0  0  0
  6 17  1  0  0  0
  7 20  1  0  0  0
  8 13  2  0  0  0
  8 14  1  0  0  0
  9 15  1  0  0  0
  9 16  2  0  0  0
 10 11  2  0  0  0
 10 19  1  0  0  0
 11 26  1  0  0  0
 13 16  1  0  0  0
 13 27  1  0  0  0
 14 15  2  0  0  0
 14 28  1  0  0  0
 15 29  1  0  0  0
 16 30  1  0  0  0
 17 19  2  0  0  0
 17 31  1  0  0  0
 18 32  1  0  0  0
 19 33  1  0  0  0
 20 21  1  0  0  0
 20 34  1  0  0  0
 20 35  1  0  0  0
 21 36  1  0  0  0
 21 37  1  0  0  0
 22 38  1  0  0  0
 22 39  1  0  0  0
 22 40  1  0  0  0
 23 41  1  0  0  0
 23 42  1  0  0  0
 23 43  1  0  0  0
 24 44  1  0  0  0
 24 45  1  0  0  0
 24 46  1  0  0  0
M  END
> <s_m_entry_id>
31098

> <s_m_entry_name>
dock_pv.311

> <s_m_Source_Path>
/home/csk/Desktop/cluster/DUD-E-result/rxra

> <s_m_Source_File>
dock_pv.maegz

> <i_m_Source_File_Index>
311

> <chembl_id>
CHEMBL87147

> <chembl_pref_name>
None

> <i_lp_mmshare_version>
53161

> <r_lp_tautomer_probability>
1

> <s_lp_Force_Field>
OPLS_2005

> <r_lp_Energy>
25.3544

> <b_lp_Chiralities_Consistent>
1

> <s_lp_Variant>
CHEMBL2061_lig250-1

> <s_i_glide_gridfile>
glide-grid_1mv9

> <i_i_glide_lignum>
292

> <i_i_glide_rotatable_bonds>
4

> <r_i_docking_score>
-9.7195909574407

> <r_i_glide_ligand_efficiency>
-0.404982956560029

> <r_i_glide_ligand_efficiency_sa>
-1.16817298892355

> <r_i_glide_ligand_efficiency_ln>
-2.32634411908265

> <r_i_glide_gscore>
-9.7195909574407

> <r_i_glide_lipo>
-5.78813706338341

> <r_i_glide_hbond>
0

> <r_i_glide_metal>
0

> <r_i_glide_rewards>
-2.21376490154053

> <r_i_glide_evdw>
-39.7017517089844

> <r_i_glide_ecoul>
-1.51913118362427

> <r_i_glide_erotb>
0.495268270476102

> <r_i_glide_esite>
0

> <r_i_glide_emodel>
-58.4052316694943

> <r_i_glide_energy>
-41.2208828926086

> <r_i_glide_einternal>
7.23488616943359

> <i_i_glide_confnum>
53

> <i_i_glide_posenum>
109

> <r_i_glide_eff_state_penalty>
0

> <s_user_duplicate_titles>
CHEMBL2061_lig250

> <i_f3d_flags>
0

> <s_m_subgroup_title>
dock_pv

> <s_m_subgroupid>
dock_pv

> <b_m_subgroup_collapsed>
1

$$$$
CHEMBL2061_lig491
                    3D
 Schrodinger Suite 2021-1.
 47 48  0  0  1  0            999 V2000
   54.6145   45.8887   29.7391 C   0  0  0  0  0  0
   55.9196   46.0949   29.1523 C   0  0  0  0  0  0
   57.1277   45.5598   29.4758 C   0  0  0  0  0  0
   57.3659   44.4634   30.5160 C   0  0  0  0  0  0
   58.2632   46.0691   28.7174 C   0  0  0  0  0  0
   59.5414   46.0824   29.1379 C   0  0  0  0  0  0
   60.6226   46.6047   28.3161 C   0  0  0  0  0  0
   61.8787   46.8891   28.7301 C   0  0  0  0  0  0
   62.2378   46.7769   30.1478 C   0  0  0  0  0  0
   63.6422   46.2650   32.1696 C   0  0  0  0  0  0
   62.6357   46.6022   33.0990 C   0  0  0  0  0  0
   62.8671   46.5728   34.4738 C   0  0  0  0  0  0
   64.1139   46.2005   34.9666 C   0  0  0  0  0  0
   65.1245   45.8714   34.0684 C   0  0  0  0  0  0
   64.9088   45.9041   32.6866 C   0  0  0  0  0  0
   53.6104   46.4766   29.3390 O   0  0  0  0  0  0
   54.5951   45.0852   30.8364 O   0  0  0  0  0  0
   62.8688   47.4353   27.7060 C   0  0  0  0  0  0
   66.0365   45.5467   31.7391 C   0  0  0  0  0  0
   65.4740   44.7816   30.5421 C   0  0  0  0  0  0
   64.4791   45.6676   29.7765 C   0  0  0  0  0  0
   63.3899   46.2847   30.6741 C   0  0  0  0  0  0
   64.3732   46.1634   36.4629 C   0  0  0  0  0  0
   55.8680   46.8260   28.3574 H   0  0  0  0  0  0
   58.2337   43.8661   30.2334 H   0  0  0  0  0  0
   57.5379   44.8822   31.5080 H   0  0  0  0  0  0
   56.5676   43.7238   30.5448 H   0  0  0  0  0  0
   58.0660   46.4767   27.7392 H   0  0  0  0  0  0
   59.7737   45.6925   30.1190 H   0  0  0  0  0  0
   60.3969   46.7657   27.2706 H   0  0  0  0  0  0
   61.4852   47.1630   30.8121 H   0  0  0  0  0  0
   61.6411   46.8797   32.7934 H   0  0  0  0  0  0
   62.0698   46.8333   35.1548 H   0  0  0  0  0  0
   66.0967   45.5880   34.4458 H   0  0  0  0  0  0
   55.4868   44.7947   31.0386 H   0  0  0  0  0  0
   63.4259   48.2646   28.1392 H   0  0  0  0  0  0
   63.5902   46.6842   27.3916 H   0  0  0  0  0  0
   62.3722   47.8466   26.8263 H   0  0  0  0  0  0
   66.8065   44.9610   32.2424 H   0  0  0  0  0  0
   66.5005   46.4709   31.3977 H   0  0  0  0  0  0
   64.9858   43.8625   30.8715 H   0  0  0  0  0  0
   66.2898   44.4810   29.8834 H   0  0  0  0  0  0
   64.0299   45.0757   28.9782 H   0  0  0  0  0  0
   65.0391   46.4659   29.2900 H   0  0  0  0  0  0
   64.0173   47.0801   36.9347 H   0  0  0  0  0  0
   63.8488   45.3230   36.9186 H   0  0  0  0  0  0
   65.4338   46.0769   36.6930 H   0  0  0  0  0  0
  1  2  1  0  0  0
  1 16  2  0  0  0
  1 17  1  0  0  0
  2  3  2  0  0  0
  2 24  1  0  0  0
  3  4  1  0  0  0
  3  5  1  0  0  0
  4 25  1  0  0  0
  4 26  1  0  0  0
  4 27  1  0  0  0
  5  6  2  0  0  0
  5 28  1  0  0  0
  6  7  1  0  0  0
  6 29  1  0  0  0
  7  8  2  0  0  0
  7 30  1  0  0  0
  8  9  1  0  0  0
  8 18  1  0  0  0
  9 22  2  0  0  0
  9 31  1  0  0  0
 10 22  1  0  0  0
 10 11  2  0  0  0
 10 15  1  0  0  0
 11 12  1  0  0  0
 11 32  1  0  0  0
 12 13  2  0  0  0
 12 33  1  0  0  0
 13 14  1  0  0  0
 13 23  1  0  0  0
 14 15  2  0  0  0
 14 34  1  0  0  0
 15 19  1  0  0  0
 17 35  1  0  0  0
 18 36  1  0  0  0
 18 37  1  0  0  0
 18 38  1  0  0  0
 19 20  1  0  0  0
 19 39  1  0  0  0
 19 40  1  0  0  0
 20 21  1  0  0  0
 20 41  1  0  0  0
 20 42  1  0  0  0
 21 22  1  0  0  0
 21 43  1  0  0  0
 21 44  1  0  0  0
 23 45  1  0  0  0
 23 46  1  0  0  0
 23 47  1  0  0  0
M  END
> <s_m_entry_id>
31099

> <s_m_entry_name>
dock_pv.312

> <s_m_Source_Path>
/home/csk/Desktop/cluster/DUD-E-result/rxra

> <s_m_Source_File>
dock_pv.maegz

> <i_m_Source_File_Index>
312

> <chembl_id>
CHEMBL3289658

> <chembl_pref_name>
None

> <i_lp_mmshare_version>
53161

> <r_lp_tautomer_probability>
1

> <s_lp_Force_Field>
OPLS_2005

> <r_lp_Energy>
28.128945

> <b_lp_Chiralities_Consistent>
1

> <s_lp_Variant>
CHEMBL2061_lig491-1

> <s_i_glide_gridfile>
glide-grid_1mv9

> <i_i_glide_lignum>
580

> <i_i_glide_rotatable_bonds>
5

> <r_i_docking_score>
-9.69268453582359

> <r_i_glide_ligand_efficiency>
-0.421421066774939

> <r_i_glide_ligand_efficiency_sa>
-1.19846545516248

> <r_i_glide_ligand_efficiency_ln>
-2.34377900916635

> <r_i_glide_gscore>
-9.69268453582359

> <r_i_glide_lipo>
-5.68265871204065

> <r_i_glide_hbond>
-0.242825999242639

> <r_i_glide_metal>
0

> <r_i_glide_rewards>
-1.80593247945325

> <r_i_glide_evdw>
-41.1981010437012

> <r_i_glide_ecoul>
-4.45712184906006

> <r_i_glide_erotb>
0.778020826509068

> <r_i_glide_esite>
-0.0108148420520583

> <r_i_glide_emodel>
-70.2476035384289

> <r_i_glide_energy>
-45.6552228927612

> <r_i_glide_einternal>
4.05603408813477

> <i_i_glide_confnum>
56

> <i_i_glide_posenum>
102

> <r_i_glide_eff_state_penalty>
0

> <s_user_duplicate_titles>
CHEMBL2061_lig491

> <i_f3d_flags>
0

> <s_m_subgroup_title>
dock_pv

> <s_m_subgroupid>
dock_pv

> <b_m_subgroup_collapsed>
1

$$$$
CHEMBL2061_lig393
                    3D
 Schrodinger Suite 2021-1.
 68 71  0  0  1  0            999 V2000
   60.3934   46.1346   29.1249 C   0  0  0  0  0  0
   59.7109   47.1783   28.5840 C   0  0  0  0  0  0
   62.9547   46.4203   32.6473 C   0  0  0  0  0  0
   64.2626   45.8618   32.5706 C   0  0  0  0  0  0
   62.6655   45.9697   30.2468 C   0  0  0  0  0  0
   61.8642   46.0225   28.9590 C   0  0  2  0  0  0
   58.4093   47.1201   28.9386 O   0  0  0  0  0  0
   62.2170   46.5124   31.4542 C   0  0  0  0  0  0
   59.4516   45.3221   29.7348 C   0  0  0  0  0  0
   58.2544   45.9853   29.6723 C   0  0  0  0  0  0
   64.7258   45.4103   31.3162 C   0  0  0  0  0  0
   63.9064   45.3703   30.1907 C   0  0  0  0  0  0
   62.3313   46.9284   33.9808 C   0  0  0  0  0  0
   65.1365   45.6162   33.8222 C   0  0  0  0  0  0
   56.9805   45.6769   30.2274 C   0  0  0  0  0  0
   54.7695   44.7473   30.2811 C   0  0  0  0  0  0
   56.0203   44.9703   29.6223 C   0  0  0  0  0  0
   64.6190   46.4336   35.0345 C   0  0  0  0  0  0
   63.0998   46.3618   35.2093 C   0  0  0  0  0  0
   54.4084   45.2713   31.3360 O   0  0  0  0  0  0
   64.2982   44.6973   29.0467 O   0  0  0  0  0  0
   60.3026   48.2800   27.7471 C   0  0  0  0  0  0
   54.0080   43.8717   29.5828 O   0  0  0  0  0  0
   62.4552   47.0054   27.9136 C   0  0  0  0  0  0
   65.0746   44.1066   34.1555 C   0  0  0  0  0  0
   66.5874   46.0774   33.5798 C   0  0  0  0  0  0
   62.4111   48.4725   34.0121 C   0  0  0  0  0  0
   60.8648   46.4427   34.1243 C   0  0  0  0  0  0
   61.8148   48.3863   28.0035 C   0  0  0  0  0  0
   63.6081   43.4662   28.6478 C   0  0  0  0  0  0
   63.0837   42.6579   29.7387 C   0  0  0  0  0  0
   64.0069   42.4772   30.9839 C   0  0  0  0  0  0
   61.8719   45.0552   28.5107 H   0  0  0  0  0  0
   61.2492   46.9868   31.4679 H   0  0  0  0  0  0
   59.6352   44.3540   30.1599 H   0  0  0  0  0  0
   65.6965   44.9441   31.2340 H   0  0  0  0  0  0
   56.8433   46.0762   31.2216 H   0  0  0  0  0  0
   56.1585   44.5626   28.6288 H   0  0  0  0  0  0
   65.1027   46.0976   35.9550 H   0  0  0  0  0  0
   64.9153   47.4808   34.9373 H   0  0  0  0  0  0
   62.8268   45.3184   35.3763 H   0  0  0  0  0  0
   62.8152   46.8749   36.1322 H   0  0  0  0  0  0
   60.1187   48.0978   26.6905 H   0  0  0  0  0  0
   59.7636   49.1679   28.0543 H   0  0  0  0  0  0
   54.4568   43.5363   28.7970 H   0  0  0  0  0  0
   62.2834   46.6016   26.9185 H   0  0  0  0  0  0
   63.5386   47.0806   28.0037 H   0  0  0  0  0  0
   65.6574   43.8764   35.0437 H   0  0  0  0  0  0
   64.0565   43.7469   34.3194 H   0  0  0  0  0  0
   65.4962   43.5037   33.3495 H   0  0  0  0  0  0
   67.1730   46.0540   34.4987 H   0  0  0  0  0  0
   67.1120   45.4303   32.8864 H   0  0  0  0  0  0
   66.6335   47.0943   33.1883 H   0  0  0  0  0  0
   61.8305   48.8720   34.8453 H   0  0  0  0  0  0
   63.4306   48.8446   34.1281 H   0  0  0  0  0  0
   62.0098   48.9154   33.0997 H   0  0  0  0  0  0
   60.4332   46.7248   35.0843 H   0  0  0  0  0  0
   60.2144   46.8751   33.3664 H   0  0  0  0  0  0
   60.7797   45.3604   34.0425 H   0  0  0  0  0  0
   62.2720   49.0714   27.2893 H   0  0  0  0  0  0
   62.0004   48.7947   28.9965 H   0  0  0  0  0  0
   62.9189   43.5587   27.8027 H   0  0  0  0  0  0
   64.3471   42.7617   28.2676 H   0  0  0  0  0  0
   62.1035   43.1148   29.7390 H   0  0  0  0  0  0
   62.8074   41.6775   29.4044 H   0  0  0  0  0  0
   63.9933   41.4426   31.3352 H   0  0  0  0  0  0
   65.0368   42.7271   30.7544 H   0  0  0  0  0  0
   63.6436   43.0725   31.8190 H   0  0  0  0  0  0
  1  2  2  0  0  0
  1  6  1  0  0  0
  1  9  1  0  0  0
  2  7  1  0  0  0
  2 22  1  0  0  0
  3  8  2  0  0  0
  3 13  1  0  0  0
  3  4  1  0  0  0
  4 11  2  0  0  0
  4 14  1  0  0  0
  5  6  1  0  0  0
  5  8  1  0  0  0
  5 12  2  0  0  0
  6 24  1  0  0  0
  6 33  1  0  0  0
  7 10  1  0  0  0
  8 34  1  0  0  0
  9 10  2  0  0  0
  9 35  1  0  0  0
 10 15  1  0  0  0
 11 12  1  0  0  0
 11 36  1  0  0  0
 12 21  1  0  0  0
 13 19  1  0  0  0
 13 27  1  0  0  0
 13 28  1  0  0  0
 14 18  1  0  0  0
 14 25  1  0  0  0
 14 26  1  0  0  0
 15 17  2  0  0  0
 15 37  1  0  0  0
 16 17  1  0  0  0
 16 20  2  0  0  0
 16 23  1  0  0  0
 17 38  1  0  0  0
 18 19  1  0  0  0
 18 39  1  0  0  0
 18 40  1  0  0  0
 19 41  1  0  0  0
 19 42  1  0  0  0
 21 30  1  0  0  0
 22 29  1  0  0  0
 22 43  1  0  0  0
 22 44  1  0  0  0
 23 45  1  0  0  0
 24 29  1  0  0  0
 24 46  1  0  0  0
 24 47  1  0  0  0
 25 48  1  0  0  0
 25 49  1  0  0  0
 25 50  1  0  0  0
 26 51  1  0  0  0
 26 52  1  0  0  0
 26 53  1  0  0  0
 27 54  1  0  0  0
 27 55  1  0  0  0
 27 56  1  0  0  0
 28 57  1  0  0  0
 28 58  1  0  0  0
 28 59  1  0  0  0
 29 60  1  0  0  0
 29 61  1  0  0  0
 30 31  1  0  0  0
 30 62  1  0  0  0
 30 63  1  0  0  0
 31 32  1  0  0  0
 31 64  1  0  0  0
 31 65  1  0  0  0
 32 66  1  0  0  0
 32 67  1  0  0  0
 32 68  1  0  0  0
M  END
> <s_m_entry_id>
31100

> <s_m_entry_name>
dock_pv.313

> <s_m_Source_Path>
/home/csk/Desktop/cluster/DUD-E-result/rxra

> <s_m_Source_File>
dock_pv.maegz

> <i_m_Source_File_Index>
313

> <chembl_id>
CHEMBL64771

> <chembl_pref_name>
None

> <i_lp_mmshare_version>
53161

> <r_lp_tautomer_probability>
1

> <s_lp_Force_Field>
OPLS_2005

> <r_lp_Energy>
26.956058

> <b_lp_Chiralities_Consistent>
1

> <s_lp_Variant>
CHEMBL2061_lig393-2

> <s_i_glide_gridfile>
glide-grid_1mv9

> <i_i_glide_lignum>
457

> <i_i_glide_rotatable_bonds>
7

> <r_i_docking_score>
-9.67205764467566

> <r_i_glide_ligand_efficiency>
-0.302251801396115

> <r_i_glide_ligand_efficiency_sa>
-0.95958965388239

> <r_i_glide_ligand_efficiency_ln>
-2.16583735697669

> <r_i_glide_gscore>
-9.67205764467566

> <r_i_glide_lipo>
-7.05332250273827

> <r_i_glide_hbond>
-0.167788557639193

> <r_i_glide_metal>
0

> <r_i_glide_rewards>
-1.59501715442195

> <r_i_glide_evdw>
-6.51235675811768

> <r_i_glide_ecoul>
-7.02152013778687

> <r_i_glide_erotb>
0.522916428697662

> <r_i_glide_esite>
0

> <r_i_glide_emodel>
-37.1669776957668

> <r_i_glide_energy>
-13.5338768959045

> <r_i_glide_einternal>
19.52099609375

> <i_i_glide_confnum>
288

> <i_i_glide_posenum>
369

> <r_i_glide_eff_state_penalty>
0

> <s_user_duplicate_titles>
CHEMBL2061_lig393,96828

> <i_f3d_flags>
0

> <s_m_subgroup_title>
dock_pv

> <s_m_subgroupid>
dock_pv

> <b_m_subgroup_collapsed>
1

$$$$
CHEMBL2061_lig81 
                    3D
 Schrodinger Suite 2021-1.
 42 45  0  0  1  0            999 V2000
   61.5213   47.0408   27.7392 C   0  0  0  0  0  0
   62.4926   47.4435   28.6538 C   0  0  0  0  0  0
   62.3048   47.2221   30.0190 C   0  0  0  0  0  0
   60.3608   46.4121   28.1899 C   0  0  0  0  0  0
   60.1685   46.2029   29.5595 C   0  0  0  0  0  0
   61.1384   46.5929   30.4716 C   0  0  0  0  0  0
   60.6328   46.2542   31.8114 C   0  0  0  0  0  0
   59.2676   45.7908   31.6221 C   0  0  0  0  0  0
   59.0334   45.6496   30.3059 C   0  0  0  0  0  0
   58.2850   45.5044   32.7414 C   0  0  0  0  0  0
   57.7943   45.0957   29.6348 C   0  0  0  0  0  0
   57.0802   46.1413   28.7788 C   0  0  0  0  0  0
   55.6068   46.2463   29.0328 C   0  0  0  0  0  0
   54.8594   47.2752   28.5389 N   0  0  0  0  0  0
   53.6082   47.1597   28.9370 N   0  0  0  0  0  0
   53.6081   46.0321   29.7390 N   0  0  0  0  0  0
   54.8620   45.4502   29.7583 N   0  0  0  0  0  0
   61.2579   46.3048   33.0066 C   0  0  0  0  0  0
   62.6723   46.5366   33.3073 C   0  0  0  0  0  0
   63.6591   45.8984   32.5432 C   0  0  0  0  0  0
   65.0068   46.0717   32.8368 C   0  0  0  0  0  0
   65.3716   46.8762   33.9090 C   0  0  0  0  0  0
   64.3993   47.5011   34.6880 C   0  0  0  0  0  0
   63.0499   47.3301   34.3986 C   0  0  0  0  0  0
   61.8780   48.0775   35.4314 Cl  0  0  0  0  0  0
   61.6648   47.2324   26.6866 H   0  0  0  0  0  0
   63.3851   47.9387   28.3021 H   0  0  0  0  0  0
   63.0547   47.5828   30.7050 H   0  0  0  0  0  0
   59.6161   46.1139   27.4679 H   0  0  0  0  0  0
   58.4659   46.1592   33.5910 H   0  0  0  0  0  0
   57.2541   45.6731   32.4309 H   0  0  0  0  0  0
   58.4082   44.4771   33.0704 H   0  0  0  0  0  0
   58.0086   44.2147   29.0356 H   0  0  0  0  0  0
   57.1536   44.7024   30.4212 H   0  0  0  0  0  0
   57.5295   47.1234   28.9396 H   0  0  0  0  0  0
   57.2671   45.9147   27.7390 H   0  0  0  0  0  0
   55.1940   48.0348   27.9644 H   0  0  0  0  0  0
   60.6744   46.0596   33.8815 H   0  0  0  0  0  0
   63.3836   45.2542   31.7205 H   0  0  0  0  0  0
   65.7607   45.5808   32.2392 H   0  0  0  0  0  0
   66.4096   47.0124   34.1389 H   0  0  0  0  0  0
   64.6878   48.1220   35.5206 H   0  0  0  0  0  0
  1  2  2  0  0  0
  1  4  1  0  0  0
  1 26  1  0  0  0
  2  3  1  0  0  0
  2 27  1  0  0  0
  3  6  2  0  0  0
  3 28  1  0  0  0
  4  5  2  0  0  0
  4 29  1  0  0  0
  5  6  1  0  0  0
  5  9  1  0  0  0
  6  7  1  0  0  0
  7  8  1  0  0  0
  7 18  2  0  0  0
  8  9  2  0  0  0
  8 10  1  0  0  0
  9 11  1  0  0  0
 10 30  1  0  0  0
 10 31  1  0  0  0
 10 32  1  0  0  0
 11 12  1  0  0  0
 11 33  1  0  0  0
 11 34  1  0  0  0
 12 13  1  0  0  0
 12 35  1  0  0  0
 12 36  1  0  0  0
 13 14  1  0  0  0
 13 17  2  0  0  0
 14 15  1  0  0  0
 14 37  1  0  0  0
 15 16  2  0  0  0
 16 17  1  0  0  0
 18 19  1  0  0  0
 18 38  1  0  0  0
 19 20  2  0  0  0
 19 24  1  0  0  0
 20 21  1  0  0  0
 20 39  1  0  0  0
 21 22  2  0  0  0
 21 40  1  0  0  0
 22 23  1  0  0  0
 22 41  1  0  0  0
 23 24  2  0  0  0
 23 42  1  0  0  0
 24 25  1  0  0  0
M  END
> <s_m_entry_id>
31101

> <s_m_entry_name>
dock_pv.314

> <s_m_Source_Path>
/home/csk/Desktop/cluster/DUD-E-result/rxra

> <s_m_Source_File>
dock_pv.maegz

> <i_m_Source_File_Index>
314

> <chembl_id>
CHEMBL4436926

> <chembl_pref_name>
None

> <i_lp_mmshare_version>
53161

> <r_lp_tautomer_probability>
0.3

> <s_lp_Force_Field>
OPLS_2005

> <r_lp_Energy>
39.846707

> <b_lp_Chiralities_Consistent>
1

> <s_lp_Variant>
CHEMBL2061_lig81 -1

> <s_i_glide_gridfile>
glide-grid_1mv9

> <i_i_glide_lignum>
111

> <i_i_glide_rotatable_bonds>
4

> <r_i_docking_score>
-9.61868986362074

> <r_i_glide_ligand_efficiency>
-0.38474759454483

> <r_i_glide_ligand_efficiency_sa>
-1.12500878997673

> <r_i_glide_ligand_efficiency_ln>
-2.27991774655307

> <r_i_glide_gscore>
-9.61868986362074

> <r_i_glide_lipo>
-5.47330481565866

> <r_i_glide_hbond>
0

> <r_i_glide_metal>
0

> <r_i_glide_rewards>
-2.31621089901383

> <r_i_glide_evdw>
-35.8525390625

> <r_i_glide_ecoul>
-2.05247139930725

> <r_i_glide_erotb>
0.469456110915117

> <r_i_glide_esite>
-0.198132596842277

> <r_i_glide_emodel>
-55.6169222065675

> <r_i_glide_energy>
-37.9050104618073

> <r_i_glide_einternal>
2.38486194610596

> <i_i_glide_confnum>
4

> <i_i_glide_posenum>
5

> <r_i_glide_eff_state_penalty>
0

> <s_user_duplicate_titles>
CHEMBL2061_lig81 ,CHEMBL2061_lig81 

> <i_f3d_flags>
0

> <s_m_subgroup_title>
dock_pv

> <s_m_subgroupid>
dock_pv

> <b_m_subgroup_collapsed>
1

$$$$
CHEMBL2061_lig557 
                    3D
 Schrodinger Suite 2021-1.
 45 47  0  0  1  0            999 V2000
   60.8461   46.4843   31.2809 C   0  0  0  0  0  0
   61.5792   46.9744   30.1903 C   0  0  0  0  0  0
   60.9719   46.9509   28.9275 C   0  0  0  0  0  0
   59.6968   46.5048   28.7424 N   0  0  0  0  0  0
   59.0507   46.0770   29.8593 C   0  0  0  0  0  0
   59.5668   46.0769   31.1031 N   0  0  0  0  0  0
   61.3768   46.4769   32.5955 N   0  0  0  0  0  0
   62.7345   46.5691   32.9636 C   0  0  0  0  0  0
   63.0657   47.3605   34.0711 C   0  0  0  0  0  0
   64.3790   47.4667   34.5032 C   0  0  0  0  0  0
   65.3913   46.8190   33.8033 C   0  0  0  0  0  0
   57.7383   45.6625   29.8193 O   0  0  0  0  0  0
   56.9605   45.8498   28.6495 C   0  0  0  0  0  0
   55.7537   44.9083   28.7340 C   0  0  0  0  0  0
   54.6913   45.3484   29.7397 C   0  0  0  0  0  0
   54.0639   46.4910   29.3391 O   0  0  0  0  0  0
   54.4086   44.7173   30.7542 O   0  0  0  0  0  0
   63.7684   45.9019   32.2697 C   0  0  0  0  0  0
   65.0925   46.0717   32.6728 C   0  0  0  0  0  0
   66.0387   45.2952   31.7922 C   0  0  0  0  0  0
   65.1603   44.7746   30.6633 C   0  0  0  0  0  0
   63.7447   44.8049   31.2126 C   0  0  0  0  0  0
   61.7390   47.3953   27.6898 C   0  0  0  0  0  0
   60.9230   47.6778   26.6723 F   0  0  0  0  0  0
   62.4742   48.4770   27.9453 F   0  0  0  0  0  0
   62.5583   46.4052   27.3389 F   0  0  0  0  0  0
   60.4612   46.1371   33.7072 C   0  0  0  0  0  0
   62.5851   47.3466   30.3103 H   0  0  0  0  0  0
   62.2995   47.9005   34.6085 H   0  0  0  0  0  0
   64.5903   48.0768   35.3602 H   0  0  0  0  0  0
   66.4080   46.8772   34.1383 H   0  0  0  0  0  0
   57.5304   45.6770   27.7391 H   0  0  0  0  0  0
   56.6267   46.8772   28.6132 H   0  0  0  0  0  0
   56.1085   43.9252   29.0288 H   0  0  0  0  0  0
   55.2924   44.7985   27.7528 H   0  0  0  0  0  0
   54.4495   46.8301   28.5290 H   0  0  0  0  0  0
   66.8079   45.9311   31.3720 H   0  0  0  0  0  0
   66.5008   44.4779   32.3436 H   0  0  0  0  0  0
   65.2255   45.4471   29.8061 H   0  0  0  0  0  0
   65.4572   43.7855   30.3129 H   0  0  0  0  0  0
   63.5658   43.8486   31.7012 H   0  0  0  0  0  0
   63.0015   44.8848   30.4238 H   0  0  0  0  0  0
   60.9512   46.0766   34.6798 H   0  0  0  0  0  0
   59.6688   46.8767   33.7998 H   0  0  0  0  0  0
   59.9920   45.1677   33.5577 H   0  0  0  0  0  0
  1  2  2  0  0  0
  1  6  1  0  0  0
  1  7  1  0  0  0
  2  3  1  0  0  0
  2 28  1  0  0  0
  3  4  2  0  0  0
  3 23  1  0  0  0
  4  5  1  0  0  0
  5  6  2  0  0  0
  5 12  1  0  0  0
  7  8  1  0  0  0
  7 27  1  0  0  0
  8  9  2  0  0  0
  8 18  1  0  0  0
  9 10  1  0  0  0
  9 29  1  0  0  0
 10 11  2  0  0  0
 10 30  1  0  0  0
 11 19  1  0  0  0
 11 31  1  0  0  0
 12 13  1  0  0  0
 13 14  1  0  0  0
 13 32  1  0  0  0
 13 33  1  0  0  0
 14 15  1  0  0  0
 14 34  1  0  0  0
 14 35  1  0  0  0
 15 16  1  0  0  0
 15 17  2  0  0  0
 16 36  1  0  0  0
 18 19  2  0  0  0
 18 22  1  0  0  0
 19 20  1  0  0  0
 20 21  1  0  0  0
 20 37  1  0  0  0
 20 38  1  0  0  0
 21 22  1  0  0  0
 21 39  1  0  0  0
 21 40  1  0  0  0
 22 41  1  0  0  0
 22 42  1  0  0  0
 23 24  1  0  0  0
 23 25  1  0  0  0
 23 26  1  0  0  0
 27 43  1  0  0  0
 27 44  1  0  0  0
 27 45  1  0  0  0
M  END
> <s_m_entry_id>
31102

> <s_m_entry_name>
dock_pv.315

> <s_m_Source_Path>
/home/csk/Desktop/cluster/DUD-E-result/rxra

> <s_m_Source_File>
dock_pv.maegz

> <i_m_Source_File_Index>
315

> <chembl_id>
CHEMBL4558880

> <chembl_pref_name>
None

> <i_lp_mmshare_version>
53161

> <r_lp_tautomer_probability>
1

> <s_lp_Force_Field>
OPLS_2005

> <r_lp_Energy>
26.930524

> <b_lp_Chiralities_Consistent>
1

> <s_lp_Variant>
CHEMBL2061_lig557 -1

> <s_i_glide_gridfile>
glide-grid_1mv9

> <i_i_glide_lignum>
657

> <i_i_glide_rotatable_bonds>
8

> <r_i_docking_score>
-9.60777252553031

> <r_i_glide_ligand_efficiency>
-0.355843426871493

> <r_i_glide_ligand_efficiency_sa>
-1.06753027944168

> <r_i_glide_ligand_efficiency_ln>
-2.23653104743401

> <r_i_glide_gscore>
-9.60777252553031

> <r_i_glide_lipo>
-4.31784508302912

> <r_i_glide_hbond>
-0.253169418930391

> <r_i_glide_metal>
0

> <r_i_glide_rewards>
-3.39466662912881

> <r_i_glide_evdw>
-37.9185791015625

> <r_i_glide_ecoul>
-3.64654564857483

> <r_i_glide_erotb>
0.800819407922363

> <r_i_glide_esite>
0

> <r_i_glide_emodel>
-60.4890264436356

> <r_i_glide_energy>
-41.5651247501373

> <r_i_glide_einternal>
8.39468574523926

> <i_i_glide_confnum>
107

> <i_i_glide_posenum>
391

> <r_i_glide_eff_state_penalty>
0

> <s_user_duplicate_titles>
CHEMBL2061_lig557 

> <i_f3d_flags>
0

> <s_m_subgroup_title>
dock_pv

> <s_m_subgroupid>
dock_pv

> <b_m_subgroup_collapsed>
1

$$$$
CHEMBL2061_lig415
                    3D
 Schrodinger Suite 2021-1.
 66 68  0  0  1  0            999 V2000
   61.9935   47.2456   31.4811 C   0  0  0  0  0  0
   62.6051   47.1927   32.7484 C   0  0  0  0  0  0
   63.4950   46.1511   32.9939 C   0  0  0  0  0  0
   62.3170   46.3291   30.4737 C   0  0  0  0  0  0
   63.2902   45.3546   30.7287 C   0  0  0  0  0  0
   63.8560   45.2589   31.9981 C   0  0  0  0  0  0
   64.7887   44.0771   32.1249 C   0  0  0  0  0  0
   65.0058   43.7061   30.6384 C   0  0  0  0  0  0
   63.8044   44.2251   29.8564 C   0  0  0  0  0  0
   61.6616   46.3651   29.2288 N   0  0  0  0  0  0
   60.6772   45.3298   29.0128 C   0  0  0  0  0  0
   59.3534   45.4520   29.7364 C   0  0  0  0  0  0
   58.1898   45.7092   29.1102 C   0  0  0  0  0  0
   56.8788   45.7523   29.7446 C   0  0  0  0  0  0
   55.8387   46.1482   28.9661 C   0  0  0  0  0  0
   56.7562   45.3806   31.2246 C   0  0  0  0  0  0
   54.4495   46.2345   29.3391 C   0  0  0  0  0  0
   54.0414   45.2061   30.1367 O   0  0  0  0  0  0
   53.6946   47.1166   28.9390 O   0  0  0  0  0  0
   61.5440   47.5971   28.4459 C   0  0  0  0  0  0
   62.3483   48.2349   33.8606 C   0  0  0  0  0  0
   63.6005   48.4102   34.7793 C   0  0  0  0  0  0
   61.2076   47.6780   34.7523 C   0  0  0  0  0  0
   62.0086   49.6428   33.2552 C   0  0  0  0  0  0
   66.0943   44.5052   32.8518 C   0  0  0  0  0  0
   64.1215   42.9105   32.9042 C   0  0  0  0  0  0
   62.9226   48.1953   28.1579 C   0  0  0  0  0  0
   63.9523   47.2761   27.5404 C   0  0  0  0  0  0
   63.4504   48.4673   26.7725 C   0  0  0  0  0  0
   61.2201   47.9655   31.2700 H   0  0  0  0  0  0
   63.9217   46.0225   33.9738 H   0  0  0  0  0  0
   65.2071   42.6460   30.4700 H   0  0  0  0  0  0
   65.8803   44.2332   30.2505 H   0  0  0  0  0  0
   63.0675   43.4300   29.7399 H   0  0  0  0  0  0
   64.0913   44.5531   28.8578 H   0  0  0  0  0  0
   61.0916   44.3729   29.3306 H   0  0  0  0  0  0
   60.5242   45.2770   27.9351 H   0  0  0  0  0  0
   59.3955   45.2887   30.8016 H   0  0  0  0  0  0
   58.2452   45.8794   28.0438 H   0  0  0  0  0  0
   56.0080   46.4549   27.9419 H   0  0  0  0  0  0
   57.5267   45.8971   31.7965 H   0  0  0  0  0  0
   55.8261   45.6651   31.7122 H   0  0  0  0  0  0
   56.9612   44.3169   31.3389 H   0  0  0  0  0  0
   54.7819   44.6049   30.2550 H   0  0  0  0  0  0
   61.0564   47.3742   27.4954 H   0  0  0  0  0  0
   60.9188   48.3133   28.9782 H   0  0  0  0  0  0
   64.5188   48.4779   34.1931 H   0  0  0  0  0  0
   63.5478   49.2857   35.4216 H   0  0  0  0  0  0
   63.7399   47.5697   35.4609 H   0  0  0  0  0  0
   60.3825   47.2766   34.1637 H   0  0  0  0  0  0
   61.5490   46.8443   35.3673 H   0  0  0  0  0  0
   60.8087   48.4363   35.4287 H   0  0  0  0  0  0
   61.8531   49.6593   32.1880 H   0  0  0  0  0  0
   61.2080   50.1713   33.7384 H   0  0  0  0  0  0
   62.8147   50.3557   33.3428 H   0  0  0  0  0  0
   66.5870   43.6764   33.3389 H   0  0  0  0  0  0
   66.8070   44.9854   32.1833 H   0  0  0  0  0  0
   65.9175   45.2099   33.6628 H   0  0  0  0  0  0
   64.8078   42.0773   33.0388 H   0  0  0  0  0  0
   63.8057   43.2214   33.9006 H   0  0  0  0  0  0
   63.2453   42.4923   32.4026 H   0  0  0  0  0  0
   63.2069   48.8766   28.9412 H   0  0  0  0  0  0
   64.9642   47.2749   27.9447 H   0  0  0  0  0  0
   63.6081   46.2823   27.2514 H   0  0  0  0  0  0
   62.8068   48.3061   25.9091 H   0  0  0  0  0  0
   64.1673   49.2768   26.6349 H   0  0  0  0  0  0
  1  2  2  0  0  0
  1  4  1  0  0  0
  1 30  1  0  0  0
  2 21  1  0  0  0
  2  3  1  0  0  0
  3  6  2  0  0  0
  3 31  1  0  0  0
  4  5  2  0  0  0
  4 10  1  0  0  0
  5  9  1  0  0  0
  5  6  1  0  0  0
  6  7  1  0  0  0
  7  8  1  0  0  0
  7 25  1  0  0  0
  7 26  1  0  0  0
  8  9  1  0  0  0
  8 32  1  0  0  0
  8 33  1  0  0  0
  9 34  1  0  0  0
  9 35  1  0  0  0
 10 20  1  0  0  0
 10 11  1  0  0  0
 11 12  1  0  0  0
 11 36  1  0  0  0
 11 37  1  0  0  0
 12 13  2  0  0  0
 12 38  1  0  0  0
 13 14  1  0  0  0
 13 39  1  0  0  0
 14 15  2  0  0  0
 14 16  1  0  0  0
 15 17  1  0  0  0
 15 40  1  0  0  0
 16 41  1  0  0  0
 16 42  1  0  0  0
 16 43  1  0  0  0
 17 18  1  0  0  0
 17 19  2  0  0  0
 18 44  1  0  0  0
 20 27  1  0  0  0
 20 45  1  0  0  0
 20 46  1  0  0  0
 21 22  1  0  0  0
 21 23  1  0  0  0
 21 24  1  0  0  0
 22 47  1  0  0  0
 22 48  1  0  0  0
 22 49  1  0  0  0
 23 50  1  0  0  0
 23 51  1  0  0  0
 23 52  1  0  0  0
 24 53  1  0  0  0
 24 54  1  0  0  0
 24 55  1  0  0  0
 25 56  1  0  0  0
 25 57  1  0  0  0
 25 58  1  0  0  0
 26 59  1  0  0  0
 26 60  1  0  0  0
 26 61  1  0  0  0
 27 28  1  0  0  0
 27 29  1  0  0  0
 27 62  1  0  0  0
 28 29  1  0  0  0
 28 63  1  0  0  0
 28 64  1  0  0  0
 29 65  1  0  0  0
 29 66  1  0  0  0
M  END
> <s_m_entry_id>
31103

> <s_m_entry_name>
dock_pv.316

> <s_m_Source_Path>
/home/csk/Desktop/cluster/DUD-E-result/rxra

> <s_m_Source_File>
dock_pv.maegz

> <i_m_Source_File_Index>
316

> <chembl_id>
CHEMBL377178

> <chembl_pref_name>
None

> <i_lp_mmshare_version>
53161

> <r_lp_tautomer_probability>
1

> <s_lp_Force_Field>
OPLS_2005

> <r_lp_Energy>
46.265025

> <b_lp_Chiralities_Consistent>
1

> <s_lp_Variant>
CHEMBL2061_lig415-1

> <s_i_glide_gridfile>
glide-grid_1mv9

> <i_i_glide_lignum>
486

> <i_i_glide_rotatable_bonds>
9

> <r_i_docking_score>
-9.59700590667452

> <r_i_glide_ligand_efficiency>
-0.33093123816119

> <r_i_glide_ligand_efficiency_sa>
-1.01672561000647

> <r_i_glide_ligand_efficiency_ln>
-2.19747099355627

> <r_i_glide_gscore>
-9.59700590667452

> <r_i_glide_lipo>
-6.15879594818539

> <r_i_glide_hbond>
-0.16

> <r_i_glide_metal>
0

> <r_i_glide_rewards>
-1.94277295469864

> <r_i_glide_evdw>
-33.7786483764648

> <r_i_glide_ecoul>
-3.27346873283386

> <r_i_glide_erotb>
0.87482463031958

> <r_i_glide_esite>
-0.0303089053617499

> <r_i_glide_emodel>
-33.8896268165445

> <r_i_glide_energy>
-37.0521171092987

> <r_i_glide_einternal>
7.62407732009888

> <i_i_glide_confnum>
155

> <i_i_glide_posenum>
239

> <r_i_glide_eff_state_penalty>
0

> <s_user_duplicate_titles>
CHEMBL2061_lig415,345761

> <i_f3d_flags>
0

> <s_m_subgroup_title>
dock_pv

> <s_m_subgroupid>
dock_pv

> <b_m_subgroup_collapsed>
1

$$$$
CHEMBL2061_lig468
                    3D
 Schrodinger Suite 2021-1.
 52 53  0  0  1  0            999 V2000
   64.3183   45.5594   31.5013 C   0  0  0  0  0  0
   63.2303   46.2928   32.0137 C   0  0  0  0  0  0
   62.1500   46.5856   31.1655 C   0  0  0  0  0  0
   62.1209   46.1649   29.8373 C   0  0  0  0  0  0
   63.1956   45.4129   29.3520 C   0  0  0  0  0  0
   64.2846   45.1227   30.1706 C   0  0  0  0  0  0
   65.5283   45.1743   32.3672 C   0  0  0  0  0  0
   65.1961   44.0034   33.3112 C   0  0  0  0  0  0
   66.1738   46.3533   33.1250 C   0  0  0  0  0  0
   63.2710   46.7009   33.3340 O   0  0  0  0  0  0
   61.0217   46.5239   29.0181 N   0  0  0  0  0  0
   59.6587   46.2056   29.3067 C   0  0  0  0  0  0
   61.3420   47.1035   27.6917 C   0  0  0  0  0  0
   62.6660   47.8886   27.5583 C   0  0  0  0  0  0
   59.3620   45.6770   30.5284 N   0  0  0  0  0  0
   58.0874   45.3171   30.8298 C   0  0  0  0  0  0
   57.0257   45.4743   29.9364 C   0  0  0  0  0  0
   57.3121   46.0517   28.6959 C   0  0  0  0  0  0
   58.6267   46.3979   28.3756 C   0  0  0  0  0  0
   55.6210   45.1163   30.3347 C   0  0  0  0  0  0
   55.2058   45.2775   31.4774 O   0  0  0  0  0  0
   54.8554   44.5885   29.3387 O   0  0  0  0  0  0
   62.1295   47.3340   33.9095 C   0  0  0  0  0  0
   62.4412   47.9683   35.2523 C   0  0  0  0  0  0
   61.2472   48.1309   36.1716 C   0  0  0  0  0  0
   63.6757   48.3783   35.5897 C   0  0  0  0  0  0
   61.3078   47.1588   31.5151 H   0  0  0  0  0  0
   63.1904   45.0547   28.3334 H   0  0  0  0  0  0
   65.1027   44.5470   29.7622 H   0  0  0  0  0  0
   66.3033   44.8203   31.6845 H   0  0  0  0  0  0
   64.8039   43.1462   32.7615 H   0  0  0  0  0  0
   66.0796   43.6681   33.8552 H   0  0  0  0  0  0
   64.4456   44.2902   34.0489 H   0  0  0  0  0  0
   66.1736   47.2715   32.5388 H   0  0  0  0  0  0
   65.6570   46.5611   34.0596 H   0  0  0  0  0  0
   67.2070   46.1281   33.3866 H   0  0  0  0  0  0
   61.2991   46.3098   26.9446 H   0  0  0  0  0  0
   60.5682   47.8221   27.4196 H   0  0  0  0  0  0
   62.6734   48.4734   26.6377 H   0  0  0  0  0  0
   62.8052   48.5746   28.3964 H   0  0  0  0  0  0
   63.5378   47.2362   27.5065 H   0  0  0  0  0  0
   57.9358   44.9073   31.8197 H   0  0  0  0  0  0
   56.5310   46.2172   27.9683 H   0  0  0  0  0  0
   58.8074   46.7937   27.3908 H   0  0  0  0  0  0
   55.3672   44.3162   28.5716 H   0  0  0  0  0  0
   61.3254   46.6037   34.0147 H   0  0  0  0  0  0
   61.7823   48.1561   33.2847 H   0  0  0  0  0  0
   60.4107   48.5774   35.6379 H   0  0  0  0  0  0
   60.9324   47.1551   36.5375 H   0  0  0  0  0  0
   61.4773   48.7552   37.0343 H   0  0  0  0  0  0
   64.4998   48.2650   34.9043 H   0  0  0  0  0  0
   63.8908   48.8374   36.5388 H   0  0  0  0  0  0
  1  2  2  0  0  0
  1  7  1  0  0  0
  1  6  1  0  0  0
  2 10  1  0  0  0
  2  3  1  0  0  0
  3  4  2  0  0  0
  3 27  1  0  0  0
  4  5  1  0  0  0
  4 11  1  0  0  0
  5  6  2  0  0  0
  5 28  1  0  0  0
  6 29  1  0  0  0
  7  8  1  0  0  0
  7  9  1  0  0  0
  7 30  1  0  0  0
  8 31  1  0  0  0
  8 32  1  0  0  0
  8 33  1  0  0  0
  9 34  1  0  0  0
  9 35  1  0  0  0
  9 36  1  0  0  0
 10 23  1  0  0  0
 11 13  1  0  0  0
 11 12  1  0  0  0
 12 15  2  0  0  0
 12 19  1  0  0  0
 13 14  1  0  0  0
 13 37  1  0  0  0
 13 38  1  0  0  0
 14 39  1  0  0  0
 14 40  1  0  0  0
 14 41  1  0  0  0
 15 16  1  0  0  0
 16 17  2  0  0  0
 16 42  1  0  0  0
 17 18  1  0  0  0
 17 20  1  0  0  0
 18 19  2  0  0  0
 18 43  1  0  0  0
 19 44  1  0  0  0
 20 21  2  0  0  0
 20 22  1  0  0  0
 22 45  1  0  0  0
 23 24  1  0  0  0
 23 46  1  0  0  0
 23 47  1  0  0  0
 24 25  1  0  0  0
 24 26  2  0  0  0
 25 48  1  0  0  0
 25 49  1  0  0  0
 25 50  1  0  0  0
 26 51  1  0  0  0
 26 52  1  0  0  0
M  END
> <s_m_entry_id>
31104

> <s_m_entry_name>
dock_pv.317

> <s_m_Source_Path>
/home/csk/Desktop/cluster/DUD-E-result/rxra

> <s_m_Source_File>
dock_pv.maegz

> <i_m_Source_File_Index>
317

> <chembl_id>
CHEMBL1688385

> <chembl_pref_name>
None

> <i_lp_mmshare_version>
53161

> <r_lp_tautomer_probability>
1

> <s_lp_Force_Field>
OPLS_2005

> <r_lp_Energy>
25.375047

> <b_lp_Chiralities_Consistent>
1

> <s_lp_Variant>
CHEMBL2061_lig468-1

> <s_i_glide_gridfile>
glide-grid_1mv9

> <i_i_glide_lignum>
557

> <i_i_glide_rotatable_bonds>
9

> <r_i_docking_score>
-9.59661260807269

> <r_i_glide_ligand_efficiency>
-0.369100484925873

> <r_i_glide_ligand_efficiency_sa>
-1.09345873425262

> <r_i_glide_ligand_efficiency_ln>
-2.25373298195154

> <r_i_glide_gscore>
-9.59661260807269

> <r_i_glide_lipo>
-6.04080109841101

> <r_i_glide_hbond>
0

> <r_i_glide_metal>
0

> <r_i_glide_rewards>
-1.60422581300155

> <r_i_glide_evdw>
-49.2783546447754

> <r_i_glide_ecoul>
-2.66861581802368

> <r_i_glide_erotb>
0.912624408282189

> <r_i_glide_esite>
0

> <r_i_glide_emodel>
-76.3899694909638

> <r_i_glide_energy>
-51.9469704627991

> <r_i_glide_einternal>
11.0738754272461

> <i_i_glide_confnum>
133

> <i_i_glide_posenum>
171

> <r_i_glide_eff_state_penalty>
0

> <s_user_duplicate_titles>
CHEMBL2061_lig468

> <i_f3d_flags>
0

> <s_m_subgroup_title>
dock_pv

> <s_m_subgroupid>
dock_pv

> <b_m_subgroup_collapsed>
1

$$$$
CHEMBL2061_lig457
                    3D
 Schrodinger Suite 2021-1.
 59 62  0  0  1  0            999 V2000
   65.6247   46.4768   32.9044 C   0  0  0  0  0  0
   65.1061   46.8561   34.2947 C   0  0  0  0  0  0
   63.9473   45.9390   34.7556 C   0  0  0  0  0  0
   64.6632   46.0606   32.0450 N   0  0  0  0  0  0
   66.8079   46.5577   32.6593 O   0  0  0  0  0  0
   63.4881   46.4193   36.1388 C   0  0  0  0  0  0
   64.4223   44.4634   34.8334 C   0  0  0  0  0  0
   63.2813   46.0951   32.3302 C   0  0  0  0  0  0
   62.8611   46.0774   33.6758 C   0  0  0  0  0  0
   61.4951   46.1252   33.9474 C   0  0  0  0  0  0
   60.5514   46.1206   32.9230 C   0  0  0  0  0  0
   60.9677   46.1181   31.5668 C   0  0  0  0  0  0
   62.3365   46.0927   31.3048 C   0  0  0  0  0  0
   60.0198   46.0777   30.4117 C   0  0  0  0  0  0
   58.8813   45.2764   30.5053 C   0  0  0  0  0  0
   57.8605   45.3048   29.5798 C   0  0  0  0  0  0
   58.0582   46.0769   28.4502 C   0  0  0  0  0  0
   59.2174   46.8168   28.2603 C   0  0  0  0  0  0
   60.2049   46.8628   29.2504 C   0  0  0  0  0  0
   56.6294   44.4265   29.7941 C   0  0  1  0  0  0
   61.3242   47.6775   29.1642 O   0  0  0  0  0  0
   65.1131   45.6398   30.7039 C   0  0  0  0  0  0
   59.1016   46.1045   33.3789 C   0  0  0  0  0  0
   55.6164   44.7355   30.8935 C   0  0  0  0  0  0
   55.1808   44.7545   29.4488 C   0  0  1  0  0  0
   54.8137   46.1259   28.8839 C   0  0  0  0  0  0
   54.0086   46.8515   29.6847 O   0  0  0  0  0  0
   55.0881   46.4769   27.7498 O   0  0  0  0  0  0
   61.7606   48.2528   27.9240 C   0  0  0  0  0  0
   62.9156   47.4423   27.3093 C   0  0  0  0  0  0
   63.9356   47.2793   28.1405 F   0  0  0  0  0  0
   62.5215   46.2262   26.9401 F   0  0  0  0  0  0
   63.4007   48.0769   26.2457 F   0  0  0  0  0  0
   65.9693   46.7501   34.9395 H   0  0  0  0  0  0
   64.8241   47.9100   34.2771 H   0  0  0  0  0  0
   64.3211   46.4909   36.8405 H   0  0  0  0  0  0
   62.9912   47.3902   36.1083 H   0  0  0  0  0  0
   62.7970   45.6773   36.5383 H   0  0  0  0  0  0
   65.3853   44.4219   35.3412 H   0  0  0  0  0  0
   63.7202   43.8357   35.3834 H   0  0  0  0  0  0
   64.5578   43.9993   33.8557 H   0  0  0  0  0  0
   61.1529   46.1081   34.9718 H   0  0  0  0  0  0
   62.6623   46.0610   30.2767 H   0  0  0  0  0  0
   58.8023   44.6126   31.3385 H   0  0  0  0  0  0
   57.3260   46.0579   27.6802 H   0  0  0  0  0  0
   59.2887   47.3604   27.3389 H   0  0  0  0  0  0
   56.8925   43.3712   29.7379 H   0  0  0  0  0  0
   66.1369   45.2598   30.6999 H   0  0  0  0  0  0
   64.4908   44.8365   30.3083 H   0  0  0  0  0  0
   65.0760   46.4808   30.0150 H   0  0  0  0  0  0
   58.8242   45.1458   33.8163 H   0  0  0  0  0  0
   59.0205   46.8765   34.1388 H   0  0  0  0  0  0
   58.3620   46.4038   32.6452 H   0  0  0  0  0  0
   55.7335   45.6623   31.4587 H   0  0  0  0  0  0
   55.2091   43.9339   31.5101 H   0  0  0  0  0  0
   54.5486   43.9490   29.0774 H   0  0  0  0  0  0
   53.9582   47.7216   29.2791 H   0  0  0  0  0  0
   60.9828   48.4283   27.1879 H   0  0  0  0  0  0
   62.1289   49.2527   28.1394 H   0  0  0  0  0  0
  1  5  2  0  0  0
  1  2  1  0  0  0
  1  4  1  0  0  0
  2  3  1  0  0  0
  2 34  1  0  0  0
  2 35  1  0  0  0
  3  9  1  0  0  0
  3  6  1  0  0  0
  3  7  1  0  0  0
  4  8  1  0  0  0
  4 22  1  0  0  0
  6 36  1  0  0  0
  6 37  1  0  0  0
  6 38  1  0  0  0
  7 39  1  0  0  0
  7 40  1  0  0  0
  7 41  1  0  0  0
  8  9  2  0  0  0
  8 13  1  0  0  0
  9 10  1  0  0  0
 10 11  2  0  0  0
 10 42  1  0  0  0
 11 23  1  0  0  0
 11 12  1  0  0  0
 12 14  1  0  0  0
 12 13  2  0  0  0
 13 43  1  0  0  0
 14 19  1  0  0  0
 14 15  2  0  0  0
 15 16  1  0  0  0
 15 44  1  0  0  0
 16 17  2  0  0  0
 16 20  1  0  0  0
 17 18  1  0  0  0
 17 45  1  0  0  0
 18 19  2  0  0  0
 18 46  1  0  0  0
 19 21  1  0  0  0
 20 24  1  0  0  0
 20 25  1  0  0  0
 20 47  1  0  0  0
 21 29  1  0  0  0
 22 48  1  0  0  0
 22 49  1  0  0  0
 22 50  1  0  0  0
 23 51  1  0  0  0
 23 52  1  0  0  0
 23 53  1  0  0  0
 24 25  1  0  0  0
 24 54  1  0  0  0
 24 55  1  0  0  0
 25 26  1  0  0  0
 25 56  1  0  0  0
 26 27  1  0  0  0
 26 28  2  0  0  0
 27 57  1  0  0  0
 29 30  1  0  0  0
 29 58  1  0  0  0
 29 59  1  0  0  0
 30 31  1  0  0  0
 30 32  1  0  0  0
 30 33  1  0  0  0
M  END
> <s_m_entry_id>
31107

> <s_m_entry_name>
dock_pv.320

> <s_m_Source_Path>
/home/csk/Desktop/cluster/DUD-E-result/rxra

> <s_m_Source_File>
dock_pv.maegz

> <i_m_Source_File_Index>
320

> <chembl_id>
CHEMBL247400

> <chembl_pref_name>
None

> <i_lp_mmshare_version>
53161

> <r_lp_tautomer_probability>
1

> <s_lp_Force_Field>
OPLS_2005

> <r_lp_Energy>
44.991806

> <b_lp_Chiralities_Consistent>
1

> <s_lp_Variant>
CHEMBL2061_lig457-2

> <s_i_glide_gridfile>
glide-grid_1mv9

> <i_i_glide_lignum>
534

> <i_i_glide_rotatable_bonds>
7

> <r_i_docking_score>
-9.55633805403008

> <r_i_glide_ligand_efficiency>
-0.289586001637275

> <r_i_glide_ligand_efficiency_sa>
-0.928857040655203

> <r_i_glide_ligand_efficiency_ln>
-2.12528010314596

> <r_i_glide_gscore>
-9.55633805403008

> <r_i_glide_lipo>
-5.62585225563313

> <r_i_glide_hbond>
0

> <r_i_glide_metal>
0

> <r_i_glide_rewards>
-2.96268102954545

> <r_i_glide_evdw>
-21.5645046234131

> <r_i_glide_ecoul>
-2.41573786735535

> <r_i_glide_erotb>
0.472781142422455

> <r_i_glide_esite>
0

> <r_i_glide_emodel>
-30.3064022864155

> <r_i_glide_energy>
-23.9802424907684

> <r_i_glide_einternal>
15.5950059890747

> <i_i_glide_confnum>
270

> <i_i_glide_posenum>
92

> <r_i_glide_eff_state_penalty>
0

> <s_user_duplicate_titles>
CHEMBL2061_lig457

> <i_f3d_flags>
0

> <s_m_subgroup_title>
dock_pv

> <s_m_subgroupid>
dock_pv

> <b_m_subgroup_collapsed>
1

$$$$
CHEMBL2061_lig536 
                    3D
 Schrodinger Suite 2021-1.
 39 41  0  0  1  0            999 V2000
   59.3088   46.0533   29.7030 C   0  0  0  0  0  0
   58.4152   46.0765   28.6273 C   0  0  0  0  0  0
   57.0843   45.6859   28.8049 C   0  0  0  0  0  0
   56.6323   45.2773   30.0654 C   0  0  0  0  0  0
   57.5211   45.2809   31.1394 C   0  0  0  0  0  0
   58.8344   45.6770   30.9539 C   0  0  0  0  0  0
   55.1936   44.9352   30.3127 C   0  0  0  0  0  0
   54.5987   44.1985   29.3390 O   0  0  0  0  0  0
   54.6104   45.2771   31.3365 O   0  0  0  0  0  0
   60.7934   46.3628   29.4865 C   0  0  0  0  0  0
   61.5239   46.5333   30.7224 O   0  0  0  0  0  0
   62.8742   46.1928   30.8107 C   0  0  0  0  0  0
   63.5615   46.3092   32.0527 C   0  0  0  0  0  0
   64.9033   45.9009   32.1323 C   0  0  0  0  0  0
   65.5769   45.4091   31.0259 C   0  0  0  0  0  0
   64.9232   45.3446   29.8075 C   0  0  0  0  0  0
   63.5981   45.7377   29.6939 C   0  0  0  0  0  0
   62.9320   46.8248   33.3080 C   0  0  0  0  0  0
   63.6447   47.6299   34.2121 C   0  0  0  0  0  0
   63.0560   48.0769   35.3930 C   0  0  0  0  0  0
   61.7403   47.7239   35.6802 C   0  0  0  0  0  0
   61.0294   46.9170   34.7979 C   0  0  0  0  0  0
   61.6258   46.4770   33.6315 C   0  0  0  0  0  0
   58.7611   46.3706   27.6468 H   0  0  0  0  0  0
   56.4131   45.7248   27.9578 H   0  0  0  0  0  0
   57.2078   45.0267   32.1389 H   0  0  0  0  0  0
   59.4788   45.6786   31.8093 H   0  0  0  0  0  0
   55.2105   43.8812   28.6676 H   0  0  0  0  0  0
   61.1425   45.5133   28.9016 H   0  0  0  0  0  0
   60.9025   47.2655   28.8832 H   0  0  0  0  0  0
   65.4371   45.9529   33.0699 H   0  0  0  0  0  0
   66.6111   45.1077   31.1030 H   0  0  0  0  0  0
   65.4643   45.0240   28.9387 H   0  0  0  0  0  0
   63.1683   45.6803   28.7079 H   0  0  0  0  0  0
   64.6627   47.9240   33.9979 H   0  0  0  0  0  0
   63.6122   48.7036   36.0749 H   0  0  0  0  0  0
   61.2719   48.0761   36.5875 H   0  0  0  0  0  0
   60.0080   46.6315   34.9702 H   0  0  0  0  0  0
   61.0782   45.8107   32.9957 H   0  0  0  0  0  0
  1  2  2  0  0  0
  1  6  1  0  0  0
  1 10  1  0  0  0
  2  3  1  0  0  0
  2 24  1  0  0  0
  3  4  2  0  0  0
  3 25  1  0  0  0
  4  5  1  0  0  0
  4  7  1  0  0  0
  5  6  2  0  0  0
  5 26  1  0  0  0
  6 27  1  0  0  0
  7  8  1  0  0  0
  7  9  2  0  0  0
  8 28  1  0  0  0
 10 11  1  0  0  0
 10 29  1  0  0  0
 10 30  1  0  0  0
 11 12  1  0  0  0
 12 13  2  0  0  0
 12 17  1  0  0  0
 13 14  1  0  0  0
 13 18  1  0  0  0
 14 15  2  0  0  0
 14 31  1  0  0  0
 15 16  1  0  0  0
 15 32  1  0  0  0
 16 17  2  0  0  0
 16 33  1  0  0  0
 17 34  1  0  0  0
 18 19  2  0  0  0
 18 23  1  0  0  0
 19 20  1  0  0  0
 19 35  1  0  0  0
 20 21  2  0  0  0
 20 36  1  0  0  0
 21 22  1  0  0  0
 21 37  1  0  0  0
 22 23  2  0  0  0
 22 38  1  0  0  0
 23 39  1  0  0  0
M  END
> <s_m_entry_id>
31108

> <s_m_entry_name>
dock_pv.321

> <s_m_Source_Path>
/home/csk/Desktop/cluster/DUD-E-result/rxra

> <s_m_Source_File>
dock_pv.maegz

> <i_m_Source_File_Index>
321

> <chembl_id>
CHEMBL4455253

> <chembl_pref_name>
None

> <i_lp_mmshare_version>
53161

> <r_lp_tautomer_probability>
1

> <s_lp_Force_Field>
OPLS_2005

> <r_lp_Energy>
27.1901

> <b_lp_Chiralities_Consistent>
1

> <s_lp_Variant>
CHEMBL2061_lig536 -1

> <s_i_glide_gridfile>
glide-grid_1mv9

> <i_i_glide_lignum>
636

> <i_i_glide_rotatable_bonds>
6

> <r_i_docking_score>
-9.54729325350384

> <r_i_glide_ligand_efficiency>
-0.41509970667408

> <r_i_glide_ligand_efficiency_sa>
-1.18048834792268

> <r_i_glide_ligand_efficiency_ln>
-2.30862207876617

> <r_i_glide_gscore>
-9.54729325350384

> <r_i_glide_lipo>
-5.45422965682391

> <r_i_glide_hbond>
-0.0863092911462885

> <r_i_glide_metal>
0

> <r_i_glide_rewards>
-2.35289164620946

> <r_i_glide_evdw>
-37.8912887573242

> <r_i_glide_ecoul>
-5.03185033798218

> <r_i_glide_erotb>
0.995479329239359

> <r_i_glide_esite>
0

> <r_i_glide_emodel>
-63.6323322260865

> <r_i_glide_energy>
-42.9231390953064

> <r_i_glide_einternal>
5.64333915710449

> <i_i_glide_confnum>
121

> <i_i_glide_posenum>
359

> <r_i_glide_eff_state_penalty>
0

> <s_user_duplicate_titles>
CHEMBL2061_lig536 

> <i_f3d_flags>
0

> <s_m_subgroup_title>
dock_pv

> <s_m_subgroupid>
dock_pv

> <b_m_subgroup_collapsed>
1

$$$$
CHEMBL2061_lig508
                    3D
 Schrodinger Suite 2021-1.
 54 55  0  0  1  0            999 V2000
   63.0304   46.2475   30.3675 C   0  0  0  0  0  0
   63.0868   46.0261   29.0273 C   0  0  0  0  0  0
   62.3913   46.7586   27.9703 C   0  0  0  0  0  0
   61.0426   46.7572   27.8269 C   0  0  0  0  0  0
   63.2481   47.5439   26.9915 C   0  0  0  0  0  0
   60.0777   46.0764   28.6823 C   0  0  0  0  0  0
   58.7474   46.1358   28.4686 C   0  0  0  0  0  0
   57.6833   45.5542   29.2932 C   0  0  0  0  0  0
   56.4153   45.8896   28.9444 C   0  0  0  0  0  0
   57.9969   44.6424   30.4796 C   0  0  0  0  0  0
   55.1935   45.5728   29.6499 C   0  0  0  0  0  0
   54.2168   46.4749   29.3332 O   0  0  0  0  0  0
   55.0166   44.6447   30.4369 O   0  0  0  0  0  0
   62.1885   47.4038   30.9180 C   0  0  0  0  0  0
   61.4820   46.9150   32.1762 C   0  0  0  0  0  0
   62.5219   46.5772   33.2453 C   0  0  0  0  0  0
   63.7780   45.4177   31.3601 C   0  0  0  0  0  0
   63.5690   45.6032   32.7044 C   0  0  0  0  0  0
   64.7756   44.3273   30.9021 C   0  0  0  0  0  0
   66.0136   44.8771   30.1695 C   0  0  0  0  0  0
   64.1265   43.1012   30.2180 C   0  0  0  0  0  0
   64.3638   44.9053   33.8125 C   0  0  0  0  0  0
   65.8523   45.1535   33.9652 C   0  0  0  0  0  0
   64.8943   45.6954   34.9961 C   0  0  0  0  0  0
   63.7114   45.2379   28.6488 H   0  0  0  0  0  0
   60.6362   47.3243   27.0005 H   0  0  0  0  0  0
   63.8453   48.2735   27.5353 H   0  0  0  0  0  0
   63.9708   46.8768   26.5192 H   0  0  0  0  0  0
   62.6784   48.0579   26.2182 H   0  0  0  0  0  0
   60.4582   45.5196   29.5245 H   0  0  0  0  0  0
   58.4437   46.6955   27.5975 H   0  0  0  0  0  0
   56.2571   46.4782   28.0562 H   0  0  0  0  0  0
   59.0358   44.3357   30.5295 H   0  0  0  0  0  0
   57.6926   45.1089   31.4174 H   0  0  0  0  0  0
   57.4244   43.7157   30.3972 H   0  0  0  0  0  0
   54.5552   47.1449   28.7353 H   0  0  0  0  0  0
   62.8105   48.2694   31.1375 H   0  0  0  0  0  0
   61.4334   47.7603   30.2238 H   0  0  0  0  0  0
   60.8090   47.6744   32.5411 H   0  0  0  0  0  0
   60.8584   46.0491   31.9533 H   0  0  0  0  0  0
   62.0368   46.1623   34.1299 H   0  0  0  0  0  0
   63.0098   47.4901   33.5898 H   0  0  0  0  0  0
   65.2064   43.8687   31.7851 H   0  0  0  0  0  0
   66.4799   45.6682   30.7558 H   0  0  0  0  0  0
   66.7678   44.1016   30.0319 H   0  0  0  0  0  0
   65.7842   45.2767   29.1859 H   0  0  0  0  0  0
   63.6092   42.4802   30.9505 H   0  0  0  0  0  0
   63.3898   43.3470   29.4564 H   0  0  0  0  0  0
   64.8774   42.4723   29.7421 H   0  0  0  0  0  0
   64.0108   43.8996   34.0455 H   0  0  0  0  0  0
   66.4893   44.3080   34.2229 H   0  0  0  0  0  0
   66.3433   45.8493   33.2833 H   0  0  0  0  0  0
   64.7356   46.7731   35.0433 H   0  0  0  0  0  0
   64.8566   45.2350   35.9849 H   0  0  0  0  0  0
  1  2  2  0  0  0
  1 14  1  0  0  0
  1 17  1  0  0  0
  2  3  1  0  0  0
  2 25  1  0  0  0
  3  4  2  0  0  0
  3  5  1  0  0  0
  4  6  1  0  0  0
  4 26  1  0  0  0
  5 27  1  0  0  0
  5 28  1  0  0  0
  5 29  1  0  0  0
  6  7  2  0  0  0
  6 30  1  0  0  0
  7  8  1  0  0  0
  7 31  1  0  0  0
  8  9  2  0  0  0
  8 10  1  0  0  0
  9 11  1  0  0  0
  9 32  1  0  0  0
 10 33  1  0  0  0
 10 34  1  0  0  0
 10 35  1  0  0  0
 11 12  1  0  0  0
 11 13  2  0  0  0
 12 36  1  0  0  0
 14 15  1  0  0  0
 14 37  1  0  0  0
 14 38  1  0  0  0
 15 16  1  0  0  0
 15 39  1  0  0  0
 15 40  1  0  0  0
 16 18  1  0  0  0
 16 41  1  0  0  0
 16 42  1  0  0  0
 17 18  2  0  0  0
 17 19  1  0  0  0
 18 22  1  0  0  0
 19 20  1  0  0  0
 19 21  1  0  0  0
 19 43  1  0  0  0
 20 44  1  0  0  0
 20 45  1  0  0  0
 20 46  1  0  0  0
 21 47  1  0  0  0
 21 48  1  0  0  0
 21 49  1  0  0  0
 22 23  1  0  0  0
 22 24  1  0  0  0
 22 50  1  0  0  0
 23 24  1  0  0  0
 23 51  1  0  0  0
 23 52  1  0  0  0
 24 53  1  0  0  0
 24 54  1  0  0  0
M  END
> <s_m_entry_id>
31109

> <s_m_entry_name>
dock_pv.322

> <s_m_Source_Path>
/home/csk/Desktop/cluster/DUD-E-result/rxra

> <s_m_Source_File>
dock_pv.maegz

> <i_m_Source_File_Index>
322

> <chembl_id>
CHEMBL3622720

> <chembl_pref_name>
None

> <i_lp_mmshare_version>
53161

> <r_lp_tautomer_probability>
1

> <s_lp_Force_Field>
OPLS_2005

> <r_lp_Energy>
44.998633

> <b_lp_Chiralities_Consistent>
1

> <s_lp_Variant>
CHEMBL2061_lig508-1

> <s_i_glide_gridfile>
glide-grid_1mv9

> <i_i_glide_lignum>
601

> <i_i_glide_rotatable_bonds>
7

> <r_i_docking_score>
-9.54410513090275

> <r_i_glide_ligand_efficiency>
-0.397671047120948

> <r_i_glide_ligand_efficiency_sa>
-1.14708179245261

> <r_i_glide_ligand_efficiency_ln>
-2.28434230827225

> <r_i_glide_gscore>
-9.54410513090275

> <r_i_glide_lipo>
-5.75368956421418

> <r_i_glide_hbond>
0

> <r_i_glide_metal>
0

> <r_i_glide_rewards>
-2.16087972756392

> <r_i_glide_evdw>
-41.2904663085938

> <r_i_glide_ecoul>
-2.96561574935913

> <r_i_glide_erotb>
0.879829838708909

> <r_i_glide_esite>
0

> <r_i_glide_emodel>
-65.9009589542115

> <r_i_glide_energy>
-44.2560820579529

> <r_i_glide_einternal>
4.30549383163452

> <i_i_glide_confnum>
150

> <i_i_glide_posenum>
295

> <r_i_glide_eff_state_penalty>
0

> <s_user_duplicate_titles>
CHEMBL2061_lig508

> <i_f3d_flags>
0

> <s_m_subgroup_title>
dock_pv

> <s_m_subgroupid>
dock_pv

> <b_m_subgroup_collapsed>
1

$$$$
CHEMBL2061_lig570
                    3D
 Schrodinger Suite 2021-1.
 66 68  0  0  1  0            999 V2000
   62.9382   46.5539   33.3195 C   0  0  0  0  0  0
   64.0262   45.6746   33.0658 C   0  0  0  0  0  0
   62.0651   46.1150   31.0555 C   0  0  0  0  0  0
   61.0790   46.5055   30.0102 C   0  0  0  0  0  0
   61.4121   47.2662   29.0461 N   0  0  0  0  0  0
   62.0292   46.7962   32.2765 C   0  0  0  0  0  0
   64.0569   44.9961   31.8483 C   0  0  0  0  0  0
   63.0850   45.1587   30.8756 C   0  0  0  0  0  0
   65.1406   45.3730   34.0890 C   0  0  0  0  0  0
   62.7471   47.2677   34.6808 C   0  0  0  0  0  0
   55.4596   45.0200   30.2352 C   0  0  0  0  0  0
   59.6529   46.0764   30.0476 C   0  0  0  0  0  0
   56.9257   45.3262   30.1519 C   0  0  0  0  0  0
   63.6172   46.5933   35.7611 C   0  0  0  0  0  0
   65.0403   46.3549   35.2717 C   0  0  0  0  0  0
   54.8310   44.4770   29.3388 O   0  0  0  0  0  0
   58.8461   46.0772   28.8922 C   0  0  0  0  0  0
   59.0492   45.6770   31.2407 C   0  0  0  0  0  0
   57.7235   45.2774   31.2938 C   0  0  0  0  0  0
   57.5042   45.7010   28.9392 C   0  0  0  0  0  0
   54.8756   45.4799   31.3706 O   0  0  0  0  0  0
   63.1318   44.1441   29.7438 C   0  0  0  0  0  0
   63.1962   48.7368   34.5390 C   0  0  0  0  0  0
   64.9731   43.9292   34.6048 C   0  0  0  0  0  0
   66.5361   45.5974   33.4469 C   0  0  0  0  0  0
   61.2850   47.1328   35.1757 C   0  0  0  0  0  0
   62.8081   47.4640   28.9295 O   0  0  0  0  0  0
   63.2055   47.3453   27.5593 C   0  0  0  0  0  0
   62.5704   48.4769   26.7575 C   0  0  0  0  0  0
   62.7862   45.9746   26.9957 C   0  0  0  0  0  0
   64.7338   47.4826   27.4873 C   0  0  0  0  0  0
   61.2567   47.5351   32.4300 H   0  0  0  0  0  0
   64.8308   44.2625   31.6776 H   0  0  0  0  0  0
   63.1861   45.6400   36.0709 H   0  0  0  0  0  0
   63.6421   47.2082   36.6622 H   0  0  0  0  0  0
   65.6187   46.0189   36.1256 H   0  0  0  0  0  0
   65.4692   47.2992   34.9389 H   0  0  0  0  0  0
   59.2548   46.3758   27.9370 H   0  0  0  0  0  0
   59.6040   45.6782   32.1675 H   0  0  0  0  0  0
   57.3308   45.0034   32.2533 H   0  0  0  0  0  0
   56.9144   45.7350   28.0338 H   0  0  0  0  0  0
   55.5422   45.9151   31.9070 H   0  0  0  0  0  0
   63.2084   43.1314   30.1395 H   0  0  0  0  0  0
   62.2347   44.1504   29.1255 H   0  0  0  0  0  0
   64.0457   44.2776   29.1684 H   0  0  0  0  0  0
   63.2082   49.2486   35.5021 H   0  0  0  0  0  0
   64.2010   48.8254   34.1390 H   0  0  0  0  0  0
   62.5362   49.2770   33.8608 H   0  0  0  0  0  0
   65.7464   43.7115   35.3383 H   0  0  0  0  0  0
   64.0053   43.7565   35.0740 H   0  0  0  0  0  0
   65.0821   43.1959   33.8045 H   0  0  0  0  0  0
   67.3313   45.4987   34.1872 H   0  0  0  0  0  0
   66.7525   44.8731   32.6624 H   0  0  0  0  0  0
   66.6249   46.5908   33.0040 H   0  0  0  0  0  0
   61.1677   47.5459   36.1786 H   0  0  0  0  0  0
   60.5857   47.6685   34.5400 H   0  0  0  0  0  0
   60.9625   46.0908   35.2091 H   0  0  0  0  0  0
   62.7941   49.4361   27.2246 H   0  0  0  0  0  0
   62.9431   48.4771   25.7368 H   0  0  0  0  0  0
   61.4846   48.3824   26.7140 H   0  0  0  0  0  0
   63.2077   45.1705   27.5543 H   0  0  0  0  0  0
   61.7081   45.8242   26.9392 H   0  0  0  0  0  0
   63.2080   45.7930   26.0433 H   0  0  0  0  0  0
   65.2079   46.7792   28.1694 H   0  0  0  0  0  0
   65.1115   47.2775   26.4850 H   0  0  0  0  0  0
   65.0627   48.4901   27.7388 H   0  0  0  0  0  0
  1  2  2  0  0  0
  1  6  1  0  0  0
  1 10  1  0  0  0
  2  7  1  0  0  0
  2  9  1  0  0  0
  3  6  2  0  0  0
  3  4  1  0  0  0
  3  8  1  0  0  0
  4  5  2  0  0  0
  4 12  1  0  0  0
  5 27  1  0  0  0
  6 32  1  0  0  0
  7  8  2  0  0  0
  7 33  1  0  0  0
  8 22  1  0  0  0
  9 24  1  0  0  0
  9 25  1  0  0  0
  9 15  1  0  0  0
 10 14  1  0  0  0
 10 23  1  0  0  0
 10 26  1  0  0  0
 11 13  1  0  0  0
 11 16  2  0  0  0
 11 21  1  0  0  0
 12 17  1  0  0  0
 12 18  2  0  0  0
 13 19  2  0  0  0
 13 20  1  0  0  0
 14 15  1  0  0  0
 14 34  1  0  0  0
 14 35  1  0  0  0
 15 36  1  0  0  0
 15 37  1  0  0  0
 17 20  2  0  0  0
 17 38  1  0  0  0
 18 19  1  0  0  0
 18 39  1  0  0  0
 19 40  1  0  0  0
 20 41  1  0  0  0
 21 42  1  0  0  0
 22 43  1  0  0  0
 22 44  1  0  0  0
 22 45  1  0  0  0
 23 46  1  0  0  0
 23 47  1  0  0  0
 23 48  1  0  0  0
 24 49  1  0  0  0
 24 50  1  0  0  0
 24 51  1  0  0  0
 25 52  1  0  0  0
 25 53  1  0  0  0
 25 54  1  0  0  0
 26 55  1  0  0  0
 26 56  1  0  0  0
 26 57  1  0  0  0
 27 28  1  0  0  0
 28 29  1  0  0  0
 28 30  1  0  0  0
 28 31  1  0  0  0
 29 58  1  0  0  0
 29 59  1  0  0  0
 29 60  1  0  0  0
 30 61  1  0  0  0
 30 62  1  0  0  0
 30 63  1  0  0  0
 31 64  1  0  0  0
 31 65  1  0  0  0
 31 66  1  0  0  0
M  END
> <s_m_entry_id>
31110

> <s_m_entry_name>
dock_pv.323

> <s_m_Source_Path>
/home/csk/Desktop/cluster/DUD-E-result/rxra

> <s_m_Source_File>
dock_pv.maegz

> <i_m_Source_File_Index>
323

> <chembl_id>
CHEMBL2110182

> <chembl_pref_name>
None

> <i_lp_mmshare_version>
53161

> <r_lp_tautomer_probability>
1

> <s_lp_Force_Field>
OPLS_2005

> <r_lp_Energy>
36.28952

> <b_lp_Chiralities_Consistent>
1

> <s_lp_Variant>
CHEMBL2061_lig570-1

> <s_i_glide_gridfile>
glide-grid_1mv9

> <i_i_glide_lignum>
701

> <i_i_glide_rotatable_bonds>
6

> <r_i_docking_score>
-9.53429787906413

> <r_i_glide_ligand_efficiency>
-0.307557996098843

> <r_i_glide_ligand_efficiency_sa>
-0.96615673732725

> <r_i_glide_ligand_efficiency_ln>
-2.15027636286813

> <r_i_glide_gscore>
-9.53429787906413

> <r_i_glide_lipo>
-6.54321201464916

> <r_i_glide_hbond>
0

> <r_i_glide_metal>
0

> <r_i_glide_rewards>
-1.34763484014048

> <r_i_glide_evdw>
-39.0497932434082

> <r_i_glide_ecoul>
-0.911061882972717

> <r_i_glide_erotb>
0.445697920341828

> <r_i_glide_esite>
0

> <r_i_glide_emodel>
-38.6847287672488

> <r_i_glide_energy>
-39.9608551263809

> <r_i_glide_einternal>
3.2119472026825

> <i_i_glide_confnum>
42

> <i_i_glide_posenum>
149

> <r_i_glide_eff_state_penalty>
0

> <s_user_duplicate_titles>
CHEMBL2061_lig570,CHEMBL2061_lig569,272691

> <i_f3d_flags>
0

> <s_m_subgroup_title>
dock_pv

> <s_m_subgroupid>
dock_pv

> <b_m_subgroup_collapsed>
1

$$$$
CHEMBL2061_lig473
                    3D
 Schrodinger Suite 2021-1.
 57 58  0  0  1  0            999 V2000
   63.7426   45.2773   30.9812 C   0  0  0  0  0  0
   62.8907   46.2719   31.5076 C   0  0  0  0  0  0
   61.7292   46.6185   30.7977 C   0  0  0  0  0  0
   61.4229   46.0216   29.5741 C   0  0  0  0  0  0
   62.2834   45.0494   29.0576 C   0  0  0  0  0  0
   63.4273   44.6808   29.7545 C   0  0  0  0  0  0
   64.9872   44.7635   31.7265 C   0  0  0  0  0  0
   64.6183   43.8105   32.8781 C   0  0  0  0  0  0
   63.2423   46.8489   32.7124 O   0  0  0  0  0  0
   60.2774   46.4298   28.8575 N   0  0  0  0  0  0
   58.9516   46.0304   29.1934 C   0  0  0  0  0  0
   60.5547   46.8356   27.4587 C   0  0  0  0  0  0
   61.7311   47.8167   27.2752 C   0  0  0  0  0  0
   57.9941   46.0770   28.2306 N   0  0  0  0  0  0
   56.7020   45.8243   28.5390 C   0  0  0  0  0  0
   56.2851   45.4563   29.8130 C   0  0  0  0  0  0
   57.2787   45.2766   30.7814 C   0  0  0  0  0  0
   58.6095   45.5932   30.4827 C   0  0  0  0  0  0
   54.8257   45.2828   30.1212 C   0  0  0  0  0  0
   54.4081   44.4744   30.9391 O   0  0  0  0  0  0
   54.0121   46.1595   29.4636 O   0  0  0  0  0  0
   62.4973   47.9150   33.3040 C   0  0  0  0  0  0
   65.9724   45.8589   32.1768 C   0  0  0  0  0  0
   61.6074   47.3749   34.4381 C   0  0  0  0  0  0
   62.3213   46.3798   35.3751 C   0  0  0  0  0  0
   63.6056   46.9045   36.0525 C   0  0  0  0  0  0
   64.4079   45.7770   36.7157 C   0  0  0  0  0  0
   61.0446   47.3592   31.1727 H   0  0  0  0  0  0
   62.0629   44.5670   28.1173 H   0  0  0  0  0  0
   64.0583   43.9093   29.3391 H   0  0  0  0  0  0
   65.5530   44.1638   31.0109 H   0  0  0  0  0  0
   64.0042   42.9809   32.5268 H   0  0  0  0  0  0
   65.5079   43.3798   33.3391 H   0  0  0  0  0  0
   64.0669   44.3252   33.6613 H   0  0  0  0  0  0
   60.7333   45.9392   26.8661 H   0  0  0  0  0  0
   59.6862   47.3146   27.0066 H   0  0  0  0  0  0
   61.8443   48.0769   26.2237 H   0  0  0  0  0  0
   61.5643   48.7424   27.8277 H   0  0  0  0  0  0
   62.6831   47.3958   27.5971 H   0  0  0  0  0  0
   56.0086   45.9220   27.7150 H   0  0  0  0  0  0
   57.0201   44.9733   31.7800 H   0  0  0  0  0  0
   59.3454   45.5395   31.2662 H   0  0  0  0  0  0
   54.5254   46.7632   28.9225 H   0  0  0  0  0  0
   61.9506   48.5392   32.6004 H   0  0  0  0  0  0
   63.2218   48.6004   33.7394 H   0  0  0  0  0  0
   66.2826   46.4770   31.3371 H   0  0  0  0  0  0
   65.5733   46.5103   32.9523 H   0  0  0  0  0  0
   66.8660   45.4061   32.6000 H   0  0  0  0  0  0
   60.7411   46.8775   33.9991 H   0  0  0  0  0  0
   61.2122   48.2087   35.0190 H   0  0  0  0  0  0
   62.5690   45.4958   34.7920 H   0  0  0  0  0  0
   61.6192   46.0388   36.1377 H   0  0  0  0  0  0
   63.3547   47.6769   36.7809 H   0  0  0  0  0  0
   64.2595   47.3854   35.3250 H   0  0  0  0  0  0
   65.2079   46.1756   37.3384 H   0  0  0  0  0  0
   64.8677   45.1390   35.9608 H   0  0  0  0  0  0
   63.7850   45.1369   37.3407 H   0  0  0  0  0  0
  1  2  2  0  0  0
  1  7  1  0  0  0
  1  6  1  0  0  0
  2  9  1  0  0  0
  2  3  1  0  0  0
  3  4  2  0  0  0
  3 28  1  0  0  0
  4  5  1  0  0  0
  4 10  1  0  0  0
  5  6  2  0  0  0
  5 29  1  0  0  0
  6 30  1  0  0  0
  7  8  1  0  0  0
  7 23  1  0  0  0
  7 31  1  0  0  0
  8 32  1  0  0  0
  8 33  1  0  0  0
  8 34  1  0  0  0
  9 22  1  0  0  0
 10 11  1  0  0  0
 10 12  1  0  0  0
 11 14  2  0  0  0
 11 18  1  0  0  0
 12 13  1  0  0  0
 12 35  1  0  0  0
 12 36  1  0  0  0
 13 37  1  0  0  0
 13 38  1  0  0  0
 13 39  1  0  0  0
 14 15  1  0  0  0
 15 16  2  0  0  0
 15 40  1  0  0  0
 16 17  1  0  0  0
 16 19  1  0  0  0
 17 18  2  0  0  0
 17 41  1  0  0  0
 18 42  1  0  0  0
 19 20  2  0  0  0
 19 21  1  0  0  0
 21 43  1  0  0  0
 22 24  1  0  0  0
 22 44  1  0  0  0
 22 45  1  0  0  0
 23 46  1  0  0  0
 23 47  1  0  0  0
 23 48  1  0  0  0
 24 25  1  0  0  0
 24 49  1  0  0  0
 24 50  1  0  0  0
 25 26  1  0  0  0
 25 51  1  0  0  0
 25 52  1  0  0  0
 26 27  1  0  0  0
 26 53  1  0  0  0
 26 54  1  0  0  0
 27 55  1  0  0  0
 27 56  1  0  0  0
 27 57  1  0  0  0
M  END
> <s_m_entry_id>
31111

> <s_m_entry_name>
dock_pv.324

> <s_m_Source_Path>
/home/csk/Desktop/cluster/DUD-E-result/rxra

> <s_m_Source_File>
dock_pv.maegz

> <i_m_Source_File_Index>
324

> <chembl_id>
CHEMBL1688390

> <chembl_pref_name>
None

> <i_lp_mmshare_version>
53161

> <r_lp_tautomer_probability>
1

> <s_lp_Force_Field>
OPLS_2005

> <r_lp_Energy>
22.381864

> <b_lp_Chiralities_Consistent>
1

> <s_lp_Variant>
CHEMBL2061_lig473-1

> <s_i_glide_gridfile>
glide-grid_1mv9

> <i_i_glide_lignum>
562

> <i_i_glide_rotatable_bonds>
11

> <r_i_docking_score>
-9.53234637507143

> <r_i_glide_ligand_efficiency>
-0.353049865743386

> <r_i_glide_ligand_efficiency_sa>
-1.05914959606656

> <r_i_glide_ligand_efficiency_ln>
-2.21897308310446

> <r_i_glide_gscore>
-9.53234637507143

> <r_i_glide_lipo>
-5.74259550516463

> <r_i_glide_hbond>
-0.32

> <r_i_glide_metal>
0

> <r_i_glide_rewards>
-1.30690925616372

> <r_i_glide_evdw>
-49.0866928100586

> <r_i_glide_ecoul>
-4.61599111557007

> <r_i_glide_erotb>
0.983891694095358

> <r_i_glide_esite>
0

> <r_i_glide_emodel>
-75.7110446901589

> <r_i_glide_energy>
-53.7026839256287

> <r_i_glide_einternal>
12.0319175720215

> <i_i_glide_confnum>
22

> <i_i_glide_posenum>
314

> <r_i_glide_eff_state_penalty>
0

> <s_user_duplicate_titles>
CHEMBL2061_lig473

> <i_f3d_flags>
0

> <s_m_subgroup_title>
dock_pv

> <s_m_subgroupid>
dock_pv

> <b_m_subgroup_collapsed>
1

$$$$
CHEMBL2061_lig289
                    3D
 Schrodinger Suite 2021-1.
 59 61  0  0  1  0            999 V2000
   64.0348   45.3686   32.6141 C   0  0  0  0  0  0
   63.4482   46.4792   33.2684 C   0  0  0  0  0  0
   63.0237   46.0702   30.4722 C   0  0  0  0  0  0
   62.5055   45.6892   29.0447 C   0  0  0  0  0  0
   63.8073   45.1955   31.2331 C   0  0  0  0  0  0
   62.6970   47.3568   32.4954 C   0  0  0  0  0  0
   62.5499   47.2152   31.1282 C   0  0  0  0  0  0
   64.9699   44.4043   33.3576 C   0  0  0  0  0  0
   63.6162   46.8020   34.7730 C   0  0  0  0  0  0
   56.6020   45.8989   29.0314 C   0  0  0  0  0  0
   60.9595   45.8757   29.0084 C   0  0  0  0  0  0
   58.1198   45.9710   29.0485 C   0  0  0  0  0  0
   64.7565   44.5024   34.8827 C   0  0  0  0  0  0
   64.7350   45.9348   35.4127 C   0  0  0  0  0  0
   55.9468   45.6751   30.0496 O   0  0  0  0  0  0
   60.2674   46.4138   27.9314 C   0  0  0  0  0  0
   60.2095   45.5261   30.1358 C   0  0  0  0  0  0
   58.8212   45.5434   30.1682 C   0  0  0  0  0  0
   58.8778   46.4692   27.9782 C   0  0  0  0  0  0
   56.0117   46.0741   27.8142 O   0  0  0  0  0  0
   63.2894   46.4716   27.9500 C   0  0  0  0  0  0
   62.7471   44.1912   28.6935 C   0  0  0  0  0  0
   61.8697   48.3482   30.4089 C   0  0  0  0  0  0
   64.0912   48.2648   34.9131 C   0  0  0  0  0  0
   62.2674   46.5900   35.5034 C   0  0  0  0  0  0
   64.6467   42.9258   33.0242 C   0  0  0  0  0  0
   66.4142   44.8494   33.0057 C   0  0  0  0  0  0
   64.2417   44.3346   30.7526 H   0  0  0  0  0  0
   62.2529   48.2241   32.9619 H   0  0  0  0  0  0
   65.5639   43.9381   35.3388 H   0  0  0  0  0  0
   63.8296   44.0123   35.1858 H   0  0  0  0  0  0
   65.7165   46.3642   35.2201 H   0  0  0  0  0  0
   64.6417   45.9302   36.4999 H   0  0  0  0  0  0
   60.7865   46.7624   27.0507 H   0  0  0  0  0  0
   60.7370   45.2767   31.0310 H   0  0  0  0  0  0
   58.3135   45.2138   31.0630 H   0  0  0  0  0  0
   58.4091   46.8772   27.1281 H   0  0  0  0  0  0
   56.6687   46.1578   27.1248 H   0  0  0  0  0  0
   63.0372   47.5205   27.8485 H   0  0  0  0  0  0
   64.3623   46.4203   28.1446 H   0  0  0  0  0  0
   63.1231   46.0593   26.9557 H   0  0  0  0  0  0
   62.2723   43.5096   29.3988 H   0  0  0  0  0  0
   62.3313   43.9427   27.7158 H   0  0  0  0  0  0
   63.8057   43.9409   28.6491 H   0  0  0  0  0  0
   62.0308   49.2737   30.9504 H   0  0  0  0  0  0
   62.2932   48.4759   29.4282 H   0  0  0  0  0  0
   60.8082   48.1798   30.2960 H   0  0  0  0  0  0
   64.4100   48.4867   35.9317 H   0  0  0  0  0  0
   64.9258   48.4336   34.2283 H   0  0  0  0  0  0
   63.3131   48.9882   34.6722 H   0  0  0  0  0  0
   62.1845   47.2811   36.3495 H   0  0  0  0  0  0
   61.4024   46.7995   34.8670 H   0  0  0  0  0  0
   62.1524   45.5740   35.8839 H   0  0  0  0  0  0
   65.2633   42.2682   33.6371 H   0  0  0  0  0  0
   63.6135   42.6806   33.2610 H   0  0  0  0  0  0
   64.7892   42.6614   31.9806 H   0  0  0  0  0  0
   67.1657   44.3054   33.5777 H   0  0  0  0  0  0
   66.6302   44.7050   31.9462 H   0  0  0  0  0  0
   66.5771   45.9116   33.2064 H   0  0  0  0  0  0
  1  2  2  0  0  0
  1  5  1  0  0  0
  1  8  1  0  0  0
  2  6  1  0  0  0
  2  9  1  0  0  0
  3  5  2  0  0  0
  3  4  1  0  0  0
  3  7  1  0  0  0
  4 11  1  0  0  0
  4 21  1  0  0  0
  4 22  1  0  0  0
  5 28  1  0  0  0
  6  7  2  0  0  0
  6 29  1  0  0  0
  7 23  1  0  0  0
  8 13  1  0  0  0
  8 26  1  0  0  0
  8 27  1  0  0  0
  9 24  1  0  0  0
  9 25  1  0  0  0
  9 14  1  0  0  0
 10 12  1  0  0  0
 10 15  2  0  0  0
 10 20  1  0  0  0
 11 16  2  0  0  0
 11 17  1  0  0  0
 12 18  1  0  0  0
 12 19  2  0  0  0
 13 14  1  0  0  0
 13 30  1  0  0  0
 13 31  1  0  0  0
 14 32  1  0  0  0
 14 33  1  0  0  0
 16 19  1  0  0  0
 16 34  1  0  0  0
 17 18  2  0  0  0
 17 35  1  0  0  0
 18 36  1  0  0  0
 19 37  1  0  0  0
 20 38  1  0  0  0
 21 39  1  0  0  0
 21 40  1  0  0  0
 21 41  1  0  0  0
 22 42  1  0  0  0
 22 43  1  0  0  0
 22 44  1  0  0  0
 23 45  1  0  0  0
 23 46  1  0  0  0
 23 47  1  0  0  0
 24 48  1  0  0  0
 24 49  1  0  0  0
 24 50  1  0  0  0
 25 51  1  0  0  0
 25 52  1  0  0  0
 25 53  1  0  0  0
 26 54  1  0  0  0
 26 55  1  0  0  0
 26 56  1  0  0  0
 27 57  1  0  0  0
 27 58  1  0  0  0
 27 59  1  0  0  0
M  END
> <s_m_entry_id>
31112

> <s_m_entry_name>
dock_pv.325

> <s_m_Source_Path>
/home/csk/Desktop/cluster/DUD-E-result/rxra

> <s_m_Source_File>
dock_pv.maegz

> <i_m_Source_File_Index>
325

> <chembl_id>
CHEMBL110629

> <chembl_pref_name>
None

> <i_lp_mmshare_version>
53161

> <r_lp_tautomer_probability>
1

> <s_lp_Force_Field>
OPLS_2005

> <r_lp_Energy>
33.315466

> <b_lp_Chiralities_Consistent>
1

> <s_lp_Variant>
CHEMBL2061_lig289-1

> <s_i_glide_gridfile>
glide-grid_1mv9

> <i_i_glide_lignum>
334

> <i_i_glide_rotatable_bonds>
4

> <r_i_docking_score>
-9.52900082983679

> <r_i_glide_ligand_efficiency>
-0.352925956660622

> <r_i_glide_ligand_efficiency_sa>
-1.05877786881868

> <r_i_glide_ligand_efficiency_ln>
-2.21819429532946

> <r_i_glide_gscore>
-9.52900082983679

> <r_i_glide_lipo>
-6.29711976277457

> <r_i_glide_hbond>
0

> <r_i_glide_metal>
0

> <r_i_glide_rewards>
-2.26944758851503

> <r_i_glide_evdw>
-28.8653259277344

> <r_i_glide_ecoul>
0.311745584011078

> <r_i_glide_erotb>
0.434070980237868

> <r_i_glide_esite>
0

> <r_i_glide_emodel>
-45.4677307250564

> <r_i_glide_energy>
-28.5535803437233

> <r_i_glide_einternal>
4.40778779983521

> <i_i_glide_confnum>
2

> <i_i_glide_posenum>
72

> <r_i_glide_eff_state_penalty>
0

> <s_user_duplicate_titles>
CHEMBL2061_lig289,176551

> <i_f3d_flags>
0

> <s_m_subgroup_title>
dock_pv

> <s_m_subgroupid>
dock_pv

> <b_m_subgroup_collapsed>
1

$$$$
CHEMBL2061_lig3
                    3D
 Schrodinger Suite 2021-1.
 52 52  0  0  1  0            999 V2000
   62.1389   45.0259   28.8790 C   0  0  0  0  0  0
   63.3393   44.0576   28.9683 C   0  0  0  0  0  0
   64.1640   44.2338   30.2575 C   0  0  0  0  0  0
   64.5591   45.7117   30.5033 C   0  0  1  0  0  0
   63.3060   46.6457   30.4381 C   0  0  1  0  0  0
   62.5399   46.5209   29.0661 C   0  0  0  0  0  0
   61.2599   47.3945   29.0675 C   0  0  0  0  0  0
   63.4355   47.0014   27.8904 C   0  0  0  0  0  0
   62.4358   46.3730   31.6485 C   0  0  0  0  0  0
   62.1917   47.2426   32.6424 C   0  0  0  0  0  0
   61.3620   46.9313   33.7905 C   0  0  0  0  0  0
   60.1290   46.3938   33.6668 C   0  0  0  0  0  0
   61.9243   47.2129   35.1734 C   0  0  0  0  0  0
   59.4163   46.0681   32.4455 C   0  0  0  0  0  0
   58.1301   45.6770   32.4219 C   0  0  0  0  0  0
   57.3938   45.3028   31.2192 C   0  0  0  0  0  0
   56.0423   45.3121   31.3222 C   0  0  0  0  0  0
   58.1470   44.8764   29.9567 C   0  0  0  0  0  0
   55.0795   45.0231   30.2917 C   0  0  0  0  0  0
   55.4313   45.4985   29.0649 O   0  0  0  0  0  0
   54.0080   44.4774   30.5271 O   0  0  0  0  0  0
   65.4046   45.8749   31.7834 C   0  0  0  0  0  0
   61.3928   44.7331   29.6181 H   0  0  0  0  0  0
   61.6396   44.8947   27.9177 H   0  0  0  0  0  0
   64.0048   44.2474   28.1390 H   0  0  0  0  0  0
   63.0042   43.0238   28.8701 H   0  0  0  0  0  0
   65.0599   43.6127   30.2142 H   0  0  0  0  0  0
   63.6080   43.8477   31.1112 H   0  0  0  0  0  0
   65.2093   46.0093   29.6857 H   0  0  0  0  0  0
   63.6080   47.6770   30.5392 H   0  0  0  0  0  0
   60.7818   47.3981   28.0867 H   0  0  0  0  0  0
   60.5096   47.0548   29.7705 H   0  0  0  0  0  0
   61.4920   48.4312   29.3151 H   0  0  0  0  0  0
   62.9233   46.8811   26.9354 H   0  0  0  0  0  0
   63.6734   48.0612   27.9879 H   0  0  0  0  0  0
   64.3819   46.4772   27.7988 H   0  0  0  0  0  0
   62.0079   45.3873   31.6925 H   0  0  0  0  0  0
   62.6399   48.2240   32.5965 H   0  0  0  0  0  0
   59.6079   46.1794   34.5680 H   0  0  0  0  0  0
   62.1720   48.2709   35.2634 H   0  0  0  0  0  0
   61.2465   46.9368   35.9829 H   0  0  0  0  0  0
   62.8655   46.6772   35.3027 H   0  0  0  0  0  0
   59.9296   46.1208   31.5077 H   0  0  0  0  0  0
   57.6080   45.6551   33.3667 H   0  0  0  0  0  0
   55.5738   45.5639   32.2627 H   0  0  0  0  0  0
   59.0248   44.2920   30.2290 H   0  0  0  0  0  0
   57.5738   44.1937   29.3308 H   0  0  0  0  0  0
   58.4949   45.7360   29.3841 H   0  0  0  0  0  0
   56.3031   45.8970   29.0913 H   0  0  0  0  0  0
   64.8757   45.5202   32.6688 H   0  0  0  0  0  0
   66.3361   45.3124   31.7115 H   0  0  0  0  0  0
   65.6660   46.9188   31.9525 H   0  0  0  0  0  0
  1  2  1  0  0  0
  1  6  1  0  0  0
  1 23  1  0  0  0
  1 24  1  0  0  0
  2  3  1  0  0  0
  2 25  1  0  0  0
  2 26  1  0  0  0
  3  4  1  0  0  0
  3 27  1  0  0  0
  3 28  1  0  0  0
  4  5  1  0  0  0
  4 22  1  0  0  0
  4 29  1  0  0  0
  5  6  1  0  0  0
  5  9  1  0  0  0
  5 30  1  0  0  0
  6  7  1  0  0  0
  6  8  1  0  0  0
  7 31  1  0  0  0
  7 32  1  0  0  0
  7 33  1  0  0  0
  8 34  1  0  0  0
  8 35  1  0  0  0
  8 36  1  0  0  0
  9 10  2  0  0  0
  9 37  1  0  0  0
 10 11  1  0  0  0
 10 38  1  0  0  0
 11 12  2  0  0  0
 11 13  1  0  0  0
 12 14  1  0  0  0
 12 39  1  0  0  0
 13 40  1  0  0  0
 13 41  1  0  0  0
 13 42  1  0  0  0
 14 15  2  0  0  0
 14 43  1  0  0  0
 15 16  1  0  0  0
 15 44  1  0  0  0
 16 17  2  0  0  0
 16 18  1  0  0  0
 17 19  1  0  0  0
 17 45  1  0  0  0
 18 46  1  0  0  0
 18 47  1  0  0  0
 18 48  1  0  0  0
 19 20  1  0  0  0
 19 21  2  0  0  0
 20 49  1  0  0  0
 22 50  1  0  0  0
 22 51  1  0  0  0
 22 52  1  0  0  0
M  END
> <s_m_entry_id>
31113

> <s_m_entry_name>
dock_pv.326

> <s_m_Source_Path>
/home/csk/Desktop/cluster/DUD-E-result/rxra

> <s_m_Source_File>
dock_pv.maegz

> <i_m_Source_File_Index>
326

> <chembl_id>
CHEMBL451158

> <chembl_pref_name>
None

> <i_lp_mmshare_version>
53161

> <r_lp_tautomer_probability>
1

> <s_lp_Force_Field>
OPLS_2005

> <r_lp_Energy>
25.7103

> <b_lp_Chiralities_Consistent>
1

> <s_lp_Variant>
CHEMBL2061_lig3-3

> <s_i_glide_gridfile>
glide-grid_1mv9

> <i_i_glide_lignum>
5

> <i_i_glide_rotatable_bonds>
6

> <r_i_docking_score>
-9.47030743460024

> <r_i_glide_ligand_efficiency>
-0.430468519754556

> <r_i_glide_ligand_efficiency_sa>
-1.20618972171848

> <r_i_glide_ligand_efficiency_ln>
-2.31488857487316

> <r_i_glide_gscore>
-9.47030743460024

> <r_i_glide_lipo>
-4.98307475912298

> <r_i_glide_hbond>
-0.32

> <r_i_glide_metal>
0

> <r_i_glide_rewards>
-2.86037673887212

> <r_i_glide_evdw>
-33.1809349060059

> <r_i_glide_ecoul>
-4.36135482788086

> <r_i_glide_erotb>
1.00639403287727

> <r_i_glide_esite>
0

> <r_i_glide_emodel>
-56.3742162907636

> <r_i_glide_energy>
-37.5422897338867

> <r_i_glide_einternal>
4.90543746948242

> <i_i_glide_confnum>
22

> <i_i_glide_posenum>
142

> <r_i_glide_eff_state_penalty>
0

> <s_user_duplicate_titles>
CHEMBL2061_lig3

> <i_f3d_flags>
0

> <s_m_subgroup_title>
dock_pv

> <s_m_subgroupid>
dock_pv

> <b_m_subgroup_collapsed>
1

$$$$
CHEMBL2061_lig417
                    3D
 Schrodinger Suite 2021-1.
 68 69  0  0  1  0            999 V2000
   62.0086   47.2711   31.5265 C   0  0  0  0  0  0
   62.6447   47.2459   32.7815 C   0  0  0  0  0  0
   63.6071   46.2667   32.9957 C   0  0  0  0  0  0
   62.3803   46.4104   30.4898 C   0  0  0  0  0  0
   63.4005   45.4702   30.7243 C   0  0  0  0  0  0
   63.9922   45.4021   31.9857 C   0  0  0  0  0  0
   65.0119   44.3011   32.1025 C   0  0  0  0  0  0
   65.1400   43.8215   30.6376 C   0  0  0  0  0  0
   63.9416   44.3476   29.8598 C   0  0  0  0  0  0
   61.6819   46.5345   29.2682 N   0  0  0  0  0  0
   60.7869   45.4107   29.0271 C   0  0  0  0  0  0
   59.4528   45.4672   29.7370 C   0  0  0  0  0  0
   58.2812   45.6760   29.1067 C   0  0  0  0  0  0
   56.9695   45.6741   29.7413 C   0  0  0  0  0  0
   55.9165   46.0331   28.9620 C   0  0  0  0  0  0
   56.8572   45.3030   31.2214 C   0  0  0  0  0  0
   54.5264   46.0788   29.3395 C   0  0  0  0  0  0
   54.1535   45.0382   30.1388 O   0  0  0  0  0  0
   53.7400   46.9340   28.9389 O   0  0  0  0  0  0
   62.4718   46.9355   28.1007 C   0  0  0  0  0  0
   63.0369   48.3685   28.1393 C   0  0  0  0  0  0
   64.3668   48.5533   27.3830 C   0  0  0  0  0  0
   62.3601   48.2816   33.8956 C   0  0  0  0  0  0
   62.0103   49.6774   33.2713 C   0  0  0  0  0  0
   63.6078   48.4875   34.8205 C   0  0  0  0  0  0
   61.2111   47.7133   34.7716 C   0  0  0  0  0  0
   66.3336   44.8804   32.6721 C   0  0  0  0  0  0
   64.4808   43.1841   33.0298 C   0  0  0  0  0  0
   64.3144   47.9391   26.0019 C   0  0  0  0  0  0
   61.2078   47.9633   31.3281 H   0  0  0  0  0  0
   64.0778   46.1665   33.9603 H   0  0  0  0  0  0
   65.2080   42.7366   30.5380 H   0  0  0  0  0  0
   66.0356   44.2455   30.1801 H   0  0  0  0  0  0
   63.2085   43.5498   29.7419 H   0  0  0  0  0  0
   64.2625   44.6462   28.8657 H   0  0  0  0  0  0
   61.2560   44.4640   29.2914 H   0  0  0  0  0  0
   60.6101   45.3189   27.9547 H   0  0  0  0  0  0
   59.4988   45.3138   30.8028 H   0  0  0  0  0  0
   58.3290   45.8450   28.0395 H   0  0  0  0  0  0
   56.0725   46.3362   27.9362 H   0  0  0  0  0  0
   57.6217   45.8309   31.7917 H   0  0  0  0  0  0
   55.9257   45.5873   31.7077 H   0  0  0  0  0  0
   57.0751   44.2420   31.3390 H   0  0  0  0  0  0
   54.9081   44.4573   30.2607 H   0  0  0  0  0  0
   63.3193   46.2596   28.0597 H   0  0  0  0  0  0
   61.9489   46.7795   27.1561 H   0  0  0  0  0  0
   62.2779   49.0652   27.7779 H   0  0  0  0  0  0
   63.2079   48.6384   29.1727 H   0  0  0  0  0  0
   64.6418   49.6076   27.3393 H   0  0  0  0  0  0
   65.1695   48.0475   27.9148 H   0  0  0  0  0  0
   61.8577   49.6778   32.2032 H   0  0  0  0  0  0
   61.2080   50.2128   33.7389 H   0  0  0  0  0  0
   62.8105   50.3974   33.3555 H   0  0  0  0  0  0
   63.7145   47.6907   35.5578 H   0  0  0  0  0  0
   64.5292   48.4795   34.2392 H   0  0  0  0  0  0
   63.6079   49.4178   35.3873 H   0  0  0  0  0  0
   61.5598   46.9025   35.4137 H   0  0  0  0  0  0
   60.7855   48.4749   35.4266 H   0  0  0  0  0  0
   60.4074   47.2769   34.1759 H   0  0  0  0  0  0
   67.0479   44.1119   32.9384 H   0  0  0  0  0  0
   66.8075   45.5673   31.9713 H   0  0  0  0  0  0
   66.1696   45.4385   33.5945 H   0  0  0  0  0  0
   65.2553   42.4500   33.2322 H   0  0  0  0  0  0
   64.1654   43.5745   33.9990 H   0  0  0  0  0  0
   63.6294   42.6586   32.5961 H   0  0  0  0  0  0
   65.2075   48.0769   25.4008 H   0  0  0  0  0  0
   64.2207   46.8759   26.1376 H   0  0  0  0  0  0
   63.4308   48.2604   25.4578 H   0  0  0  0  0  0
  1  2  2  0  0  0
  1  4  1  0  0  0
  1 30  1  0  0  0
  2 23  1  0  0  0
  2  3  1  0  0  0
  3  6  2  0  0  0
  3 31  1  0  0  0
  4  5  2  0  0  0
  4 10  1  0  0  0
  5  9  1  0  0  0
  5  6  1  0  0  0
  6  7  1  0  0  0
  7  8  1  0  0  0
  7 27  1  0  0  0
  7 28  1  0  0  0
  8  9  1  0  0  0
  8 32  1  0  0  0
  8 33  1  0  0  0
  9 34  1  0  0  0
  9 35  1  0  0  0
 10 20  1  0  0  0
 10 11  1  0  0  0
 11 12  1  0  0  0
 11 36  1  0  0  0
 11 37  1  0  0  0
 12 13  2  0  0  0
 12 38  1  0  0  0
 13 14  1  0  0  0
 13 39  1  0  0  0
 14 15  2  0  0  0
 14 16  1  0  0  0
 15 17  1  0  0  0
 15 40  1  0  0  0
 16 41  1  0  0  0
 16 42  1  0  0  0
 16 43  1  0  0  0
 17 18  1  0  0  0
 17 19  2  0  0  0
 18 44  1  0  0  0
 20 21  1  0  0  0
 20 45  1  0  0  0
 20 46  1  0  0  0
 21 22  1  0  0  0
 21 47  1  0  0  0
 21 48  1  0  0  0
 22 29  1  0  0  0
 22 49  1  0  0  0
 22 50  1  0  0  0
 23 24  1  0  0  0
 23 25  1  0  0  0
 23 26  1  0  0  0
 24 51  1  0  0  0
 24 52  1  0  0  0
 24 53  1  0  0  0
 25 54  1  0  0  0
 25 55  1  0  0  0
 25 56  1  0  0  0
 26 57  1  0  0  0
 26 58  1  0  0  0
 26 59  1  0  0  0
 27 60  1  0  0  0
 27 61  1  0  0  0
 27 62  1  0  0  0
 28 63  1  0  0  0
 28 64  1  0  0  0
 28 65  1  0  0  0
 29 66  1  0  0  0
 29 67  1  0  0  0
 29 68  1  0  0  0
M  END
> <s_m_entry_id>
31114

> <s_m_entry_name>
dock_pv.327

> <s_m_Source_Path>
/home/csk/Desktop/cluster/DUD-E-result/rxra

> <s_m_Source_File>
dock_pv.maegz

> <i_m_Source_File_Index>
327

> <chembl_id>
CHEMBL204725

> <chembl_pref_name>
None

> <i_lp_mmshare_version>
53161

> <r_lp_tautomer_probability>
1

> <s_lp_Force_Field>
OPLS_2005

> <r_lp_Energy>
36.792841

> <b_lp_Chiralities_Consistent>
1

> <s_lp_Variant>
CHEMBL2061_lig417-1

> <s_i_glide_gridfile>
glide-grid_1mv9

> <i_i_glide_lignum>
488

> <i_i_glide_rotatable_bonds>
10

> <r_i_docking_score>
-9.47018691654298

> <r_i_glide_ligand_efficiency>
-0.326558169535965

> <r_i_glide_ligand_efficiency_sa>
-1.00329015770439

> <r_i_glide_ligand_efficiency_ln>
-2.16843266066826

> <r_i_glide_gscore>
-9.47018691654298

> <r_i_glide_lipo>
-5.98328268447901

> <r_i_glide_hbond>
-0.16

> <r_i_glide_metal>
0

> <r_i_glide_rewards>
-1.90975834655916

> <r_i_glide_evdw>
-35.6078796386719

> <r_i_glide_ecoul>
-3.24489212036133

> <r_i_glide_erotb>
0.866862917385339

> <r_i_glide_esite>
-0.0168810029023565

> <r_i_glide_emodel>
-33.326971170291

> <r_i_glide_energy>
-38.8527717590332

> <r_i_glide_einternal>
11.7779359817505

> <i_i_glide_confnum>
72

> <i_i_glide_posenum>
125

> <r_i_glide_eff_state_penalty>
0

> <s_user_duplicate_titles>
CHEMBL2061_lig417,345690

> <i_f3d_flags>
0

> <s_m_subgroup_title>
dock_pv

> <s_m_subgroupid>
dock_pv

> <b_m_subgroup_collapsed>
1

$$$$
CHEMBL2061_lig96
                    3D
 Schrodinger Suite 2021-1.
 64 64  0  0  1  0            999 V2000
   62.6899   46.7797   30.0716 C   0  0  0  0  0  0
   63.5727   45.6959   30.2382 C   0  0  0  0  0  0
   64.0378   45.3675   31.5297 C   0  0  0  0  0  0
   62.2552   47.2573   28.7262 C   0  0  0  0  0  0
   62.2041   47.4346   31.2088 C   0  0  0  0  0  0
   62.6172   47.0730   32.4990 C   0  0  0  0  0  0
   63.5082   46.0365   32.6239 C   0  0  0  0  0  0
   60.9633   47.2347   28.3092 C   0  0  0  0  0  0
   64.0099   44.9962   29.1309 O   0  0  0  0  0  0
   59.8833   46.6871   29.1164 C   0  0  0  0  0  0
   56.2724   46.0937   29.0861 C   0  0  0  0  0  0
   65.2111   44.4098   31.7708 C   0  0  0  0  0  0
   55.0450   45.6699   29.7184 C   0  0  0  0  0  0
   58.6151   46.4988   28.7131 C   0  0  0  0  0  0
   62.1285   47.7618   33.7810 C   0  0  0  0  0  0
   57.5457   45.9241   29.5367 C   0  0  0  0  0  0
   54.0057   46.3221   29.6670 O   0  0  0  0  0  0
   62.0086   43.8845   28.3604 C   0  0  0  0  0  0
   63.4019   43.7225   28.8723 C   0  0  0  0  0  0
   60.6645   47.7166   27.0817 F   0  0  0  0  0  0
   55.1344   44.4769   30.3606 O   0  0  0  0  0  0
   61.2167   44.3269   29.3390 F   0  0  0  0  0  0
   62.0083   44.6972   27.3070 F   0  0  0  0  0  0
   63.3620   47.8084   27.8334 C   0  0  0  0  0  0
   64.7812   42.9329   31.5982 C   0  0  0  0  0  0
   65.7660   44.4733   33.2242 C   0  0  0  0  0  0
   66.3645   44.8773   30.8240 C   0  0  0  0  0  0
   62.0090   49.2771   33.5272 C   0  0  0  0  0  0
   63.0903   47.6585   35.0071 C   0  0  0  0  0  0
   60.8104   47.0581   34.1925 C   0  0  0  0  0  0
   57.8787   45.2299   30.8697 C   0  0  0  0  0  0
   61.4884   48.2257   31.0570 H   0  0  0  0  0  0
   63.7969   45.7733   33.6165 H   0  0  0  0  0  0
   60.1400   46.3940   30.1169 H   0  0  0  0  0  0
   56.0773   46.6221   28.1642 H   0  0  0  0  0  0
   58.4090   46.7946   27.6963 H   0  0  0  0  0  0
   61.6091   42.9201   28.0566 H   0  0  0  0  0  0
   63.9768   43.1512   28.1486 H   0  0  0  0  0  0
   63.2848   43.0802   29.7254 H   0  0  0  0  0  0
   56.0249   44.1183   30.2724 H   0  0  0  0  0  0
   63.6006   48.8246   28.1399 H   0  0  0  0  0  0
   64.2693   47.2044   27.8880 H   0  0  0  0  0  0
   63.0660   47.8553   26.7842 H   0  0  0  0  0  0
   65.0826   42.5137   30.6360 H   0  0  0  0  0  0
   65.2061   42.2911   32.3616 H   0  0  0  0  0  0
   63.7089   42.7952   31.7502 H   0  0  0  0  0  0
   66.2381   45.4261   33.4678 H   0  0  0  0  0  0
   65.0223   44.2374   33.9866 H   0  0  0  0  0  0
   66.4704   43.6767   33.3707 H   0  0  0  0  0  0
   66.5114   45.9500   30.9407 H   0  0  0  0  0  0
   67.3361   44.4446   30.9736 H   0  0  0  0  0  0
   66.1795   44.6841   29.7729 H   0  0  0  0  0  0
   61.7186   49.5850   32.5322 H   0  0  0  0  0  0
   61.2093   49.6778   34.1392 H   0  0  0  0  0  0
   62.9271   49.8240   33.7386 H   0  0  0  0  0  0
   63.1391   46.6557   35.4313 H   0  0  0  0  0  0
   64.1088   47.9571   34.7512 H   0  0  0  0  0  0
   62.7613   48.3046   35.8218 H   0  0  0  0  0  0
   61.0016   46.0722   34.6210 H   0  0  0  0  0  0
   60.2714   47.6278   34.9466 H   0  0  0  0  0  0
   60.1385   46.8762   33.3517 H   0  0  0  0  0  0
   58.7481   45.6556   31.3738 H   0  0  0  0  0  0
   57.0920   45.3506   31.6124 H   0  0  0  0  0  0
   58.0793   44.1694   30.7134 H   0  0  0  0  0  0
  1  2  1  0  0  0
  1  4  1  0  0  0
  1  5  2  0  0  0
  2  3  2  0  0  0
  2  9  1  0  0  0
  3 12  1  0  0  0
  3  7  1  0  0  0
  4  8  2  0  0  0
  4 24  1  0  0  0
  5  6  1  0  0  0
  5 32  1  0  0  0
  6  7  2  0  0  0
  6 15  1  0  0  0
  7 33  1  0  0  0
  8 10  1  0  0  0
  8 20  1  0  0  0
  9 19  1  0  0  0
 10 14  2  0  0  0
 10 34  1  0  0  0
 11 16  2  0  0  0
 11 13  1  0  0  0
 11 35  1  0  0  0
 12 25  1  0  0  0
 12 26  1  0  0  0
 12 27  1  0  0  0
 13 17  2  0  0  0
 13 21  1  0  0  0
 14 16  1  0  0  0
 14 36  1  0  0  0
 15 28  1  0  0  0
 15 29  1  0  0  0
 15 30  1  0  0  0
 16 31  1  0  0  0
 18 19  1  0  0  0
 18 22  1  0  0  0
 18 23  1  0  0  0
 18 37  1  0  0  0
 19 38  1  0  0  0
 19 39  1  0  0  0
 21 40  1  0  0  0
 24 41  1  0  0  0
 24 42  1  0  0  0
 24 43  1  0  0  0
 25 44  1  0  0  0
 25 45  1  0  0  0
 25 46  1  0  0  0
 26 47  1  0  0  0
 26 48  1  0  0  0
 26 49  1  0  0  0
 27 50  1  0  0  0
 27 51  1  0  0  0
 27 52  1  0  0  0
 28 53  1  0  0  0
 28 54  1  0  0  0
 28 55  1  0  0  0
 29 56  1  0  0  0
 29 57  1  0  0  0
 29 58  1  0  0  0
 30 59  1  0  0  0
 30 60  1  0  0  0
 30 61  1  0  0  0
 31 62  1  0  0  0
 31 63  1  0  0  0
 31 64  1  0  0  0
M  END
> <s_m_entry_id>
31115

> <s_m_entry_name>
dock_pv.328

> <s_m_Source_Path>
/home/csk/Desktop/cluster/DUD-E-result/rxra

> <s_m_Source_File>
dock_pv.maegz

> <i_m_Source_File_Index>
328

> <chembl_id>
CHEMBL111217

> <chembl_pref_name>
None

> <i_lp_mmshare_version>
53161

> <r_lp_tautomer_probability>
1

> <s_lp_Force_Field>
OPLS_2005

> <r_lp_Energy>
37.523994

> <b_lp_Chiralities_Consistent>
1

> <s_lp_Variant>
CHEMBL2061_lig96-1

> <s_i_glide_gridfile>
glide-grid_1mv9

> <i_i_glide_lignum>
135

> <i_i_glide_rotatable_bonds>
10

> <r_i_docking_score>
-9.46381808096911

> <r_i_glide_ligand_efficiency>
-0.30528445422481

> <r_i_glide_ligand_efficiency_sa>
-0.959014676879936

> <r_i_glide_ligand_efficiency_ln>
-2.13438100845129

> <r_i_glide_gscore>
-9.46381808096911

> <r_i_glide_lipo>
-5.71158632300936

> <r_i_glide_hbond>
-0.149450739097865

> <r_i_glide_metal>
0

> <r_i_glide_rewards>
-2.1252390506003

> <r_i_glide_evdw>
-30.2233543395996

> <r_i_glide_ecoul>
-3.92565131187439

> <r_i_glide_erotb>
0.622473445499558

> <r_i_glide_esite>
0

> <r_i_glide_emodel>
-61.0711931865585

> <r_i_glide_energy>
-34.149005651474

> <r_i_glide_einternal>
3.17028403282166

> <i_i_glide_confnum>
57

> <i_i_glide_posenum>
162

> <r_i_glide_eff_state_penalty>
0

> <s_user_duplicate_titles>
CHEMBL2061_lig96,179188

> <i_f3d_flags>
0

> <s_m_subgroup_title>
dock_pv

> <s_m_subgroupid>
dock_pv

> <b_m_subgroup_collapsed>
1

$$$$
CHEMBL2061_lig261
                    3D
 Schrodinger Suite 2021-1.
 49 51  0  0  1  0            999 V2000
   63.5860   45.6769   32.0407 C   0  0  0  0  0  0
   63.0979   46.3282   33.2045 C   0  0  0  0  0  0
   62.7862   45.6768   30.8785 C   0  0  0  0  0  0
   61.4709   46.1508   30.8736 C   0  0  0  0  0  0
   60.6193   46.0647   29.6313 C   0  0  0  0  0  0
   64.8674   44.8237   32.0941 C   0  0  0  0  0  0
   63.9309   46.5045   34.4934 C   0  0  0  0  0  0
   54.8079   45.5791   29.7756 C   0  0  0  0  0  0
   61.8064   46.8555   33.1648 C   0  0  0  0  0  0
   59.1113   45.9159   29.6874 C   0  0  0  0  0  0
   56.3049   45.6201   29.7073 C   0  0  0  0  0  0
   61.0085   46.7323   32.0470 C   0  0  0  0  0  0
   65.8342   45.3926   33.1639 C   0  0  0  0  0  0
   61.1789   46.0780   28.5310 O   0  0  0  0  0  0
   65.1566   45.5523   34.5283 C   0  0  0  0  0  0
   54.0884   46.4768   29.3387 O   0  0  0  0  0  0
   57.0588   45.2775   30.8286 C   0  0  0  0  0  0
   56.9570   46.0769   28.5618 C   0  0  0  0  0  0
   58.4348   45.4560   30.8265 C   0  0  0  0  0  0
   58.3491   46.1853   28.5410 C   0  0  0  0  0  0
   54.3320   44.4770   30.4160 O   0  0  0  0  0  0
   64.4085   43.3916   32.5061 C   0  0  0  0  0  0
   65.6233   44.8770   30.7426 C   0  0  0  0  0  0
   64.4080   47.9583   34.5390 C   0  0  0  0  0  0
   63.0876   46.1965   35.7390 C   0  0  0  0  0  0
   63.1479   45.1861   29.9870 H   0  0  0  0  0  0
   61.3894   47.3518   34.0271 H   0  0  0  0  0  0
   60.0080   47.0925   32.1391 H   0  0  0  0  0  0
   66.2322   46.3556   32.8395 H   0  0  0  0  0  0
   66.7040   44.7418   33.2706 H   0  0  0  0  0  0
   65.8861   45.9006   35.2616 H   0  0  0  0  0  0
   64.8605   44.5639   34.8835 H   0  0  0  0  0  0
   56.5814   44.9586   31.7390 H   0  0  0  0  0  0
   56.3888   46.3385   27.6807 H   0  0  0  0  0  0
   58.9459   45.2770   31.7547 H   0  0  0  0  0  0
   58.8252   46.5234   27.6308 H   0  0  0  0  0  0
   55.0700   43.8873   30.5870 H   0  0  0  0  0  0
   65.2131   42.7973   32.9371 H   0  0  0  0  0  0
   63.6273   43.4055   33.2678 H   0  0  0  0  0  0
   64.0084   42.8391   31.6551 H   0  0  0  0  0  0
   66.6467   44.5099   30.8217 H   0  0  0  0  0  0
   65.1371   44.2678   29.9818 H   0  0  0  0  0  0
   65.6735   45.8972   30.3622 H   0  0  0  0  0  0
   64.8080   48.2115   35.5168 H   0  0  0  0  0  0
   65.1928   48.1328   33.8047 H   0  0  0  0  0  0
   63.6042   48.6694   34.3434 H   0  0  0  0  0  0
   63.7259   46.1024   36.6170 H   0  0  0  0  0  0
   62.3725   46.9891   35.9616 H   0  0  0  0  0  0
   62.5243   45.2770   35.6441 H   0  0  0  0  0  0
  1  2  2  0  0  0
  1  3  1  0  0  0
  1  6  1  0  0  0
  2  7  1  0  0  0
  2  9  1  0  0  0
  3  4  2  0  0  0
  3 26  1  0  0  0
  4  5  1  0  0  0
  4 12  1  0  0  0
  5 10  1  0  0  0
  5 14  2  0  0  0
  6 13  1  0  0  0
  6 22  1  0  0  0
  6 23  1  0  0  0
  7 24  1  0  0  0
  7 25  1  0  0  0
  7 15  1  0  0  0
  8 11  1  0  0  0
  8 16  2  0  0  0
  8 21  1  0  0  0
  9 12  2  0  0  0
  9 27  1  0  0  0
 10 19  2  0  0  0
 10 20  1  0  0  0
 11 18  1  0  0  0
 11 17  2  0  0  0
 12 28  1  0  0  0
 13 15  1  0  0  0
 13 29  1  0  0  0
 13 30  1  0  0  0
 15 31  1  0  0  0
 15 32  1  0  0  0
 17 19  1  0  0  0
 17 33  1  0  0  0
 18 20  2  0  0  0
 18 34  1  0  0  0
 19 35  1  0  0  0
 20 36  1  0  0  0
 21 37  1  0  0  0
 22 38  1  0  0  0
 22 39  1  0  0  0
 22 40  1  0  0  0
 23 41  1  0  0  0
 23 42  1  0  0  0
 23 43  1  0  0  0
 24 44  1  0  0  0
 24 45  1  0  0  0
 24 46  1  0  0  0
 25 47  1  0  0  0
 25 48  1  0  0  0
 25 49  1  0  0  0
M  END
> <s_m_entry_id>
31116

> <s_m_entry_name>
dock_pv.329

> <s_m_Source_Path>
/home/csk/Desktop/cluster/DUD-E-result/rxra

> <s_m_Source_File>
dock_pv.maegz

> <i_m_Source_File_Index>
329

> <chembl_id>
CHEMBL101308

> <chembl_pref_name>
None

> <i_lp_mmshare_version>
53161

> <r_lp_tautomer_probability>
1

> <s_lp_Force_Field>
OPLS_2005

> <r_lp_Energy>
30.577874

> <b_lp_Chiralities_Consistent>
1

> <s_lp_Variant>
CHEMBL2061_lig261-1

> <s_i_glide_gridfile>
glide-grid_1mv9

> <i_i_glide_lignum>
304

> <i_i_glide_rotatable_bonds>
4

> <r_i_docking_score>
-9.45035812461871

> <r_i_glide_ligand_efficiency>
-0.378014324984748

> <r_i_glide_ligand_efficiency_sa>
-1.105320590368

> <r_i_glide_ligand_efficiency_ln>
-2.24001807991444

> <r_i_glide_gscore>
-9.45035812461871

> <r_i_glide_lipo>
-5.31868000784486

> <r_i_glide_hbond>
-0.0267063318679315

> <r_i_glide_metal>
0

> <r_i_glide_rewards>
-2.36511777848045

> <r_i_glide_evdw>
-38.875617980957

> <r_i_glide_ecoul>
-1.97782480716705

> <r_i_glide_erotb>
0.500600613697449

> <r_i_glide_esite>
0

> <r_i_glide_emodel>
-55.1283855936529

> <r_i_glide_energy>
-40.8534427881241

> <r_i_glide_einternal>
3.63215494155884

> <i_i_glide_confnum>
37

> <i_i_glide_posenum>
34

> <r_i_glide_eff_state_penalty>
0

> <s_user_duplicate_titles>
CHEMBL2061_lig261

> <i_f3d_flags>
0

> <s_m_subgroup_title>
dock_pv

> <s_m_subgroupid>
dock_pv

> <b_m_subgroup_collapsed>
1

$$$$
CHEMBL2061_lig338
                    3D
 Schrodinger Suite 2021-1.
 61 61  0  0  1  0            999 V2000
   62.8193   46.2122   30.9650 C   0  0  0  0  0  0
   64.0083   45.2823   32.8816 C   0  0  0  0  0  0
   63.7339   45.2777   31.4936 C   0  0  0  0  0  0
   62.7117   47.3391   33.1377 C   0  0  0  0  0  0
   62.3031   47.2167   31.7992 C   0  0  0  0  0  0
   63.5237   46.3397   33.6400 C   0  0  0  0  0  0
   62.4045   46.1859   29.5351 C   0  0  0  0  0  0
   56.3707   45.2846   29.4783 C   0  0  0  0  0  0
   64.7882   44.1925   33.6570 C   0  0  0  0  0  0
   55.0548   45.0576   30.0144 C   0  0  0  0  0  0
   62.3645   48.5125   34.0966 C   0  0  0  0  0  0
   59.9713   45.7842   29.9476 C   0  0  0  0  0  0
   57.5159   45.4097   30.1944 C   0  0  0  0  0  0
   61.1320   46.0250   29.1119 C   0  0  0  0  0  0
   58.7317   45.6734   29.4332 C   0  0  0  0  0  0
   54.5409   45.6764   30.9401 O   0  0  0  0  0  0
   64.3038   44.3483   30.6524 O   0  0  0  0  0  0
   54.4080   44.0771   29.3390 O   0  0  0  0  0  0
   63.4937   46.3927   28.5017 C   0  0  0  0  0  0
   64.2708   44.0723   35.1274 C   0  0  0  0  0  0
   66.2751   44.6133   33.7326 C   0  0  0  0  0  0
   64.5825   42.7888   33.0400 C   0  0  0  0  0  0
   62.0109   49.8211   33.3221 C   0  0  0  0  0  0
   63.6064   48.8635   34.9732 C   0  0  0  0  0  0
   61.2363   48.0556   35.0564 C   0  0  0  0  0  0
   57.5791   45.3065   31.7196 C   0  0  0  0  0  0
   65.6459   44.6356   30.2522 C   0  0  0  0  0  0
   61.6074   47.9105   31.3573 H   0  0  0  0  0  0
   63.7967   46.3931   34.6763 H   0  0  0  0  0  0
   56.3910   45.3491   28.3996 H   0  0  0  0  0  0
   60.1209   45.6799   31.0114 H   0  0  0  0  0  0
   60.9644   46.0624   28.0439 H   0  0  0  0  0  0
   58.6375   45.7823   28.3608 H   0  0  0  0  0  0
   54.9361   43.6552   28.6508 H   0  0  0  0  0  0
   63.8039   45.4144   28.1394 H   0  0  0  0  0  0
   63.1462   46.9754   27.6486 H   0  0  0  0  0  0
   64.3683   46.8765   28.9281 H   0  0  0  0  0  0
   63.2089   44.2936   35.2116 H   0  0  0  0  0  0
   64.4066   43.0810   35.5496 H   0  0  0  0  0  0
   64.7729   44.7759   35.7938 H   0  0  0  0  0  0
   66.8117   44.4765   32.8005 H   0  0  0  0  0  0
   66.3745   45.6680   33.9950 H   0  0  0  0  0  0
   66.8083   44.0733   34.5060 H   0  0  0  0  0  0
   65.2043   42.6130   32.1749 H   0  0  0  0  0  0
   64.8107   41.9937   33.7388 H   0  0  0  0  0  0
   63.5551   42.6218   32.7303 H   0  0  0  0  0  0
   61.8126   49.6771   32.2738 H   0  0  0  0  0  0
   61.1991   50.3973   33.7388 H   0  0  0  0  0  0
   62.8201   50.5452   33.3389 H   0  0  0  0  0  0
   63.8049   48.1476   35.7706 H   0  0  0  0  0  0
   64.4535   48.8632   34.3043 H   0  0  0  0  0  0
   63.6081   49.8306   35.4651 H   0  0  0  0  0  0
   61.5968   47.3060   35.7626 H   0  0  0  0  0  0
   60.8374   48.8753   35.6511 H   0  0  0  0  0  0
   60.4069   47.5818   34.5392 H   0  0  0  0  0  0
   58.2335   46.0771   32.1212 H   0  0  0  0  0  0
   56.6285   45.4798   32.2171 H   0  0  0  0  0  0
   58.0088   44.3512   32.0181 H   0  0  0  0  0  0
   66.1960   43.7025   30.1390 H   0  0  0  0  0  0
   65.6844   45.1200   29.2827 H   0  0  0  0  0  0
   66.1902   45.2872   30.9350 H   0  0  0  0  0  0
  1  3  1  0  0  0
  1  5  2  0  0  0
  1  7  1  0  0  0
  2  3  2  0  0  0
  2  9  1  0  0  0
  2  6  1  0  0  0
  3 17  1  0  0  0
  4  5  1  0  0  0
  4  6  2  0  0  0
  4 11  1  0  0  0
  5 28  1  0  0  0
  6 29  1  0  0  0
  7 14  2  0  0  0
  7 19  1  0  0  0
  8 13  2  0  0  0
  8 10  1  0  0  0
  8 30  1  0  0  0
  9 20  1  0  0  0
  9 21  1  0  0  0
  9 22  1  0  0  0
 10 16  2  0  0  0
 10 18  1  0  0  0
 11 23  1  0  0  0
 11 24  1  0  0  0
 11 25  1  0  0  0
 12 14  1  0  0  0
 12 15  2  0  0  0
 12 31  1  0  0  0
 13 15  1  0  0  0
 13 26  1  0  0  0
 14 32  1  0  0  0
 15 33  1  0  0  0
 17 27  1  0  0  0
 18 34  1  0  0  0
 19 35  1  0  0  0
 19 36  1  0  0  0
 19 37  1  0  0  0
 20 38  1  0  0  0
 20 39  1  0  0  0
 20 40  1  0  0  0
 21 41  1  0  0  0
 21 42  1  0  0  0
 21 43  1  0  0  0
 22 44  1  0  0  0
 22 45  1  0  0  0
 22 46  1  0  0  0
 23 47  1  0  0  0
 23 48  1  0  0  0
 23 49  1  0  0  0
 24 50  1  0  0  0
 24 51  1  0  0  0
 24 52  1  0  0  0
 25 53  1  0  0  0
 25 54  1  0  0  0
 25 55  1  0  0  0
 26 56  1  0  0  0
 26 57  1  0  0  0
 26 58  1  0  0  0
 27 59  1  0  0  0
 27 60  1  0  0  0
 27 61  1  0  0  0
M  END
> <s_m_entry_id>
31117

> <s_m_entry_name>
dock_pv.330

> <s_m_Source_Path>
/home/csk/Desktop/cluster/DUD-E-result/rxra

> <s_m_Source_File>
dock_pv.maegz

> <i_m_Source_File_Index>
330

> <chembl_id>
CHEMBL329334

> <chembl_pref_name>
None

> <i_lp_mmshare_version>
53161

> <r_lp_tautomer_probability>
1

> <s_lp_Force_Field>
OPLS_2005

> <r_lp_Energy>
37.352394

> <b_lp_Chiralities_Consistent>
1

> <s_lp_Variant>
CHEMBL2061_lig338-1

> <s_i_glide_gridfile>
glide-grid_1mv9

> <i_i_glide_lignum>
398

> <i_i_glide_rotatable_bonds>
8

> <r_i_docking_score>
-9.42971215253518

> <r_i_glide_ligand_efficiency>
-0.349248598242044

> <r_i_glide_ligand_efficiency_sa>
-1.04774579357506

> <r_i_glide_ligand_efficiency_ln>
-2.19508152815542

> <r_i_glide_gscore>
-9.42971215253518

> <r_i_glide_lipo>
-5.30640765144557

> <r_i_glide_hbond>
-0.16

> <r_i_glide_metal>
0

> <r_i_glide_rewards>
-2.08725530419973

> <r_i_glide_evdw>
-28.244836807251

> <r_i_glide_ecoul>
-6.8394889831543

> <r_i_glide_erotb>
0.56211599094582

> <r_i_glide_esite>
0

> <r_i_glide_emodel>
-51.1605034308137

> <r_i_glide_energy>
-35.0843257904053

> <r_i_glide_einternal>
9.12112617492676

> <i_i_glide_confnum>
31

> <i_i_glide_posenum>
92

> <r_i_glide_eff_state_penalty>
0

> <s_user_duplicate_titles>
CHEMBL2061_lig338,147307

> <i_f3d_flags>
0

> <s_m_subgroup_title>
dock_pv

> <s_m_subgroupid>
dock_pv

> <b_m_subgroup_collapsed>
1

$$$$
CHEMBL2061_lig378
                    3D
 Schrodinger Suite 2021-1.
 61 63  0  0  1  0            999 V2000
   62.9217   46.3509   33.4662 C   0  0  0  0  0  0
   64.0075   45.4736   33.2034 C   0  0  0  0  0  0
   62.2041   46.1411   31.1179 C   0  0  0  0  0  0
   61.3091   46.6024   30.0477 C   0  0  0  0  0  0
   62.0532   46.6590   32.4072 C   0  0  0  0  0  0
   64.1735   44.9903   31.8964 C   0  0  0  0  0  0
   63.2939   45.2917   30.8635 C   0  0  0  0  0  0
   62.6559   46.9587   34.8681 C   0  0  0  0  0  0
   65.0204   45.0610   34.2922 C   0  0  0  0  0  0
   55.6812   45.1647   29.8611 C   0  0  0  0  0  0
   61.9069   47.4416   29.2946 N   0  0  0  0  0  0
   59.8995   46.1009   29.9395 C   0  0  0  0  0  0
   57.1632   45.3848   29.8684 C   0  0  0  0  0  0
   64.4565   45.3779   35.7047 C   0  0  0  0  0  0
   63.8820   46.7825   35.7898 C   0  0  0  0  0  0
   54.9695   45.2514   30.8642 O   0  0  0  0  0  0
   59.1870   46.0773   28.7330 C   0  0  0  0  0  0
   59.2074   45.6772   31.0834 C   0  0  0  0  0  0
   57.8706   45.3119   31.0607 C   0  0  0  0  0  0
   57.8409   45.7425   28.6994 C   0  0  0  0  0  0
   63.3142   48.4769   27.1030 C   0  0  0  0  0  0
   64.5277   47.9388   26.9297 C   0  0  0  0  0  0
   55.2081   44.8772   28.6271 O   0  0  0  0  0  0
   61.1902   47.9108   28.1879 O   0  0  0  0  0  0
   63.5510   44.6675   29.4929 C   0  0  0  0  0  0
   65.2421   43.5374   34.2562 C   0  0  0  0  0  0
   66.3351   45.8434   34.0589 C   0  0  0  0  0  0
   62.4861   48.4769   34.7578 C   0  0  0  0  0  0
   61.4102   46.3008   35.5223 C   0  0  0  0  0  0
   61.9941   47.7273   27.0265 C   0  0  0  0  0  0
   61.2283   47.3304   32.5937 H   0  0  0  0  0  0
   65.0174   44.3610   31.6630 H   0  0  0  0  0  0
   63.6879   44.6554   35.9776 H   0  0  0  0  0  0
   65.2081   45.2794   36.4781 H   0  0  0  0  0  0
   63.6355   47.0378   36.8201 H   0  0  0  0  0  0
   64.6665   47.4859   35.5135 H   0  0  0  0  0  0
   59.6461   46.3176   27.7891 H   0  0  0  0  0  0
   59.6830   45.6772   32.0504 H   0  0  0  0  0  0
   57.3850   45.0521   31.9899 H   0  0  0  0  0  0
   57.3437   45.7796   27.7422 H   0  0  0  0  0  0
   63.2340   49.5261   27.3419 H   0  0  0  0  0  0
   65.4204   48.5396   27.0092 H   0  0  0  0  0  0
   64.6471   46.8928   26.7060 H   0  0  0  0  0  0
   55.9135   44.6090   28.0383 H   0  0  0  0  0  0
   64.1908   43.7871   29.5644 H   0  0  0  0  0  0
   62.6187   44.3295   29.0381 H   0  0  0  0  0  0
   64.0143   45.3917   28.8219 H   0  0  0  0  0  0
   66.0078   43.2770   34.9717 H   0  0  0  0  0  0
   64.3358   42.9773   34.4938 H   0  0  0  0  0  0
   65.6087   43.1641   33.3078 H   0  0  0  0  0  0
   67.0468   45.6768   34.8687 H   0  0  0  0  0  0
   66.8206   45.5271   33.1357 H   0  0  0  0  0  0
   66.1702   46.9171   33.9737 H   0  0  0  0  0  0
   62.3675   48.8769   35.7643 H   0  0  0  0  0  0
   63.3475   48.9617   34.2956 H   0  0  0  0  0  0
   61.6081   48.7697   34.1935 H   0  0  0  0  0  0
   60.9681   46.9678   36.2629 H   0  0  0  0  0  0
   60.6279   46.0793   34.7949 H   0  0  0  0  0  0
   61.6372   45.3846   36.0648 H   0  0  0  0  0  0
   62.1714   46.6618   26.8674 H   0  0  0  0  0  0
   61.4289   48.0770   26.1659 H   0  0  0  0  0  0
  1  2  2  0  0  0
  1  5  1  0  0  0
  1  8  1  0  0  0
  2  6  1  0  0  0
  2  9  1  0  0  0
  3  5  2  0  0  0
  3  4  1  0  0  0
  3  7  1  0  0  0
  4 11  2  0  0  0
  4 12  1  0  0  0
  5 31  1  0  0  0
  6  7  2  0  0  0
  6 32  1  0  0  0
  7 25  1  0  0  0
  8 15  1  0  0  0
  8 28  1  0  0  0
  8 29  1  0  0  0
  9 26  1  0  0  0
  9 27  1  0  0  0
  9 14  1  0  0  0
 10 13  1  0  0  0
 10 16  2  0  0  0
 10 23  1  0  0  0
 11 24  1  0  0  0
 12 17  2  0  0  0
 12 18  1  0  0  0
 13 19  1  0  0  0
 13 20  2  0  0  0
 14 15  1  0  0  0
 14 33  1  0  0  0
 14 34  1  0  0  0
 15 35  1  0  0  0
 15 36  1  0  0  0
 17 20  1  0  0  0
 17 37  1  0  0  0
 18 19  2  0  0  0
 18 38  1  0  0  0
 19 39  1  0  0  0
 20 40  1  0  0  0
 21 30  1  0  0  0
 21 22  2  0  0  0
 21 41  1  0  0  0
 22 42  1  0  0  0
 22 43  1  0  0  0
 23 44  1  0  0  0
 24 30  1  0  0  0
 25 45  1  0  0  0
 25 46  1  0  0  0
 25 47  1  0  0  0
 26 48  1  0  0  0
 26 49  1  0  0  0
 26 50  1  0  0  0
 27 51  1  0  0  0
 27 52  1  0  0  0
 27 53  1  0  0  0
 28 54  1  0  0  0
 28 55  1  0  0  0
 28 56  1  0  0  0
 29 57  1  0  0  0
 29 58  1  0  0  0
 29 59  1  0  0  0
 30 60  1  0  0  0
 30 61  1  0  0  0
M  END
> <s_m_entry_id>
31119

> <s_m_entry_name>
dock_pv.332

> <s_m_Source_Path>
/home/csk/Desktop/cluster/DUD-E-result/rxra

> <s_m_Source_File>
dock_pv.maegz

> <i_m_Source_File_Index>
332

> <chembl_id>
CHEMBL166244

> <chembl_pref_name>
None

> <i_lp_mmshare_version>
53161

> <r_lp_tautomer_probability>
1

> <s_lp_Force_Field>
OPLS_2005

> <r_lp_Energy>
35.690098

> <b_lp_Chiralities_Consistent>
1

> <s_lp_Variant>
CHEMBL2061_lig378-1

> <s_i_glide_gridfile>
glide-grid_1mv9

> <i_i_glide_lignum>
438

> <i_i_glide_rotatable_bonds>
7

> <r_i_docking_score>
-9.42578311425103

> <r_i_glide_ligand_efficiency>
-0.314192770475034

> <r_i_glide_ligand_efficiency_sa>
-0.976269988448898

> <r_i_glide_ligand_efficiency_ln>
-2.14164062569066

> <r_i_glide_gscore>
-9.42578311425103

> <r_i_glide_lipo>
-6.56587078604051

> <r_i_glide_hbond>
0

> <r_i_glide_metal>
0

> <r_i_glide_rewards>
-1.09188856510183

> <r_i_glide_evdw>
-45.4725608825684

> <r_i_glide_ecoul>
-1.40963196754456

> <r_i_glide_erotb>
0.717049076151415

> <r_i_glide_esite>
0

> <r_i_glide_emodel>
-51.4916811407894

> <r_i_glide_energy>
-46.8821928501129

> <r_i_glide_einternal>
19.0789070129395

> <i_i_glide_confnum>
149

> <i_i_glide_posenum>
254

> <r_i_glide_eff_state_penalty>
0

> <s_user_duplicate_titles>
CHEMBL2061_lig378,273340

> <i_f3d_flags>
0

> <s_m_subgroup_title>
dock_pv

> <s_m_subgroupid>
dock_pv

> <b_m_subgroup_collapsed>
1

$$$$
CHEMBL2061_lig11
                    3D
 Schrodinger Suite 2021-1.
 52 54  0  0  1  0            999 V2000
   63.9042   45.2770   30.8153 C   0  0  0  0  0  0
   62.8579   45.5240   29.9273 C   0  0  0  0  0  0
   61.7686   46.3003   30.3529 C   0  0  0  0  0  0
   61.8398   46.8770   31.6322 C   0  0  0  0  0  0
   63.8999   45.7189   32.1491 C   0  0  0  0  0  0
   62.8137   46.5237   32.5853 C   0  0  0  0  0  0
   62.6386   46.9695   34.0700 C   0  0  0  0  0  0
   63.5964   46.1844   35.0080 C   0  0  0  0  0  0
   65.0042   46.0352   34.4306 C   0  0  0  0  0  0
   65.0218   45.2356   33.1019 C   0  0  0  0  0  0
   62.9122   44.8508   28.5586 C   0  0  0  0  0  0
   64.7885   43.7325   33.4076 C   0  0  0  0  0  0
   66.4080   45.5017   32.4717 C   0  0  0  0  0  0
   62.9461   48.4770   34.2220 C   0  0  0  0  0  0
   61.2043   46.6333   34.5591 C   0  0  0  0  0  0
   60.5269   46.4841   29.5017 C   0  0  0  0  0  0
   59.1732   46.0651   30.0363 C   0  0  0  0  0  0
   58.0087   46.0643   29.2451 C   0  0  0  0  0  0
   56.7571   45.6886   29.7929 C   0  0  0  0  0  0
   56.6905   45.2770   31.1222 C   0  0  0  0  0  0
   57.8283   45.2770   31.9034 C   0  0  0  0  0  0
   59.0296   45.6770   31.3689 C   0  0  0  0  0  0
   55.4611   45.8717   29.0625 C   0  0  0  0  0  0
   55.6080   46.0770   27.7390 O   0  0  0  0  0  0
   54.3670   45.8650   29.6324 O   0  0  0  0  0  0
   60.6329   46.8457   28.3276 O   0  0  0  0  0  0
   64.7136   44.6473   30.4784 H   0  0  0  0  0  0
   61.0401   47.5292   31.9497 H   0  0  0  0  0  0
   63.2079   45.1887   35.2176 H   0  0  0  0  0  0
   63.6526   46.6683   35.9852 H   0  0  0  0  0  0
   65.6509   45.5566   35.1682 H   0  0  0  0  0  0
   65.4326   47.0275   34.2836 H   0  0  0  0  0  0
   63.6410   44.0404   28.5390 H   0  0  0  0  0  0
   61.9540   44.3970   28.3060 H   0  0  0  0  0  0
   63.1590   45.5765   27.7834 H   0  0  0  0  0  0
   65.5567   43.3359   34.0725 H   0  0  0  0  0  0
   63.8224   43.5437   33.8747 H   0  0  0  0  0  0
   64.8080   43.1300   32.4989 H   0  0  0  0  0  0
   67.2080   45.2971   33.1856 H   0  0  0  0  0  0
   66.5990   44.8770   31.5997 H   0  0  0  0  0  0
   66.5069   46.5410   32.1566 H   0  0  0  0  0  0
   62.6527   48.8284   35.2109 H   0  0  0  0  0  0
   64.0066   48.7052   34.1390 H   0  0  0  0  0  0
   62.4080   49.0810   33.4904 H   0  0  0  0  0  0
   61.1086   46.7605   35.6386 H   0  0  0  0  0  0
   60.4512   47.2770   34.1125 H   0  0  0  0  0  0
   60.9228   45.6079   34.3251 H   0  0  0  0  0  0
   58.0907   46.4113   28.2246 H   0  0  0  0  0  0
   55.7508   45.0043   31.5828 H   0  0  0  0  0  0
   57.7945   45.0145   32.9469 H   0  0  0  0  0  0
   59.8405   45.6770   32.0702 H   0  0  0  0  0  0
   56.5153   45.9468   27.4664 H   0  0  0  0  0  0
  1  5  1  0  0  0
  1  2  2  0  0  0
  1 27  1  0  0  0
  2  3  1  0  0  0
  2 11  1  0  0  0
  3  4  2  0  0  0
  3 16  1  0  0  0
  4  6  1  0  0  0
  4 28  1  0  0  0
  5 10  1  0  0  0
  5  6  2  0  0  0
  6  7  1  0  0  0
  7 14  1  0  0  0
  7 15  1  0  0  0
  7  8  1  0  0  0
  8  9  1  0  0  0
  8 29  1  0  0  0
  8 30  1  0  0  0
  9 10  1  0  0  0
  9 31  1  0  0  0
  9 32  1  0  0  0
 10 13  1  0  0  0
 10 12  1  0  0  0
 11 33  1  0  0  0
 11 34  1  0  0  0
 11 35  1  0  0  0
 12 36  1  0  0  0
 12 37  1  0  0  0
 12 38  1  0  0  0
 13 39  1  0  0  0
 13 40  1  0  0  0
 13 41  1  0  0  0
 14 42  1  0  0  0
 14 43  1  0  0  0
 14 44  1  0  0  0
 15 45  1  0  0  0
 15 46  1  0  0  0
 15 47  1  0  0  0
 16 17  1  0  0  0
 16 26  2  0  0  0
 17 18  2  0  0  0
 17 22  1  0  0  0
 18 19  1  0  0  0
 18 48  1  0  0  0
 19 20  2  0  0  0
 19 23  1  0  0  0
 20 21  1  0  0  0
 20 49  1  0  0  0
 21 22  2  0  0  0
 21 50  1  0  0  0
 22 51  1  0  0  0
 23 24  1  0  0  0
 23 25  2  0  0  0
 24 52  1  0  0  0
M  END
> <s_m_entry_id>
31120

> <s_m_entry_name>
dock_pv.333

> <s_m_Source_Path>
/home/csk/Desktop/cluster/DUD-E-result/rxra

> <s_m_Source_File>
dock_pv.maegz

> <i_m_Source_File_Index>
333

> <chembl_id>
CHEMBL108162

> <chembl_pref_name>
None

> <i_lp_mmshare_version>
53161

> <r_lp_tautomer_probability>
1

> <s_lp_Force_Field>
OPLS_2005

> <r_lp_Energy>
32.344854

> <b_lp_Chiralities_Consistent>
1

> <s_lp_Variant>
CHEMBL2061_lig11-1

> <s_i_glide_gridfile>
glide-grid_1mv9

> <i_i_glide_lignum>
14

> <i_i_glide_rotatable_bonds>
4

> <r_i_docking_score>
-9.41897951582592

> <r_i_glide_ligand_efficiency>
-0.362268442916381

> <r_i_glide_ligand_efficiency_sa>
-1.07321883668229

> <r_i_glide_ligand_efficiency_ln>
-2.2120164330991

> <r_i_glide_gscore>
-9.41897951582592

> <r_i_glide_lipo>
-5.44772263309105

> <r_i_glide_hbond>
-0.00244785352329767

> <r_i_glide_metal>
0

> <r_i_glide_rewards>
-2.42219378524642

> <r_i_glide_evdw>
-37.3489379882812

> <r_i_glide_ecoul>
-0.965122878551483

> <r_i_glide_erotb>
0.465600087231636

> <r_i_glide_esite>
0

> <r_i_glide_emodel>
-52.1241566684863

> <r_i_glide_energy>
-38.3140608668327

> <r_i_glide_einternal>
5.73134326934814

> <i_i_glide_confnum>
49

> <i_i_glide_posenum>
78

> <r_i_glide_eff_state_penalty>
0

> <s_user_duplicate_titles>
CHEMBL2061_lig11

> <i_f3d_flags>
0

> <s_m_subgroup_title>
dock_pv

> <s_m_subgroupid>
dock_pv

> <b_m_subgroup_collapsed>
1

$$$$
CHEMBL2061_lig320
                    3D
 Schrodinger Suite 2021-1.
 44 45  0  0  1  0            999 V2000
   64.0992   46.2454   32.7460 C   0  0  0  0  0  0
   66.4080   45.2771   33.5776 S   0  0  0  0  0  0
   63.0558   46.4772   31.8532 C   0  0  0  0  0  0
   64.0727   46.4945   34.2458 C   0  0  0  0  0  0
   63.1427   46.0853   30.5090 C   0  0  0  0  0  0
   65.2641   45.6259   32.2841 C   0  0  0  0  0  0
   61.9477   46.1637   29.6302 C   0  0  0  0  0  0
   55.9736   45.2686   30.5282 C   0  0  0  0  0  0
   54.5748   45.2619   30.2100 C   0  0  0  0  0  0
   65.5333   46.4018   34.6787 C   0  0  0  0  0  0
   59.4402   45.9349   29.5051 C   0  0  0  0  0  0
   56.9489   45.6507   29.6737 C   0  0  0  0  0  0
   60.7278   45.9213   30.1655 C   0  0  0  0  0  0
   58.3131   45.6488   30.1879 C   0  0  0  0  0  0
   64.3366   45.5052   30.0590 C   0  0  0  0  0  0
   53.9542   46.2082   29.7380 O   0  0  0  0  0  0
   65.3933   45.2770   30.9406 C   0  0  0  0  0  0
   54.0095   44.0771   30.5388 O   0  0  0  0  0  0
   63.5038   47.8870   34.6130 C   0  0  0  0  0  0
   63.2286   45.3999   34.9167 C   0  0  0  0  0  0
   62.1876   46.5444   28.1715 C   0  0  0  0  0  0
   56.6382   46.0773   28.2462 C   0  0  0  0  0  0
   62.1484   46.9303   32.2228 H   0  0  0  0  0  0
   56.2068   44.9462   31.5320 H   0  0  0  0  0  0
   65.6607   46.0775   35.7129 H   0  0  0  0  0  0
   66.0078   47.3696   34.5389 H   0  0  0  0  0  0
   59.4038   46.1775   28.4574 H   0  0  0  0  0  0
   60.6938   45.6770   31.2160 H   0  0  0  0  0  0
   58.4343   45.3986   31.2337 H   0  0  0  0  0  0
   64.4394   45.1802   29.0341 H   0  0  0  0  0  0
   66.2904   44.7967   30.5778 H   0  0  0  0  0  0
   54.7037   43.4653   30.7959 H   0  0  0  0  0  0
   63.5495   48.0596   35.6893 H   0  0  0  0  0  0
   64.0580   48.6947   34.1391 H   0  0  0  0  0  0
   62.4599   47.9917   34.3161 H   0  0  0  0  0  0
   63.2162   45.5036   36.0023 H   0  0  0  0  0  0
   62.2006   45.4701   34.5627 H   0  0  0  0  0  0
   63.6060   44.4021   34.6845 H   0  0  0  0  0  0
   62.8781   47.3867   28.1072 H   0  0  0  0  0  0
   62.6191   45.7031   27.6285 H   0  0  0  0  0  0
   61.2781   46.8324   27.6477 H   0  0  0  0  0  0
   57.5087   46.4688   27.7390 H   0  0  0  0  0  0
   56.1729   45.2770   27.6775 H   0  0  0  0  0  0
   55.8991   46.8769   28.2567 H   0  0  0  0  0  0
  1  3  1  0  0  0
  1  4  1  0  0  0
  1  6  2  0  0  0
  2  6  1  0  0  0
  2 10  1  0  0  0
  3  5  2  0  0  0
  3 23  1  0  0  0
  4 10  1  0  0  0
  4 19  1  0  0  0
  4 20  1  0  0  0
  5  7  1  0  0  0
  5 15  1  0  0  0
  6 17  1  0  0  0
  7 13  2  0  0  0
  7 21  1  0  0  0
  8 12  2  0  0  0
  8  9  1  0  0  0
  8 24  1  0  0  0
  9 16  2  0  0  0
  9 18  1  0  0  0
 10 25  1  0  0  0
 10 26  1  0  0  0
 11 13  1  0  0  0
 11 14  2  0  0  0
 11 27  1  0  0  0
 12 14  1  0  0  0
 12 22  1  0  0  0
 13 28  1  0  0  0
 14 29  1  0  0  0
 15 17  2  0  0  0
 15 30  1  0  0  0
 17 31  1  0  0  0
 18 32  1  0  0  0
 19 33  1  0  0  0
 19 34  1  0  0  0
 19 35  1  0  0  0
 20 36  1  0  0  0
 20 37  1  0  0  0
 20 38  1  0  0  0
 21 39  1  0  0  0
 21 40  1  0  0  0
 21 41  1  0  0  0
 22 42  1  0  0  0
 22 43  1  0  0  0
 22 44  1  0  0  0
M  END
> <s_m_entry_id>
31121

> <s_m_entry_name>
dock_pv.334

> <s_m_Source_Path>
/home/csk/Desktop/cluster/DUD-E-result/rxra

> <s_m_Source_File>
dock_pv.maegz

> <i_m_Source_File_Index>
334

> <chembl_id>
CHEMBL330998

> <chembl_pref_name>
None

> <i_lp_mmshare_version>
53161

> <r_lp_tautomer_probability>
1

> <s_lp_Force_Field>
OPLS_2005

> <r_lp_Energy>
30.166421

> <b_lp_Chiralities_Consistent>
1

> <s_lp_Variant>
CHEMBL2061_lig320-1

> <s_i_glide_gridfile>
glide-grid_1mv9

> <i_i_glide_lignum>
368

> <i_i_glide_rotatable_bonds>
5

> <r_i_docking_score>
-9.41478534006114

> <r_i_glide_ligand_efficiency>
-0.427944788184597

> <r_i_glide_ligand_efficiency_sa>
-1.19911812660672

> <r_i_glide_ligand_efficiency_ln>
-2.3013169497502

> <r_i_glide_gscore>
-9.41478534006114

> <r_i_glide_lipo>
-5.16935579313885

> <r_i_glide_hbond>
-0.165462882756047

> <r_i_glide_metal>
0

> <r_i_glide_rewards>
-2.37822157504465

> <r_i_glide_evdw>
-35.9613418579102

> <r_i_glide_ecoul>
-4.26677322387695

> <r_i_glide_erotb>
0.752003514462453

> <r_i_glide_esite>
-0.015665527106994

> <r_i_glide_emodel>
-54.0158437557274

> <r_i_glide_energy>
-40.2281150817871

> <r_i_glide_einternal>
6.42556095123291

> <i_i_glide_confnum>
37

> <i_i_glide_posenum>
194

> <r_i_glide_eff_state_penalty>
0

> <s_user_duplicate_titles>
CHEMBL2061_lig320

> <i_f3d_flags>
0

> <s_m_subgroup_title>
dock_pv

> <s_m_subgroupid>
dock_pv

> <b_m_subgroup_collapsed>
1

$$$$
CHEMBL2061_lig418
                    3D
 Schrodinger Suite 2021-1.
 65 66  0  0  1  0            999 V2000
   62.1618   47.2870   32.2674 C   0  0  0  0  0  0
   62.7947   46.9812   33.4976 C   0  0  0  0  0  0
   63.6870   45.9248   33.5124 C   0  0  0  0  0  0
   62.4624   46.5691   31.0796 C   0  0  0  0  0  0
   63.4503   45.5737   31.1446 C   0  0  0  0  0  0
   64.0457   45.2668   32.3601 C   0  0  0  0  0  0
   65.1123   44.2186   32.2679 C   0  0  0  0  0  0
   65.2079   43.9879   30.7410 C   0  0  0  0  0  0
   64.0206   44.6689   30.0726 C   0  0  0  0  0  0
   61.8896   46.8814   29.8169 N   0  0  0  0  0  0
   61.1260   45.8521   29.1069 C   0  0  0  0  0  0
   59.7749   45.5047   29.6750 C   0  0  0  0  0  0
   58.5891   45.8824   29.1677 C   0  0  0  0  0  0
   57.2984   45.4478   29.6933 C   0  0  0  0  0  0
   56.2070   46.0705   29.1830 C   0  0  0  0  0  0
   57.2695   44.3323   30.7403 C   0  0  0  0  0  0
   54.8084   45.8455   29.4464 C   0  0  0  0  0  0
   54.4671   44.5633   29.7390 O   0  0  0  0  0  0
   53.9648   46.7303   29.3389 O   0  0  0  0  0  0
   61.6083   48.2662   29.4518 C   0  0  0  0  0  0
   61.8222   48.5841   27.9401 C   0  0  0  0  0  0
   63.1871   48.1725   27.3592 C   0  0  0  0  0  0
   62.6482   47.7843   34.8161 C   0  0  0  0  0  0
   63.6943   48.8991   34.8181 C   0  0  0  0  0  0
   62.9613   46.9920   36.0931 C   0  0  0  0  0  0
   61.2375   48.3278   35.0357 C   0  0  0  0  0  0
   66.4116   44.8114   32.8723 C   0  0  0  0  0  0
   64.6861   42.9524   33.0515 C   0  0  0  0  0  0
   61.4623   48.1057   32.2201 H   0  0  0  0  0  0
   64.1972   45.6353   34.4127 H   0  0  0  0  0  0
   65.2081   42.9295   30.4737 H   0  0  0  0  0  0
   66.1162   44.4380   30.3341 H   0  0  0  0  0  0
   63.3157   43.8932   29.7752 H   0  0  0  0  0  0
   64.3327   45.2088   29.1769 H   0  0  0  0  0  0
   61.6643   44.9120   29.1041 H   0  0  0  0  0  0
   61.0299   46.0922   28.0495 H   0  0  0  0  0  0
   59.8120   44.8771   30.5390 H   0  0  0  0  0  0
   58.6082   46.5359   28.3060 H   0  0  0  0  0  0
   56.3389   46.8769   28.4825 H   0  0  0  0  0  0
   57.9003   43.5158   30.3911 H   0  0  0  0  0  0
   57.7191   44.6780   31.6713 H   0  0  0  0  0  0
   56.3077   43.8800   30.9410 H   0  0  0  0  0  0
   53.5146   44.4778   29.7388 H   0  0  0  0  0  0
   60.5797   48.4770   29.7383 H   0  0  0  0  0  0
   62.2792   48.8756   30.0580 H   0  0  0  0  0  0
   61.0369   48.1053   27.3556 H   0  0  0  0  0  0
   61.6736   49.6457   27.7423 H   0  0  0  0  0  0
   63.2199   48.3563   26.2852 H   0  0  0  0  0  0
   63.9998   48.7417   27.8080 H   0  0  0  0  0  0
   63.3927   47.1128   27.5113 H   0  0  0  0  0  0
   63.4522   49.7071   34.1384 H   0  0  0  0  0  0
   63.8062   49.3673   35.7959 H   0  0  0  0  0  0
   64.6631   48.4770   34.5387 H   0  0  0  0  0  0
   62.3096   46.1181   36.1389 H   0  0  0  0  0  0
   63.9978   46.6646   36.1827 H   0  0  0  0  0  0
   62.8101   47.6770   36.9390 H   0  0  0  0  0  0
   60.4660   47.6570   34.6572 H   0  0  0  0  0  0
   60.9945   48.5470   36.0768 H   0  0  0  0  0  0
   61.2080   49.2770   34.5390 H   0  0  0  0  0  0
   67.2014   44.0773   32.9382 H   0  0  0  0  0  0
   66.7814   45.6599   32.2955 H   0  0  0  0  0  0
   66.2770   45.1567   33.8972 H   0  0  0  0  0  0
   65.5520   42.3613   33.3388 H   0  0  0  0  0  0
   64.1820   43.1973   33.9876 H   0  0  0  0  0  0
   64.0076   42.3173   32.4796 H   0  0  0  0  0  0
  1  2  2  0  0  0
  1  4  1  0  0  0
  1 29  1  0  0  0
  2 23  1  0  0  0
  2  3  1  0  0  0
  3  6  2  0  0  0
  3 30  1  0  0  0
  4  5  2  0  0  0
  4 10  1  0  0  0
  5  9  1  0  0  0
  5  6  1  0  0  0
  6  7  1  0  0  0
  7  8  1  0  0  0
  7 27  1  0  0  0
  7 28  1  0  0  0
  8  9  1  0  0  0
  8 31  1  0  0  0
  8 32  1  0  0  0
  9 33  1  0  0  0
  9 34  1  0  0  0
 10 20  1  0  0  0
 10 11  1  0  0  0
 11 12  1  0  0  0
 11 35  1  0  0  0
 11 36  1  0  0  0
 12 13  2  0  0  0
 12 37  1  0  0  0
 13 14  1  0  0  0
 13 38  1  0  0  0
 14 15  2  0  0  0
 14 16  1  0  0  0
 15 17  1  0  0  0
 15 39  1  0  0  0
 16 40  1  0  0  0
 16 41  1  0  0  0
 16 42  1  0  0  0
 17 18  1  0  0  0
 17 19  2  0  0  0
 18 43  1  0  0  0
 20 21  1  0  0  0
 20 44  1  0  0  0
 20 45  1  0  0  0
 21 22  1  0  0  0
 21 46  1  0  0  0
 21 47  1  0  0  0
 22 48  1  0  0  0
 22 49  1  0  0  0
 22 50  1  0  0  0
 23 24  1  0  0  0
 23 25  1  0  0  0
 23 26  1  0  0  0
 24 51  1  0  0  0
 24 52  1  0  0  0
 24 53  1  0  0  0
 25 54  1  0  0  0
 25 55  1  0  0  0
 25 56  1  0  0  0
 26 57  1  0  0  0
 26 58  1  0  0  0
 26 59  1  0  0  0
 27 60  1  0  0  0
 27 61  1  0  0  0
 27 62  1  0  0  0
 28 63  1  0  0  0
 28 64  1  0  0  0
 28 65  1  0  0  0
M  END
> <s_m_entry_id>
31122

> <s_m_entry_name>
dock_pv.335

> <s_m_Source_Path>
/home/csk/Desktop/cluster/DUD-E-result/rxra

> <s_m_Source_File>
dock_pv.maegz

> <i_m_Source_File_Index>
335

> <chembl_id>
CHEMBL208316

> <chembl_pref_name>
None

> <i_lp_mmshare_version>
53161

> <r_lp_tautomer_probability>
1

> <s_lp_Force_Field>
OPLS_2005

> <r_lp_Energy>
36.656484

> <b_lp_Chiralities_Consistent>
1

> <s_lp_Variant>
CHEMBL2061_lig418-1

> <s_i_glide_gridfile>
glide-grid_1mv9

> <i_i_glide_lignum>
489

> <i_i_glide_rotatable_bonds>
9

> <r_i_docking_score>
-9.36329210020568

> <r_i_glide_ligand_efficiency>
-0.33440328929306

> <r_i_glide_ligand_efficiency_sa>
-1.01544533929836

> <r_i_glide_ligand_efficiency_ln>
-2.16132273492948

> <r_i_glide_gscore>
-9.36329210020568

> <r_i_glide_lipo>
-6.03725628256488

> <r_i_glide_hbond>
-0.13079414915743

> <r_i_glide_metal>
0

> <r_i_glide_rewards>
-2.07100617988908

> <r_i_glide_evdw>
-36.8370819091797

> <r_i_glide_ecoul>
-0.499460130929947

> <r_i_glide_erotb>
0.792537626504182

> <r_i_glide_esite>
0

> <r_i_glide_emodel>
-61.7706754543152

> <r_i_glide_energy>
-37.3365420401096

> <r_i_glide_einternal>
7.01976013183594

> <i_i_glide_confnum>
42

> <i_i_glide_posenum>
156

> <r_i_glide_eff_state_penalty>
0

> <s_user_duplicate_titles>
CHEMBL2061_lig418,345852

> <i_f3d_flags>
0

> <s_m_subgroup_title>
dock_pv

> <s_m_subgroupid>
dock_pv

> <b_m_subgroup_collapsed>
1

$$$$
CHEMBL2061_lig234
                    3D
 Schrodinger Suite 2021-1.
 49 51  0  0  1  0            999 V2000
   61.1206   47.5485   27.4490 C   0  0  0  0  0  0
   62.0924   47.7345   28.4214 C   0  0  0  0  0  0
   61.8618   47.2736   29.7107 C   0  0  0  0  0  0
   59.9351   46.8843   27.7389 C   0  0  0  0  0  0
   59.6755   46.4817   29.0495 C   0  0  0  0  0  0
   60.6555   46.6294   30.0184 C   0  0  0  0  0  0
   60.0936   46.1287   31.2715 C   0  0  0  0  0  0
   58.7096   45.7648   30.9859 C   0  0  0  0  0  0
   58.4462   45.9754   29.6729 C   0  0  0  0  0  0
   61.2975   48.0765   26.2332 F   0  0  0  0  0  0
   57.7649   45.2768   32.0617 C   0  0  0  0  0  0
   57.1714   45.8739   28.8269 C   0  0  0  0  0  0
   56.0685   44.8409   29.1630 C   0  0  0  0  0  0
   60.6889   46.0775   32.4829 C   0  0  0  0  0  0
   62.0998   46.2744   32.8346 C   0  0  0  0  0  0
   63.0868   45.6774   32.0433 C   0  0  0  0  0  0
   64.3878   45.6223   32.4840 C   0  0  0  0  0  0
   64.7161   46.1848   33.7145 C   0  0  0  0  0  0
   63.7497   46.8265   34.4934 C   0  0  0  0  0  0
   62.4327   46.8673   34.0522 C   0  0  0  0  0  0
   66.1617   46.1816   34.1422 C   0  0  0  0  0  0
   66.8811   47.1895   33.2508 C   0  0  0  0  0  0
   66.8133   44.7986   34.0743 C   0  0  0  0  0  0
   54.8540   45.3772   29.9318 C   0  0  0  0  0  0
   54.3057   46.4767   29.3388 O   0  0  0  0  0  0
   54.4068   44.8376   30.9389 O   0  0  0  0  0  0
   63.0005   48.2684   28.1833 H   0  0  0  0  0  0
   62.6046   47.5029   30.4559 H   0  0  0  0  0  0
   59.2189   46.7715   26.9390 H   0  0  0  0  0  0
   58.2497   44.4809   32.6250 H   0  0  0  0  0  0
   57.5221   46.0781   32.7580 H   0  0  0  0  0  0
   56.8423   44.8793   31.6709 H   0  0  0  0  0  0
   57.4796   45.6783   27.8016 H   0  0  0  0  0  0
   56.7611   46.8769   28.8075 H   0  0  0  0  0  0
   56.4855   43.9678   29.6658 H   0  0  0  0  0  0
   55.6527   44.4773   28.2240 H   0  0  0  0  0  0
   60.0798   45.7726   33.3213 H   0  0  0  0  0  0
   62.8323   45.1771   31.1196 H   0  0  0  0  0  0
   65.1326   45.1435   31.8654 H   0  0  0  0  0  0
   64.0147   47.2832   35.4360 H   0  0  0  0  0  0
   61.6727   47.3160   34.6768 H   0  0  0  0  0  0
   66.2033   46.4765   35.1872 H   0  0  0  0  0  0
   66.4097   48.1639   33.3384 H   0  0  0  0  0  0
   67.9317   47.2939   33.4852 H   0  0  0  0  0  0
   66.8079   46.8765   32.2078 H   0  0  0  0  0  0
   66.2151   44.0489   34.5922 H   0  0  0  0  0  0
   66.9445   44.4765   33.0430 H   0  0  0  0  0  0
   67.7981   44.8245   34.5386 H   0  0  0  0  0  0
   54.8053   46.7335   28.5610 H   0  0  0  0  0  0
  1  2  2  0  0  0
  1  4  1  0  0  0
  1 10  1  0  0  0
  2  3  1  0  0  0
  2 27  1  0  0  0
  3  6  2  0  0  0
  3 28  1  0  0  0
  4  5  2  0  0  0
  4 29  1  0  0  0
  5  6  1  0  0  0
  5  9  1  0  0  0
  6  7  1  0  0  0
  7  8  1  0  0  0
  7 14  2  0  0  0
  8  9  2  0  0  0
  8 11  1  0  0  0
  9 12  1  0  0  0
 11 30  1  0  0  0
 11 31  1  0  0  0
 11 32  1  0  0  0
 12 13  1  0  0  0
 12 33  1  0  0  0
 12 34  1  0  0  0
 13 24  1  0  0  0
 13 35  1  0  0  0
 13 36  1  0  0  0
 14 15  1  0  0  0
 14 37  1  0  0  0
 15 16  2  0  0  0
 15 20  1  0  0  0
 16 17  1  0  0  0
 16 38  1  0  0  0
 17 18  2  0  0  0
 17 39  1  0  0  0
 18 19  1  0  0  0
 18 21  1  0  0  0
 19 20  2  0  0  0
 19 40  1  0  0  0
 20 41  1  0  0  0
 21 22  1  0  0  0
 21 23  1  0  0  0
 21 42  1  0  0  0
 22 43  1  0  0  0
 22 44  1  0  0  0
 22 45  1  0  0  0
 23 46  1  0  0  0
 23 47  1  0  0  0
 23 48  1  0  0  0
 24 25  1  0  0  0
 24 26  2  0  0  0
 25 49  1  0  0  0
M  END
> <s_m_entry_id>
31123

> <s_m_entry_name>
dock_pv.336

> <s_m_Source_Path>
/home/csk/Desktop/cluster/DUD-E-result/rxra

> <s_m_Source_File>
dock_pv.maegz

> <i_m_Source_File_Index>
336

> <chembl_id>
CHEMBL2337779

> <chembl_pref_name>
None

> <i_lp_mmshare_version>
53161

> <r_lp_tautomer_probability>
1

> <s_lp_Force_Field>
OPLS_2005

> <r_lp_Energy>
39.731105

> <b_lp_Chiralities_Consistent>
1

> <s_lp_Variant>
CHEMBL2061_lig234-1

> <s_i_glide_gridfile>
glide-grid_1mv9

> <i_i_glide_lignum>
273

> <i_i_glide_rotatable_bonds>
6

> <r_i_docking_score>
-9.36170112091792

> <r_i_glide_ligand_efficiency>
-0.360065427727612

> <r_i_glide_ligand_efficiency_sa>
-1.06669241285401

> <r_i_glide_ligand_efficiency_ln>
-2.1985647900007

> <r_i_glide_gscore>
-9.36170112091792

> <r_i_glide_lipo>
-5.44550966061581

> <r_i_glide_hbond>
-0.262021405342006

> <r_i_glide_metal>
0

> <r_i_glide_rewards>
-2.22069772798012

> <r_i_glide_evdw>
-29.1179599761963

> <r_i_glide_ecoul>
-3.98968410491943

> <r_i_glide_erotb>
0.620878287567744

> <r_i_glide_esite>
0

> <r_i_glide_emodel>
-40.4238379986331

> <r_i_glide_energy>
-33.1076440811157

> <r_i_glide_einternal>
8.49935626983643

> <i_i_glide_confnum>
47

> <i_i_glide_posenum>
269

> <r_i_glide_eff_state_penalty>
0

> <s_user_duplicate_titles>
CHEMBL2061_lig234

> <i_f3d_flags>
0

> <s_m_subgroup_title>
dock_pv

> <s_m_subgroupid>
dock_pv

> <b_m_subgroup_collapsed>
1

$$$$
CHEMBL2061_lig85 
                    3D
 Schrodinger Suite 2021-1.
 42 45  0  0  1  0            999 V2000
   61.0163   47.4233   27.1691 C   0  0  0  0  0  0
   61.8177   47.9084   28.1985 C   0  0  0  0  0  0
   61.5374   47.5698   29.5178 C   0  0  0  0  0  0
   59.9188   46.6099   27.4815 C   0  0  0  0  0  0
   59.5565   46.3928   28.8099 C   0  0  0  0  0  0
   60.4101   46.7782   29.8092 C   0  0  0  0  0  0
   59.8535   46.2614   31.0694 C   0  0  0  0  0  0
   58.5224   45.7751   30.7535 C   0  0  0  0  0  0
   58.3543   45.8122   29.4251 C   0  0  0  0  0  0
   57.1444   45.3948   28.6251 C   0  0  0  0  0  0
   55.7773   45.8990   28.9992 C   0  0  0  0  0  0
   60.4094   46.2737   32.2907 C   0  0  0  0  0  0
   61.8201   46.4747   32.5977 C   0  0  0  0  0  0
   62.1859   47.0191   33.8202 C   0  0  0  0  0  0
   63.5161   46.9719   34.1986 C   0  0  0  0  0  0
   64.4534   46.3707   33.3464 C   0  0  0  0  0  0
   64.0920   45.8585   32.1117 C   0  0  0  0  0  0
   62.7730   45.9090   31.7375 C   0  0  0  0  0  0
   65.8941   46.3852   33.7393 C   0  0  0  0  0  0
   55.2329   47.0658   28.5389 N   0  0  0  0  0  0
   53.9915   47.1985   28.9380 N   0  0  0  0  0  0
   53.7953   46.0776   29.7314 N   0  0  0  0  0  0
   54.9107   45.2626   29.7371 N   0  0  0  0  0  0
   57.5245   45.2109   31.7410 C   0  0  0  0  0  0
   66.6975   45.7519   32.8840 F   0  0  0  0  0  0
   66.1481   47.6758   33.7382 F   0  0  0  0  0  0
   66.0519   45.8541   34.9418 F   0  0  0  0  0  0
   61.2371   47.6756   26.1390 H   0  0  0  0  0  0
   62.6606   48.5448   27.9706 H   0  0  0  0  0  0
   62.1767   47.9625   30.2900 H   0  0  0  0  0  0
   59.3469   46.1688   26.6924 H   0  0  0  0  0  0
   57.3276   45.6884   27.6040 H   0  0  0  0  0  0
   57.1202   44.3114   28.6924 H   0  0  0  0  0  0
   59.8033   46.0014   33.1437 H   0  0  0  0  0  0
   61.4506   47.4476   34.4900 H   0  0  0  0  0  0
   63.8275   47.3976   35.1411 H   0  0  0  0  0  0
   64.8082   45.4154   31.4378 H   0  0  0  0  0  0
   62.4878   45.4301   30.8179 H   0  0  0  0  0  0
   55.7029   47.7431   27.9485 H   0  0  0  0  0  0
   58.0087   44.8764   32.6512 H   0  0  0  0  0  0
   56.7821   45.9644   32.0029 H   0  0  0  0  0  0
   57.0113   44.3540   31.3063 H   0  0  0  0  0  0
  1  2  2  0  0  0
  1  4  1  0  0  0
  1 28  1  0  0  0
  2  3  1  0  0  0
  2 29  1  0  0  0
  3  6  2  0  0  0
  3 30  1  0  0  0
  4  5  2  0  0  0
  4 31  1  0  0  0
  5  6  1  0  0  0
  5  9  1  0  0  0
  6  7  1  0  0  0
  7  8  1  0  0  0
  7 12  2  0  0  0
  8  9  2  0  0  0
  8 24  1  0  0  0
  9 10  1  0  0  0
 10 11  1  0  0  0
 10 32  1  0  0  0
 10 33  1  0  0  0
 11 20  1  0  0  0
 11 23  2  0  0  0
 12 13  1  0  0  0
 12 34  1  0  0  0
 13 14  2  0  0  0
 13 18  1  0  0  0
 14 15  1  0  0  0
 14 35  1  0  0  0
 15 16  2  0  0  0
 15 36  1  0  0  0
 16 17  1  0  0  0
 16 19  1  0  0  0
 17 18  2  0  0  0
 17 37  1  0  0  0
 18 38  1  0  0  0
 19 25  1  0  0  0
 19 26  1  0  0  0
 19 27  1  0  0  0
 20 21  1  0  0  0
 20 39  1  0  0  0
 21 22  2  0  0  0
 22 23  1  0  0  0
 24 40  1  0  0  0
 24 41  1  0  0  0
 24 42  1  0  0  0
M  END
> <s_m_entry_id>
31124

> <s_m_entry_name>
dock_pv.337

> <s_m_Source_Path>
/home/csk/Desktop/cluster/DUD-E-result/rxra

> <s_m_Source_File>
dock_pv.maegz

> <i_m_Source_File_Index>
337

> <chembl_id>
CHEMBL4458023

> <chembl_pref_name>
None

> <i_lp_mmshare_version>
53161

> <r_lp_tautomer_probability>
0.3

> <s_lp_Force_Field>
OPLS_2005

> <r_lp_Energy>
43.5876

> <b_lp_Chiralities_Consistent>
1

> <s_lp_Variant>
CHEMBL2061_lig85 -1

> <s_i_glide_gridfile>
glide-grid_1mv9

> <i_i_glide_lignum>
119

> <i_i_glide_rotatable_bonds>
4

> <r_i_docking_score>
-9.35188702624477

> <r_i_glide_ligand_efficiency>
-0.346366186157214

> <r_i_glide_ligand_efficiency_sa>
-1.03909855733007

> <r_i_glide_ligand_efficiency_ln>
-2.1769651218025

> <r_i_glide_gscore>
-9.35188702624477

> <r_i_glide_lipo>
-4.85440011459394

> <r_i_glide_hbond>
0

> <r_i_glide_metal>
0

> <r_i_glide_rewards>
-3.15814501873232

> <r_i_glide_evdw>
-26.2637977600098

> <r_i_glide_ecoul>
-1.93808698654175

> <r_i_glide_erotb>
0.426035098229492

> <r_i_glide_esite>
-0.161474055166253

> <r_i_glide_emodel>
-37.8765603716916

> <r_i_glide_energy>
-28.2018847465515

> <r_i_glide_einternal>
3.50949263572693

> <i_i_glide_confnum>
5

> <i_i_glide_posenum>
393

> <r_i_glide_eff_state_penalty>
0

> <s_user_duplicate_titles>
CHEMBL2061_lig85 ,CHEMBL2061_lig85 

> <i_f3d_flags>
0

> <s_m_subgroup_title>
dock_pv

> <s_m_subgroupid>
dock_pv

> <b_m_subgroup_collapsed>
1

$$$$
CHEMBL2061_lig83 
                    3D
 Schrodinger Suite 2021-1.
 43 46  0  0  1  0            999 V2000
   61.1453   47.4946   27.4235 C   0  0  0  0  0  0
   62.0467   47.7782   28.4454 C   0  0  0  0  0  0
   61.7396   47.4220   29.7575 C   0  0  0  0  0  0
   59.9338   46.8790   27.7272 C   0  0  0  0  0  0
   59.6205   46.5240   29.0368 C   0  0  0  0  0  0
   60.5421   46.7471   30.0485 C   0  0  0  0  0  0
   59.9208   46.2676   31.3004 C   0  0  0  0  0  0
   58.5745   45.8435   30.9345 C   0  0  0  0  0  0
   58.3994   45.9502   29.6094 C   0  0  0  0  0  0
   57.1929   45.5236   28.7811 C   0  0  0  0  0  0
   55.7827   46.0119   29.0762 C   0  0  0  0  0  0
   60.3925   46.2690   32.5678 C   0  0  0  0  0  0
   61.7383   46.4923   33.0839 C   0  0  0  0  0  0
   61.9183   46.9184   34.4017 C   0  0  0  0  0  0
   63.1801   46.8312   34.9851 C   0  0  0  0  0  0
   64.2513   46.3266   34.2504 C   0  0  0  0  0  0
   64.0711   45.9977   32.8990 C   0  0  0  0  0  0
   62.8258   46.0718   32.3301 C   0  0  0  0  0  0
   55.2052   47.1494   28.5539 N   0  0  0  0  0  0
   53.9199   47.2069   28.8963 N   0  0  0  0  0  0
   53.7062   46.0733   29.6684 N   0  0  0  0  0  0
   54.8922   45.3549   29.7873 N   0  0  0  0  0  0
   57.5481   45.2637   31.8743 C   0  0  0  0  0  0
   65.4357   46.1215   34.9197 O   0  0  0  0  0  0
   66.5657   45.7473   34.1466 C   0  0  0  0  0  0
   66.8280   46.6934   33.2513 F   0  0  0  0  0  0
   66.4079   44.5463   33.5830 F   0  0  0  0  0  0
   67.6081   45.6768   34.9355 F   0  0  0  0  0  0
   61.3726   47.7774   26.4066 H   0  0  0  0  0  0
   62.9714   48.2906   28.2238 H   0  0  0  0  0  0
   62.4329   47.7224   30.5244 H   0  0  0  0  0  0
   59.2294   46.7011   26.9409 H   0  0  0  0  0  0
   57.4194   45.6865   27.7378 H   0  0  0  0  0  0
   57.1892   44.4400   28.9104 H   0  0  0  0  0  0
   59.7014   45.9805   33.3446 H   0  0  0  0  0  0
   61.0768   47.2349   34.9994 H   0  0  0  0  0  0
   63.3162   47.1001   36.0231 H   0  0  0  0  0  0
   64.8581   45.6105   32.2727 H   0  0  0  0  0  0
   62.7026   45.6626   31.3396 H   0  0  0  0  0  0
   55.6460   47.8371   27.9653 H   0  0  0  0  0  0
   58.0286   44.8154   32.7417 H   0  0  0  0  0  0
   56.8486   46.0237   32.2170 H   0  0  0  0  0  0
   56.9936   44.4819   31.3532 H   0  0  0  0  0  0
  1  2  2  0  0  0
  1  4  1  0  0  0
  1 29  1  0  0  0
  2  3  1  0  0  0
  2 30  1  0  0  0
  3  6  2  0  0  0
  3 31  1  0  0  0
  4  5  2  0  0  0
  4 32  1  0  0  0
  5  6  1  0  0  0
  5  9  1  0  0  0
  6  7  1  0  0  0
  7  8  1  0  0  0
  7 12  2  0  0  0
  8  9  2  0  0  0
  8 23  1  0  0  0
  9 10  1  0  0  0
 10 11  1  0  0  0
 10 33  1  0  0  0
 10 34  1  0  0  0
 11 19  1  0  0  0
 11 22  2  0  0  0
 12 13  1  0  0  0
 12 35  1  0  0  0
 13 14  2  0  0  0
 13 18  1  0  0  0
 14 15  1  0  0  0
 14 36  1  0  0  0
 15 16  2  0  0  0
 15 37  1  0  0  0
 16 17  1  0  0  0
 16 24  1  0  0  0
 17 18  2  0  0  0
 17 38  1  0  0  0
 18 39  1  0  0  0
 19 20  1  0  0  0
 19 40  1  0  0  0
 20 21  2  0  0  0
 21 22  1  0  0  0
 23 41  1  0  0  0
 23 42  1  0  0  0
 23 43  1  0  0  0
 24 25  1  0  0  0
 25 26  1  0  0  0
 25 27  1  0  0  0
 25 28  1  0  0  0
M  END
> <s_m_entry_id>
31125

> <s_m_entry_name>
dock_pv.338

> <s_m_Source_Path>
/home/csk/Desktop/cluster/DUD-E-result/rxra

> <s_m_Source_File>
dock_pv.maegz

> <i_m_Source_File_Index>
338

> <chembl_id>
CHEMBL4436475

> <chembl_pref_name>
None

> <i_lp_mmshare_version>
53161

> <r_lp_tautomer_probability>
0.3

> <s_lp_Force_Field>
OPLS_2005

> <r_lp_Energy>
43.361847

> <b_lp_Chiralities_Consistent>
1

> <s_lp_Variant>
CHEMBL2061_lig83 -1

> <s_i_glide_gridfile>
glide-grid_1mv9

> <i_i_glide_lignum>
115

> <i_i_glide_rotatable_bonds>
5

> <r_i_docking_score>
-9.35145186575128

> <r_i_glide_ligand_efficiency>
-0.333980423776831

> <r_i_glide_ligand_efficiency_sa>
-1.01416127053662

> <r_i_glide_ligand_efficiency_ln>
-2.15858966117301

> <r_i_glide_gscore>
-9.35145186575128

> <r_i_glide_lipo>
-4.9807867635656

> <r_i_glide_hbond>
0

> <r_i_glide_metal>
0

> <r_i_glide_rewards>
-2.91118010524107

> <r_i_glide_evdw>
-30.2415351867676

> <r_i_glide_ecoul>
-1.98972249031067

> <r_i_glide_erotb>
0.526418021186036

> <r_i_glide_esite>
-0.175367885245668

> <r_i_glide_emodel>
-41.119199041609

> <r_i_glide_energy>
-32.2312576770782

> <r_i_glide_einternal>
12.4737596511841

> <i_i_glide_confnum>
17

> <i_i_glide_posenum>
316

> <r_i_glide_eff_state_penalty>
0

> <s_user_duplicate_titles>
CHEMBL2061_lig83 

> <i_f3d_flags>
0

> <s_m_subgroup_title>
dock_pv

> <s_m_subgroupid>
dock_pv

> <b_m_subgroup_collapsed>
1

$$$$
CHEMBL2061_lig350
                    3D
 Schrodinger Suite 2021-1.
 61 63  0  0  1  0            999 V2000
   62.3910   46.4508   30.2693 C   0  0  0  0  0  0
   63.4346   45.5328   30.5140 C   0  0  0  0  0  0
   63.9774   45.3991   31.7963 C   0  0  0  0  0  0
   61.7898   46.7028   28.8460 C   0  0  0  0  0  0
   62.5962   47.1788   32.6385 C   0  0  0  0  0  0
   63.5419   46.1896   32.8379 C   0  0  0  0  0  0
   61.9904   47.2504   31.3650 C   0  0  0  0  0  0
   61.8648   45.6959   27.7027 C   0  0  0  0  0  0
   62.7641   46.8990   27.6857 C   0  0  0  0  0  0
   65.0309   44.3293   31.8948 C   0  0  0  0  0  0
   64.0952   44.5059   29.6217 C   0  0  0  0  0  0
   56.3805   46.0275   29.2075 C   0  0  0  0  0  0
   54.9763   45.7710   29.4443 C   0  0  0  0  0  0
   62.3397   48.1868   33.7939 C   0  0  0  0  0  0
   57.4736   45.3877   29.7148 C   0  0  0  0  0  0
   65.3236   44.0754   30.4051 C   0  0  0  0  0  0
   59.1636   47.0966   29.0242 C   0  0  0  0  0  0
   58.8196   45.8392   29.3595 C   0  0  0  0  0  0
   54.1079   46.6354   29.3393 O   0  0  0  0  0  0
   60.5488   47.6242   28.6956 C   0  0  0  0  0  0
   54.6870   44.4776   29.7398 O   0  0  0  0  0  0
   66.2668   44.8725   32.6692 C   0  0  0  0  0  0
   64.4459   43.0852   32.6044 C   0  0  0  0  0  0
   62.0083   49.6082   33.2401 C   0  0  0  0  0  0
   63.5880   48.3643   34.7211 C   0  0  0  0  0  0
   61.2068   47.6263   34.6844 C   0  0  0  0  0  0
   57.4070   44.2542   30.7296 C   0  0  0  0  0  0
   63.9856   46.0475   33.8086 H   0  0  0  0  0  0
   61.2081   47.9684   31.2291 H   0  0  0  0  0  0
   62.2579   44.6970   27.8633 H   0  0  0  0  0  0
   61.0494   45.6764   26.9787 H   0  0  0  0  0  0
   62.5778   47.6817   26.9484 H   0  0  0  0  0  0
   63.8311   46.8061   27.8815 H   0  0  0  0  0  0
   63.4403   43.6481   29.4650 H   0  0  0  0  0  0
   64.4031   44.8759   28.6472 H   0  0  0  0  0  0
   56.5070   46.8615   28.5398 H   0  0  0  0  0  0
   65.6097   43.0556   30.1391 H   0  0  0  0  0  0
   66.1527   44.7115   30.0850 H   0  0  0  0  0  0
   58.4055   47.8630   28.9842 H   0  0  0  0  0  0
   59.6138   45.1083   29.3895 H   0  0  0  0  0  0
   60.4736   48.0328   27.6859 H   0  0  0  0  0  0
   60.7108   48.4768   29.3230 H   0  0  0  0  0  0
   55.4771   43.9403   29.6494 H   0  0  0  0  0  0
   67.0573   44.1413   32.7947 H   0  0  0  0  0  0
   66.6947   45.7476   32.1794 H   0  0  0  0  0  0
   66.0075   45.1734   33.6844 H   0  0  0  0  0  0
   65.2018   42.3227   32.7579 H   0  0  0  0  0  0
   64.0522   43.3348   33.5907 H   0  0  0  0  0  0
   63.6339   42.6313   32.0338 H   0  0  0  0  0  0
   61.8253   49.6450   32.1845 H   0  0  0  0  0  0
   61.2084   50.1072   33.7390 H   0  0  0  0  0  0
   62.8113   50.3225   33.3531 H   0  0  0  0  0  0
   63.7443   47.5108   35.3820 H   0  0  0  0  0  0
   64.5038   48.4776   34.1406 H   0  0  0  0  0  0
   63.5140   49.2315   35.3764 H   0  0  0  0  0  0
   61.5396   46.7626   35.2618 H   0  0  0  0  0  0
   60.8439   48.3668   35.3988 H   0  0  0  0  0  0
   60.3595   47.2724   34.0994 H   0  0  0  0  0  0
   58.1871   44.4095   31.4734 H   0  0  0  0  0  0
   56.4934   44.2466   31.3164 H   0  0  0  0  0  0
   57.6073   43.2877   30.2655 H   0  0  0  0  0  0
  1  2  1  0  0  0
  1  4  1  0  0  0
  1  7  2  0  0  0
  2  3  2  0  0  0
  2 11  1  0  0  0
  3 10  1  0  0  0
  3  6  1  0  0  0
  4  8  1  0  0  0
  4  9  1  0  0  0
  4 20  1  0  0  0
  5  7  1  0  0  0
  5  6  2  0  0  0
  5 14  1  0  0  0
  6 28  1  0  0  0
  7 29  1  0  0  0
  8  9  1  0  0  0
  8 30  1  0  0  0
  8 31  1  0  0  0
  9 32  1  0  0  0
  9 33  1  0  0  0
 10 22  1  0  0  0
 10 23  1  0  0  0
 10 16  1  0  0  0
 11 16  1  0  0  0
 11 34  1  0  0  0
 11 35  1  0  0  0
 12 15  2  0  0  0
 12 13  1  0  0  0
 12 36  1  0  0  0
 13 19  2  0  0  0
 13 21  1  0  0  0
 14 24  1  0  0  0
 14 25  1  0  0  0
 14 26  1  0  0  0
 15 18  1  0  0  0
 15 27  1  0  0  0
 16 37  1  0  0  0
 16 38  1  0  0  0
 17 20  1  0  0  0
 17 18  2  0  0  0
 17 39  1  0  0  0
 18 40  1  0  0  0
 20 41  1  0  0  0
 20 42  1  0  0  0
 21 43  1  0  0  0
 22 44  1  0  0  0
 22 45  1  0  0  0
 22 46  1  0  0  0
 23 47  1  0  0  0
 23 48  1  0  0  0
 23 49  1  0  0  0
 24 50  1  0  0  0
 24 51  1  0  0  0
 24 52  1  0  0  0
 25 53  1  0  0  0
 25 54  1  0  0  0
 25 55  1  0  0  0
 26 56  1  0  0  0
 26 57  1  0  0  0
 26 58  1  0  0  0
 27 59  1  0  0  0
 27 60  1  0  0  0
 27 61  1  0  0  0
M  END
> <s_m_entry_id>
31126

> <s_m_entry_name>
dock_pv.339

> <s_m_Source_Path>
/home/csk/Desktop/cluster/DUD-E-result/rxra

> <s_m_Source_File>
dock_pv.maegz

> <i_m_Source_File_Index>
339

> <chembl_id>
CHEMBL88216

> <chembl_pref_name>
None

> <i_lp_mmshare_version>
53161

> <r_lp_tautomer_probability>
1

> <s_lp_Force_Field>
OPLS_2005

> <r_lp_Energy>
39.234681

> <b_lp_Chiralities_Consistent>
1

> <s_lp_Variant>
CHEMBL2061_lig350-1

> <s_i_glide_gridfile>
glide-grid_1mv9

> <i_i_glide_lignum>
410

> <i_i_glide_rotatable_bonds>
7

> <r_i_docking_score>
-9.34638560311496

> <r_i_glide_ligand_efficiency>
-0.346162429744999

> <r_i_glide_ligand_efficiency_sa>
-1.0384872880941

> <r_i_glide_ligand_efficiency_ln>
-2.17568448119593

> <r_i_glide_gscore>
-9.34638560311496

> <r_i_glide_lipo>
-5.83611908491843

> <r_i_glide_hbond>
-0.0385429080703294

> <r_i_glide_metal>
0

> <r_i_glide_rewards>
-1.95175352912015

> <r_i_glide_evdw>
-36.4250297546387

> <r_i_glide_ecoul>
-2.76721715927124

> <r_i_glide_erotb>
0.716363980616572

> <r_i_glide_esite>
0

> <r_i_glide_emodel>
-37.517098427108

> <r_i_glide_energy>
-39.1922469139099

> <r_i_glide_einternal>
12.6721143722534

> <i_i_glide_confnum>
94

> <i_i_glide_posenum>
208

> <r_i_glide_eff_state_penalty>
0

> <s_user_duplicate_titles>
CHEMBL2061_lig350,143874

> <i_f3d_flags>
0

> <s_m_subgroup_title>
dock_pv

> <s_m_subgroupid>
dock_pv

> <b_m_subgroup_collapsed>
1

$$$$
CHEMBL2061_lig290
                    3D
 Schrodinger Suite 2021-1.
 52 54  0  0  1  0            999 V2000
   63.1316   45.4044   29.2383 C   0  0  0  0  0  0
   63.6466   45.6567   30.6209 C   0  0  0  0  0  0
   63.0234   46.3386   32.8946 C   0  0  0  0  0  0
   64.2011   45.7378   33.3818 C   0  0  0  0  0  0
   61.9424   46.1733   28.7719 C   0  0  0  0  0  0
   62.8078   46.3209   31.5196 C   0  0  0  0  0  0
   65.1010   45.1728   32.4737 C   0  0  0  0  0  0
   61.9879   47.4166   28.0940 C   0  0  0  0  0  0
   64.8480   45.1228   31.1155 C   0  0  0  0  0  0
   63.2551   48.0764   27.5957 C   0  0  0  0  0  0
   64.4705   45.6061   34.8766 C   0  0  0  0  0  0
   61.9938   47.0461   33.7994 C   0  0  0  0  0  0
   63.6016   44.5198   28.5390 O   0  0  0  0  0  0
   63.4799   49.2702   27.7390 O   0  0  0  0  0  0
   62.2310   46.7440   35.3020 C   0  0  0  0  0  0
   63.7095   46.7082   35.6607 C   0  0  0  0  0  0
   64.1224   47.2770   26.9399 O   0  0  0  0  0  0
   60.7132   45.6768   29.2292 C   0  0  0  0  0  0
   60.7942   48.1331   27.9697 C   0  0  0  0  0  0
   65.9171   44.4773   30.2583 C   0  0  0  0  0  0
   62.2156   48.5570   33.5414 C   0  0  0  0  0  0
   60.5650   46.5071   33.5026 C   0  0  0  0  0  0
   64.0078   44.1919   35.2951 C   0  0  0  0  0  0
   65.9486   45.8552   35.1476 C   0  0  0  0  0  0
   59.5520   46.4272   29.1292 C   0  0  0  0  0  0
   59.6082   47.6775   28.5390 C   0  0  0  0  0  0
   61.9111   46.8080   31.1758 H   0  0  0  0  0  0
   66.0041   44.7055   32.8348 H   0  0  0  0  0  0
   61.7969   45.7821   35.5804 H   0  0  0  0  0  0
   61.7126   47.4758   35.9239 H   0  0  0  0  0  0
   63.8335   46.5587   36.7330 H   0  0  0  0  0  0
   64.1464   47.6888   35.4637 H   0  0  0  0  0  0
   64.8828   47.7863   26.6561 H   0  0  0  0  0  0
   60.6568   44.7248   29.7411 H   0  0  0  0  0  0
   60.7905   49.1053   27.4945 H   0  0  0  0  0  0
   66.9081   44.5655   30.7040 H   0  0  0  0  0  0
   65.6764   43.4219   30.1389 H   0  0  0  0  0  0
   65.9923   44.9846   29.3024 H   0  0  0  0  0  0
   61.6080   49.1933   34.1644 H   0  0  0  0  0  0
   63.2425   48.8547   33.7390 H   0  0  0  0  0  0
   62.0071   48.8308   32.5064 H   0  0  0  0  0  0
   59.8323   46.8777   34.2173 H   0  0  0  0  0  0
   60.2082   46.7853   32.5128 H   0  0  0  0  0  0
   60.5167   45.4211   33.5761 H   0  0  0  0  0  0
   63.6532   44.1445   36.3253 H   0  0  0  0  0  0
   63.2081   43.8459   34.6389 H   0  0  0  0  0  0
   64.8054   43.4595   35.1827 H   0  0  0  0  0  0
   66.0080   46.0770   36.2016 H   0  0  0  0  0  0
   66.5777   44.9891   34.9389 H   0  0  0  0  0  0
   66.3296   46.6913   34.5578 H   0  0  0  0  0  0
   58.6271   46.0585   29.5477 H   0  0  0  0  0  0
   58.7350   48.3050   28.5390 H   0  0  0  0  0  0
  1  2  1  0  0  0
  1  5  1  0  0  0
  1 13  2  0  0  0
  2  6  2  0  0  0
  2  9  1  0  0  0
  3  6  1  0  0  0
  3 12  1  0  0  0
  3  4  2  0  0  0
  4  7  1  0  0  0
  4 11  1  0  0  0
  5  8  1  0  0  0
  5 18  2  0  0  0
  6 27  1  0  0  0
  7  9  2  0  0  0
  7 28  1  0  0  0
  8 10  1  0  0  0
  8 19  2  0  0  0
  9 20  1  0  0  0
 10 14  2  0  0  0
 10 17  1  0  0  0
 11 16  1  0  0  0
 11 23  1  0  0  0
 11 24  1  0  0  0
 12 15  1  0  0  0
 12 21  1  0  0  0
 12 22  1  0  0  0
 15 16  1  0  0  0
 15 29  1  0  0  0
 15 30  1  0  0  0
 16 31  1  0  0  0
 16 32  1  0  0  0
 17 33  1  0  0  0
 18 25  1  0  0  0
 18 34  1  0  0  0
 19 26  1  0  0  0
 19 35  1  0  0  0
 20 36  1  0  0  0
 20 37  1  0  0  0
 20 38  1  0  0  0
 21 39  1  0  0  0
 21 40  1  0  0  0
 21 41  1  0  0  0
 22 42  1  0  0  0
 22 43  1  0  0  0
 22 44  1  0  0  0
 23 45  1  0  0  0
 23 46  1  0  0  0
 23 47  1  0  0  0
 24 48  1  0  0  0
 24 49  1  0  0  0
 24 50  1  0  0  0
 25 26  2  0  0  0
 25 51  1  0  0  0
 26 52  1  0  0  0
M  END
> <s_m_entry_id>
31127

> <s_m_entry_name>
dock_pv.340

> <s_m_Source_Path>
/home/csk/Desktop/cluster/DUD-E-result/rxra

> <s_m_Source_File>
dock_pv.maegz

> <i_m_Source_File_Index>
340

> <chembl_id>
CHEMBL105806

> <chembl_pref_name>
None

> <i_lp_mmshare_version>
53161

> <r_lp_tautomer_probability>
1

> <s_lp_Force_Field>
OPLS_2005

> <r_lp_Energy>
36.96496

> <b_lp_Chiralities_Consistent>
1

> <s_lp_Variant>
CHEMBL2061_lig290-1

> <s_i_glide_gridfile>
glide-grid_1mv9

> <i_i_glide_lignum>
335

> <i_i_glide_rotatable_bonds>
4

> <r_i_docking_score>
-9.34580593966026

> <r_i_glide_ligand_efficiency>
-0.359454074602318

> <r_i_glide_ligand_efficiency_sa>
-1.06488128162588

> <r_i_glide_ligand_efficiency_ln>
-2.19483185883868

> <r_i_glide_gscore>
-9.34580593966026

> <r_i_glide_lipo>
-5.46416070539731

> <r_i_glide_hbond>
0

> <r_i_glide_metal>
0

> <r_i_glide_rewards>
-2.69095729820156

> <r_i_glide_evdw>
-31.6753120422363

> <r_i_glide_ecoul>
-0.48348280787468

> <r_i_glide_erotb>
0.465600087231635

> <r_i_glide_esite>
0

> <r_i_glide_emodel>
-35.7834597888065

> <r_i_glide_energy>
-32.158794850111

> <r_i_glide_einternal>
4.04250955581665

> <i_i_glide_confnum>
48

> <i_i_glide_posenum>
11

> <r_i_glide_eff_state_penalty>
0

> <s_user_duplicate_titles>
CHEMBL2061_lig290

> <i_f3d_flags>
0

> <s_m_subgroup_title>
dock_pv

> <s_m_subgroupid>
dock_pv

> <b_m_subgroup_collapsed>
1

$$$$
CHEMBL2061_lig12
                    3D
 Schrodinger Suite 2021-1.
 53 55  0  0  1  0            999 V2000
   63.6640   45.2498   30.5135 C   0  0  0  0  0  0
   62.5862   45.5394   29.6743 C   0  0  0  0  0  0
   61.5565   46.3631   30.1437 C   0  0  0  0  0  0
   61.6831   46.9035   31.4284 C   0  0  0  0  0  0
   63.7235   45.6771   31.8520 C   0  0  0  0  0  0
   62.6578   46.4770   32.3452 C   0  0  0  0  0  0
   62.4850   46.8242   33.8532 C   0  0  0  0  0  0
   63.5302   46.0801   34.7321 C   0  0  0  0  0  0
   64.9113   46.0053   34.0809 C   0  0  0  0  0  0
   64.8938   45.2046   32.7513 C   0  0  0  0  0  0
   62.5479   44.9151   28.2872 C   0  0  0  0  0  0
   64.7137   43.6953   33.0587 C   0  0  0  0  0  0
   66.2502   45.4967   32.0702 C   0  0  0  0  0  0
   62.6738   48.3401   34.0695 C   0  0  0  0  0  0
   61.0914   46.3421   34.3427 C   0  0  0  0  0  0
   60.2688   46.6393   29.3310 C   0  0  0  0  0  0
   58.9473   46.0770   29.8975 C   0  0  0  0  0  0
   57.7622   46.0770   29.1458 C   0  0  0  0  0  0
   56.5294   45.7099   29.7391 C   0  0  0  0  0  0
   56.5115   45.2770   31.0626 C   0  0  0  0  0  0
   57.6766   45.2770   31.8016 C   0  0  0  0  0  0
   58.8610   45.6770   31.2292 C   0  0  0  0  0  0
   55.2080   45.9447   29.0756 C   0  0  0  0  0  0
   55.2985   46.0770   27.7390 O   0  0  0  0  0  0
   54.1461   46.0286   29.7009 O   0  0  0  0  0  0
   64.4487   44.6115   30.1354 H   0  0  0  0  0  0
   60.8995   47.5545   31.7831 H   0  0  0  0  0  0
   63.2080   45.0629   34.9503 H   0  0  0  0  0  0
   63.6117   46.5529   35.7127 H   0  0  0  0  0  0
   65.6221   45.5628   34.7815 H   0  0  0  0  0  0
   65.2733   47.0207   33.9098 H   0  0  0  0  0  0
   63.3471   44.1893   28.1417 H   0  0  0  0  0  0
   61.6081   44.3847   28.1386 H   0  0  0  0  0  0
   62.6265   45.6834   27.5176 H   0  0  0  0  0  0
   65.4848   43.3314   33.7391 H   0  0  0  0  0  0
   63.7478   43.4667   33.5082 H   0  0  0  0  0  0
   64.7850   43.0950   32.1513 H   0  0  0  0  0  0
   67.0691   45.3012   32.7631 H   0  0  0  0  0  0
   66.4198   44.8770   31.1900 H   0  0  0  0  0  0
   66.3284   46.5365   31.7543 H   0  0  0  0  0  0
   62.4745   48.6091   35.1069 H   0  0  0  0  0  0
   63.6905   48.6516   33.8554 H   0  0  0  0  0  0
   62.0081   48.9348   33.4444 H   0  0  0  0  0  0
   60.9744   46.4879   35.4175 H   0  0  0  0  0  0
   60.2722   46.8770   33.8679 H   0  0  0  0  0  0
   60.9253   45.2841   34.1390 H   0  0  0  0  0  0
   60.3715   46.3144   28.2967 H   0  0  0  0  0  0
   60.1560   47.7224   29.2701 H   0  0  0  0  0  0
   57.8115   46.4600   28.1383 H   0  0  0  0  0  0
   55.5894   45.0070   31.5583 H   0  0  0  0  0  0
   57.6754   45.0186   32.8471 H   0  0  0  0  0  0
   59.7017   45.6770   31.8921 H   0  0  0  0  0  0
   56.1849   45.8743   27.4405 H   0  0  0  0  0  0
  1  5  1  0  0  0
  1  2  2  0  0  0
  1 26  1  0  0  0
  2  3  1  0  0  0
  2 11  1  0  0  0
  3  4  2  0  0  0
  3 16  1  0  0  0
  4  6  1  0  0  0
  4 27  1  0  0  0
  5 10  1  0  0  0
  5  6  2  0  0  0
  6  7  1  0  0  0
  7 14  1  0  0  0
  7 15  1  0  0  0
  7  8  1  0  0  0
  8  9  1  0  0  0
  8 28  1  0  0  0
  8 29  1  0  0  0
  9 10  1  0  0  0
  9 30  1  0  0  0
  9 31  1  0  0  0
 10 12  1  0  0  0
 10 13  1  0  0  0
 11 32  1  0  0  0
 11 33  1  0  0  0
 11 34  1  0  0  0
 12 35  1  0  0  0
 12 36  1  0  0  0
 12 37  1  0  0  0
 13 38  1  0  0  0
 13 39  1  0  0  0
 13 40  1  0  0  0
 14 41  1  0  0  0
 14 42  1  0  0  0
 14 43  1  0  0  0
 15 44  1  0  0  0
 15 45  1  0  0  0
 15 46  1  0  0  0
 16 17  1  0  0  0
 16 47  1  0  0  0
 16 48  1  0  0  0
 17 18  2  0  0  0
 17 22  1  0  0  0
 18 19  1  0  0  0
 18 49  1  0  0  0
 19 20  2  0  0  0
 19 23  1  0  0  0
 20 21  1  0  0  0
 20 50  1  0  0  0
 21 22  2  0  0  0
 21 51  1  0  0  0
 22 52  1  0  0  0
 23 24  1  0  0  0
 23 25  2  0  0  0
 24 53  1  0  0  0
M  END
> <s_m_entry_id>
31128

> <s_m_entry_name>
dock_pv.341

> <s_m_Source_Path>
/home/csk/Desktop/cluster/DUD-E-result/rxra

> <s_m_Source_File>
dock_pv.maegz

> <i_m_Source_File_Index>
341

> <chembl_id>
CHEMBL583790

> <chembl_pref_name>
None

> <i_lp_mmshare_version>
53161

> <r_lp_tautomer_probability>
1

> <s_lp_Force_Field>
OPLS_2005

> <r_lp_Energy>
22.94187

> <b_lp_Chiralities_Consistent>
1

> <s_lp_Variant>
CHEMBL2061_lig12-1

> <s_i_glide_gridfile>
glide-grid_1mv9

> <i_i_glide_lignum>
15

> <i_i_glide_rotatable_bonds>
4

> <r_i_docking_score>
-9.34294162645472

> <r_i_glide_ligand_efficiency>
-0.373717665058189

> <r_i_glide_ligand_efficiency_sa>
-1.09275708054116

> <r_i_glide_ligand_efficiency_ln>
-2.21455715083688

> <r_i_glide_gscore>
-9.34294162645472

> <r_i_glide_lipo>
-5.69705077642836

> <r_i_glide_hbond>
-0.0950406740800455

> <r_i_glide_metal>
0

> <r_i_glide_rewards>
-2.09098275911335

> <r_i_glide_evdw>
-34.1922416687012

> <r_i_glide_ecoul>
-1.67161667346954

> <r_i_glide_erotb>
0.500487167622524

> <r_i_glide_esite>
0

> <r_i_glide_emodel>
-48.8597976199443

> <r_i_glide_energy>
-35.8638583421707

> <r_i_glide_einternal>
4.57109022140503

> <i_i_glide_confnum>
17

> <i_i_glide_posenum>
10

> <r_i_glide_eff_state_penalty>
0

> <s_user_duplicate_titles>
CHEMBL2061_lig12

> <i_f3d_flags>
0

> <s_m_subgroup_title>
dock_pv

> <s_m_subgroupid>
dock_pv

> <b_m_subgroup_collapsed>
1

$$$$
CHEMBL2061_lig535 
                    3D
 Schrodinger Suite 2021-1.
 35 36  0  0  1  0            999 V2000
   59.6454   46.2605   29.1490 C   0  0  0  0  0  0
   58.5943   46.4769   28.2673 C   0  0  0  0  0  0
   57.2909   46.0735   28.5861 C   0  0  0  0  0  0
   57.0336   45.4324   29.8057 C   0  0  0  0  0  0
   58.1029   45.1532   30.6573 C   0  0  0  0  0  0
   59.3891   45.5421   30.3065 C   0  0  0  0  0  0
   55.6342   45.1134   30.2556 C   0  0  0  0  0  0
   54.8687   44.4775   29.3371 O   0  0  0  0  0  0
   55.2251   45.3792   31.3816 O   0  0  0  0  0  0
   61.0290   46.8456   28.8515 C   0  0  0  0  0  0
   62.1067   46.1273   29.4631 O   0  0  0  0  0  0
   62.5393   46.4057   30.7518 C   0  0  0  0  0  0
   63.7521   45.8297   31.1697 C   0  0  0  0  0  0
   64.1786   45.9858   32.4966 C   0  0  0  0  0  0
   63.4032   46.6876   33.4250 C   0  0  0  0  0  0
   62.2179   47.2858   32.9956 C   0  0  0  0  0  0
   61.7988   47.1624   31.6734 C   0  0  0  0  0  0
   63.8151   46.7971   34.8914 C   0  0  0  0  0  0
   64.0061   48.0769   35.2098 F   0  0  0  0  0  0
   62.8486   46.3087   35.6694 F   0  0  0  0  0  0
   64.9356   46.1199   35.1548 F   0  0  0  0  0  0
   64.6169   45.0470   30.1810 C   0  0  0  0  0  0
   65.8602   44.8758   30.6331 F   0  0  0  0  0  0
   64.0685   43.8483   29.9808 F   0  0  0  0  0  0
   64.7045   45.6816   29.0112 F   0  0  0  0  0  0
   58.8078   46.9887   27.3398 H   0  0  0  0  0  0
   56.4834   46.2942   27.8992 H   0  0  0  0  0  0
   57.9464   44.6391   31.5963 H   0  0  0  0  0  0
   60.2088   45.2825   30.9392 H   0  0  0  0  0  0
   55.3824   44.1872   28.5776 H   0  0  0  0  0  0
   61.2071   46.7928   27.7762 H   0  0  0  0  0  0
   61.0550   47.9064   29.1108 H   0  0  0  0  0  0
   65.1029   45.5285   32.8168 H   0  0  0  0  0  0
   61.6089   47.8357   33.6986 H   0  0  0  0  0  0
   60.8562   47.6091   31.3974 H   0  0  0  0  0  0
  1  2  2  0  0  0
  1  6  1  0  0  0
  1 10  1  0  0  0
  2  3  1  0  0  0
  2 26  1  0  0  0
  3  4  2  0  0  0
  3 27  1  0  0  0
  4  5  1  0  0  0
  4  7  1  0  0  0
  5  6  2  0  0  0
  5 28  1  0  0  0
  6 29  1  0  0  0
  7  8  1  0  0  0
  7  9  2  0  0  0
  8 30  1  0  0  0
 10 11  1  0  0  0
 10 31  1  0  0  0
 10 32  1  0  0  0
 11 12  1  0  0  0
 12 13  2  0  0  0
 12 17  1  0  0  0
 13 14  1  0  0  0
 13 22  1  0  0  0
 14 15  2  0  0  0
 14 33  1  0  0  0
 15 16  1  0  0  0
 15 18  1  0  0  0
 16 17  2  0  0  0
 16 34  1  0  0  0
 17 35  1  0  0  0
 18 19  1  0  0  0
 18 20  1  0  0  0
 18 21  1  0  0  0
 22 23  1  0  0  0
 22 24  1  0  0  0
 22 25  1  0  0  0
M  END
> <s_m_entry_id>
31129

> <s_m_entry_name>
dock_pv.342

> <s_m_Source_Path>
/home/csk/Desktop/cluster/DUD-E-result/rxra

> <s_m_Source_File>
dock_pv.maegz

> <i_m_Source_File_Index>
342

> <chembl_id>
CHEMBL4441734

> <chembl_pref_name>
None

> <i_lp_mmshare_version>
53161

> <r_lp_tautomer_probability>
1

> <s_lp_Force_Field>
OPLS_2005

> <r_lp_Energy>
19.278994

> <b_lp_Chiralities_Consistent>
1

> <s_lp_Variant>
CHEMBL2061_lig535 -1

> <s_i_glide_gridfile>
glide-grid_1mv9

> <i_i_glide_lignum>
635

> <i_i_glide_rotatable_bonds>
7

> <r_i_docking_score>
-9.32144493933789

> <r_i_glide_ligand_efficiency>
-0.372857797573516

> <r_i_glide_ligand_efficiency_sa>
-1.09024281276616

> <r_i_glide_ligand_efficiency_ln>
-2.20946179178646

> <r_i_glide_gscore>
-9.32144493933789

> <r_i_glide_lipo>
-4.21088908811397

> <r_i_glide_hbond>
0

> <r_i_glide_metal>
0

> <r_i_glide_rewards>
-3.44169652878947

> <r_i_glide_evdw>
-37.7977180480957

> <r_i_glide_ecoul>
-2.39021515846252

> <r_i_glide_erotb>
0.579558853739716

> <r_i_glide_esite>
0

> <r_i_glide_emodel>
-60.7369881762575

> <r_i_glide_energy>
-40.1879332065582

> <r_i_glide_einternal>
5.33142471313477

> <i_i_glide_confnum>
4

> <i_i_glide_posenum>
95

> <r_i_glide_eff_state_penalty>
0

> <s_user_duplicate_titles>
CHEMBL2061_lig535 

> <i_f3d_flags>
0

> <s_m_subgroup_title>
dock_pv

> <s_m_subgroupid>
dock_pv

> <b_m_subgroup_collapsed>
1

$$$$
CHEMBL2061_lig43
                    3D
 Schrodinger Suite 2021-1.
 42 44  0  0  1  0            999 V2000
   61.4711   46.3199   30.0893 C   0  0  0  0  0  0
   63.6324   46.4291   30.8606 C   0  0  0  0  0  0
   62.8885   46.3784   29.7332 C   0  0  0  0  0  0
   62.7427   46.5385   32.0108 C   0  0  0  0  0  0
   61.4364   46.4619   31.5592 C   0  0  0  0  0  0
   60.4639   46.1214   29.1993 C   0  0  0  0  0  0
   54.5534   44.7886   29.7390 S   0  0  1  0  0  0
   65.1422   46.3240   31.0475 C   0  0  0  0  0  0
   60.4080   46.4769   32.5017 C   0  0  0  0  0  0
   65.5413   45.2138   32.0267 C   0  0  0  0  0  0
   63.0313   46.6496   33.3782 C   0  0  0  0  0  0
   56.2809   45.2951   29.5889 C   0  0  0  0  0  0
   54.3365   44.5630   31.2308 O   0  0  0  0  0  0
   66.4080   45.3550   32.8814 O   0  0  0  0  0  0
   59.0171   45.8674   29.3757 C   0  0  0  0  0  0
   57.1721   44.7539   30.4990 C   0  0  0  0  0  0
   56.7497   46.0770   28.5390 C   0  0  0  0  0  0
   62.0005   46.5979   34.3085 C   0  0  0  0  0  0
   60.6896   46.4771   33.8663 C   0  0  0  0  0  0
   63.4286   46.3131   28.3117 C   0  0  0  0  0  0
   64.8080   44.0770   31.8636 O   0  0  0  0  0  0
   58.5183   45.0245   30.3500 C   0  0  0  0  0  0
   58.1164   46.3508   28.4483 C   0  0  0  0  0  0
   62.2696   46.6661   35.6310 F   0  0  0  0  0  0
   53.6779   46.3632   29.3025 C   0  0  0  0  0  0
   60.7616   46.0718   28.1620 H   0  0  0  0  0  0
   65.6080   46.0780   30.1003 H   0  0  0  0  0  0
   65.5348   47.2761   31.3997 H   0  0  0  0  0  0
   59.3724   46.4448   32.2150 H   0  0  0  0  0  0
   64.0438   46.7406   33.7404 H   0  0  0  0  0  0
   56.8414   44.0763   31.2696 H   0  0  0  0  0  0
   56.0905   46.4297   27.7616 H   0  0  0  0  0  0
   59.8785   46.4515   34.5716 H   0  0  0  0  0  0
   62.9569   47.0796   27.6965 H   0  0  0  0  0  0
   64.5041   46.4770   28.2603 H   0  0  0  0  0  0
   63.2079   45.3397   27.8727 H   0  0  0  0  0  0
   65.0523   43.4258   32.5235 H   0  0  0  0  0  0
   59.2080   44.5086   30.9390 H   0  0  0  0  0  0
   58.4956   46.8770   27.5909 H   0  0  0  0  0  0
   54.1193   46.8792   28.4528 H   0  0  0  0  0  0
   52.6699   46.0770   29.0149 H   0  0  0  0  0  0
   53.6080   47.0440   30.1390 H   0  0  0  0  0  0
  1  3  1  0  0  0
  1  5  1  0  0  0
  1  6  2  0  0  0
  2  3  2  0  0  0
  2  8  1  0  0  0
  2  4  1  0  0  0
  3 20  1  0  0  0
  4  5  2  0  0  0
  4 11  1  0  0  0
  5  9  1  0  0  0
  6 15  1  0  0  0
  6 26  1  0  0  0
  7 12  1  0  0  0
  7 13  2  0  0  0
  7 25  1  0  0  0
  8 10  1  0  0  0
  8 27  1  0  0  0
  8 28  1  0  0  0
  9 19  2  0  0  0
  9 29  1  0  0  0
 10 14  2  0  0  0
 10 21  1  0  0  0
 11 18  2  0  0  0
 11 30  1  0  0  0
 12 17  2  0  0  0
 12 16  1  0  0  0
 15 22  1  0  0  0
 15 23  2  0  0  0
 16 22  2  0  0  0
 16 31  1  0  0  0
 17 23  1  0  0  0
 17 32  1  0  0  0
 18 19  1  0  0  0
 18 24  1  0  0  0
 19 33  1  0  0  0
 20 34  1  0  0  0
 20 35  1  0  0  0
 20 36  1  0  0  0
 21 37  1  0  0  0
 22 38  1  0  0  0
 23 39  1  0  0  0
 25 40  1  0  0  0
 25 41  1  0  0  0
 25 42  1  0  0  0
M  END
> <s_m_entry_id>
31130

> <s_m_entry_name>
dock_pv.343

> <s_m_Source_Path>
/home/csk/Desktop/cluster/DUD-E-result/rxra

> <s_m_Source_File>
dock_pv.maegz

> <i_m_Source_File_Index>
343

> <chembl_id>
CHEMBL15770

> <chembl_pref_name>
SULINDAC

> <i_lp_mmshare_version>
53161

> <r_lp_tautomer_probability>
1

> <s_lp_Force_Field>
OPLS_2005

> <r_lp_Energy>
36.027279

> <b_lp_Chiralities_Consistent>
1

> <s_lp_Variant>
CHEMBL2061_lig43-2

> <s_i_glide_gridfile>
glide-grid_1mv9

> <i_i_glide_lignum>
60

> <i_i_glide_rotatable_bonds>
5

> <r_i_docking_score>
-9.31906729855431

> <r_i_glide_ligand_efficiency>
-0.372762691942172

> <r_i_glide_ligand_efficiency_sa>
-1.0899647222134

> <r_i_glide_ligand_efficiency_ln>
-2.20889821966861

> <r_i_glide_gscore>
-9.31906729855431

> <r_i_glide_lipo>
-4.81432523453782

> <r_i_glide_hbond>
-0.32

> <r_i_glide_metal>
0

> <r_i_glide_rewards>
-2.82229219047063

> <r_i_glide_evdw>
-26.3586616516113

> <r_i_glide_ecoul>
-3.30900502204895

> <r_i_glide_erotb>
0.451833962342058

> <r_i_glide_esite>
0

> <r_i_glide_emodel>
-29.859773394937

> <r_i_glide_energy>
-29.6676666736603

> <r_i_glide_einternal>
2.9515426158905

> <i_i_glide_confnum>
15

> <i_i_glide_posenum>
162

> <r_i_glide_eff_state_penalty>
0

> <s_user_duplicate_titles>
CHEMBL2061_lig43

> <i_f3d_flags>
0

> <s_m_subgroup_title>
dock_pv

> <s_m_subgroupid>
dock_pv

> <b_m_subgroup_collapsed>
1

$$$$
CHEMBL2061_lig496
                    3D
 Schrodinger Suite 2021-1.
 44 45  0  0  1  0            999 V2000
   63.4492   46.3381   30.8885 C   0  0  0  0  0  0
   62.3162   46.7467   30.2596 C   0  0  0  0  0  0
   62.0144   46.7155   28.8240 C   0  0  0  0  0  0
   60.7589   46.4513   28.3998 C   0  0  0  0  0  0
   63.0555   47.0781   27.7726 C   0  0  0  0  0  0
   59.6277   46.0920   29.2390 C   0  0  0  0  0  0
   58.3702   46.0772   28.7672 C   0  0  0  0  0  0
   57.1761   45.7578   29.5380 C   0  0  0  0  0  0
   55.9979   46.0674   28.9426 C   0  0  0  0  0  0
   57.3174   45.1248   30.9227 C   0  0  0  0  0  0
   54.6724   45.9462   29.4942 C   0  0  0  0  0  0
   53.8474   46.8781   28.9391 O   0  0  0  0  0  0
   54.2886   45.1282   30.3276 O   0  0  0  0  0  0
   64.6067   45.6938   30.1096 C   0  0  0  0  0  0
   65.5122   44.8185   30.9843 C   0  0  0  0  0  0
   66.0076   45.6046   32.1979 C   0  0  0  0  0  0
   63.6097   46.4388   32.3935 C   0  0  0  0  0  0
   64.8247   46.0753   33.0260 C   0  0  0  0  0  0
   64.9407   46.1499   34.4191 C   0  0  0  0  0  0
   63.8858   46.5918   35.2077 C   0  0  0  0  0  0
   62.6900   46.9581   34.6061 C   0  0  0  0  0  0
   62.5543   46.8794   33.2218 C   0  0  0  0  0  0
   61.5216   47.1652   30.8495 H   0  0  0  0  0  0
   60.5747   46.4971   27.3350 H   0  0  0  0  0  0
   63.7499   47.8289   28.1442 H   0  0  0  0  0  0
   63.6079   46.1990   27.4509 H   0  0  0  0  0  0
   62.5936   47.5319   26.8946 H   0  0  0  0  0  0
   59.8033   45.8327   30.2729 H   0  0  0  0  0  0
   58.2440   46.3451   27.7306 H   0  0  0  0  0  0
   56.0088   46.4775   27.9429 H   0  0  0  0  0  0
   57.9990   44.2757   30.8496 H   0  0  0  0  0  0
   57.7794   45.8198   31.6239 H   0  0  0  0  0  0
   56.3987   44.7274   31.3388 H   0  0  0  0  0  0
   54.3348   47.4506   28.3425 H   0  0  0  0  0  0
   64.2288   45.0751   29.2959 H   0  0  0  0  0  0
   65.2079   46.4768   29.6504 H   0  0  0  0  0  0
   64.9688   43.9275   31.3053 H   0  0  0  0  0  0
   66.3639   44.4771   30.3946 H   0  0  0  0  0  0
   66.6872   44.9929   32.7934 H   0  0  0  0  0  0
   66.5704   46.4765   31.8685 H   0  0  0  0  0  0
   65.8684   45.8709   34.8977 H   0  0  0  0  0  0
   63.9985   46.6496   36.2806 H   0  0  0  0  0  0
   61.8634   47.2998   35.2120 H   0  0  0  0  0  0
   61.5927   47.1667   32.8333 H   0  0  0  0  0  0
  1  2  2  0  0  0
  1 14  1  0  0  0
  1 17  1  0  0  0
  2  3  1  0  0  0
  2 23  1  0  0  0
  3  4  2  0  0  0
  3  5  1  0  0  0
  4  6  1  0  0  0
  4 24  1  0  0  0
  5 25  1  0  0  0
  5 26  1  0  0  0
  5 27  1  0  0  0
  6  7  2  0  0  0
  6 28  1  0  0  0
  7  8  1  0  0  0
  7 29  1  0  0  0
  8  9  2  0  0  0
  8 10  1  0  0  0
  9 11  1  0  0  0
  9 30  1  0  0  0
 10 31  1  0  0  0
 10 32  1  0  0  0
 10 33  1  0  0  0
 11 12  1  0  0  0
 11 13  2  0  0  0
 12 34  1  0  0  0
 14 15  1  0  0  0
 14 35  1  0  0  0
 14 36  1  0  0  0
 15 16  1  0  0  0
 15 37  1  0  0  0
 15 38  1  0  0  0
 16 18  1  0  0  0
 16 39  1  0  0  0
 16 40  1  0  0  0
 17 18  2  0  0  0
 17 22  1  0  0  0
 18 19  1  0  0  0
 19 20  2  0  0  0
 19 41  1  0  0  0
 20 21  1  0  0  0
 20 42  1  0  0  0
 21 22  2  0  0  0
 21 43  1  0  0  0
 22 44  1  0  0  0
M  END
> <s_m_entry_id>
31131

> <s_m_entry_name>
dock_pv.344

> <s_m_Source_Path>
/home/csk/Desktop/cluster/DUD-E-result/rxra

> <s_m_Source_File>
dock_pv.maegz

> <i_m_Source_File_Index>
344

> <chembl_id>
CHEMBL3098771

> <chembl_pref_name>
UAB-30

> <i_lp_mmshare_version>
53161

> <r_lp_tautomer_probability>
1

> <s_lp_Force_Field>
OPLS_2005

> <r_lp_Energy>
28.029623

> <b_lp_Chiralities_Consistent>
1

> <s_lp_Variant>
CHEMBL2061_lig496-1

> <s_i_glide_gridfile>
glide-grid_1mv9

> <i_i_glide_lignum>
585

> <i_i_glide_rotatable_bonds>
5

> <r_i_docking_score>
-9.30262998296056

> <r_i_glide_ligand_efficiency>
-0.422846817407298

> <r_i_glide_ligand_efficiency_sa>
-1.18483341199692

> <r_i_glide_ligand_efficiency_ln>
-2.27390208950877

> <r_i_glide_gscore>
-9.30262998296056

> <r_i_glide_lipo>
-5.52154247106185

> <r_i_glide_hbond>
-0.0690456898388957

> <r_i_glide_metal>
0

> <r_i_glide_rewards>
-1.99095706811366

> <r_i_glide_evdw>
-39.6148872375488

> <r_i_glide_ecoul>
-3.87860441207886

> <r_i_glide_erotb>
0.844080019601055

> <r_i_glide_esite>
-0.00262974985793726

> <r_i_glide_emodel>
-66.6549596433113

> <r_i_glide_energy>
-43.4934916496277

> <r_i_glide_einternal>
4.01823282241821

> <i_i_glide_confnum>
100

> <i_i_glide_posenum>
193

> <r_i_glide_eff_state_penalty>
0

> <s_user_duplicate_titles>
CHEMBL2061_lig496,68415

> <i_f3d_flags>
0

> <s_m_subgroup_title>
dock_pv

> <s_m_subgroupid>
dock_pv

> <b_m_subgroup_collapsed>
1

$$$$
CHEMBL2061_lig443
                    3D
 Schrodinger Suite 2021-1.
 59 62  0  0  1  0            999 V2000
   65.6615   46.1189   32.9823 C   0  0  0  0  0  0
   65.2355   46.9788   34.1783 C   0  0  0  0  0  0
   63.8361   46.6256   34.7566 C   0  0  0  0  0  0
   64.6802   46.0211   32.0418 N   0  0  0  0  0  0
   66.7924   45.6418   32.9303 O   0  0  0  0  0  0
   63.4395   47.8117   35.6759 C   0  0  0  0  0  0
   63.9189   45.2819   35.5215 C   0  0  0  0  0  0
   63.2962   46.2882   32.2764 C   0  0  0  0  0  0
   62.8338   46.4893   33.5953 C   0  0  0  0  0  0
   61.4571   46.4850   33.8228 C   0  0  0  0  0  0
   60.5349   46.3019   32.7950 C   0  0  0  0  0  0
   60.9746   46.2293   31.4551 C   0  0  0  0  0  0
   62.3563   46.2283   31.2329 C   0  0  0  0  0  0
   60.0378   46.0791   30.2911 C   0  0  0  0  0  0
   58.9465   45.2058   30.3483 C   0  0  0  0  0  0
   57.9404   45.1841   29.4100 C   0  0  0  0  0  0
   58.0083   46.0764   28.3574 C   0  0  0  0  0  0
   59.1452   46.8744   28.1891 C   0  0  0  0  0  0
   60.1716   46.8750   29.1376 C   0  0  0  0  0  0
   56.8793   44.0988   29.5711 C   0  0  2  0  0  0
   61.2619   47.7102   28.9949 O   0  0  0  0  0  0
   62.0123   47.6040   27.7808 C   0  0  0  0  0  0
   62.3957   46.3470   27.5531 F   0  0  0  0  0  0
   61.3354   48.0736   26.7377 F   0  0  0  0  0  0
   63.1137   48.3423   27.9015 F   0  0  0  0  0  0
   65.0703   45.4355   30.7322 C   0  0  0  0  0  0
   64.5327   44.0121   30.4780 C   0  0  0  0  0  0
   59.0895   46.0775   33.2326 C   0  0  0  0  0  0
   55.4512   44.0770   29.0219 C   0  0  0  0  0  0
   55.7201   44.2328   30.5041 C   0  0  2  0  0  0
   55.3457   45.5759   31.0098 C   0  0  0  0  0  0
   55.0840   46.4765   30.0265 O   0  0  0  0  0  0
   55.2082   45.7314   32.2025 O   0  0  0  0  0  0
   66.0103   46.8675   34.9283 H   0  0  0  0  0  0
   65.2774   48.0159   33.8384 H   0  0  0  0  0  0
   64.1850   47.9763   36.4552 H   0  0  0  0  0  0
   63.3443   48.7431   35.1161 H   0  0  0  0  0  0
   62.4904   47.6422   36.1832 H   0  0  0  0  0  0
   64.6770   45.3159   36.3046 H   0  0  0  0  0  0
   62.9741   45.0477   36.0096 H   0  0  0  0  0  0
   64.1620   44.4435   34.8674 H   0  0  0  0  0  0
   61.0920   46.5470   34.8382 H   0  0  0  0  0  0
   62.6871   46.0945   30.2163 H   0  0  0  0  0  0
   58.8071   44.5187   31.1605 H   0  0  0  0  0  0
   57.1905   46.0837   27.6633 H   0  0  0  0  0  0
   59.2091   47.5116   27.3256 H   0  0  0  0  0  0
   57.3647   43.1430   29.7400 H   0  0  0  0  0  0
   64.7780   46.1164   29.9333 H   0  0  0  0  0  0
   66.1568   45.3962   30.6219 H   0  0  0  0  0  0
   64.4089   43.8141   29.4142 H   0  0  0  0  0  0
   65.2075   43.2627   30.8766 H   0  0  0  0  0  0
   63.5754   43.8331   30.9550 H   0  0  0  0  0  0
   58.9936   45.1441   33.7852 H   0  0  0  0  0  0
   58.8079   46.8766   33.8857 H   0  0  0  0  0  0
   58.3125   46.1064   32.4813 H   0  0  0  0  0  0
   54.7166   43.2765   28.9457 H   0  0  0  0  0  0
   55.2078   44.8508   28.2935 H   0  0  0  0  0  0
   55.6122   43.4514   31.2585 H   0  0  0  0  0  0
   55.3693   46.1186   29.1850 H   0  0  0  0  0  0
  1  5  2  0  0  0
  1  2  1  0  0  0
  1  4  1  0  0  0
  2  3  1  0  0  0
  2 34  1  0  0  0
  2 35  1  0  0  0
  3  9  1  0  0  0
  3  6  1  0  0  0
  3  7  1  0  0  0
  4  8  1  0  0  0
  4 26  1  0  0  0
  6 36  1  0  0  0
  6 37  1  0  0  0
  6 38  1  0  0  0
  7 39  1  0  0  0
  7 40  1  0  0  0
  7 41  1  0  0  0
  8  9  2  0  0  0
  8 13  1  0  0  0
  9 10  1  0  0  0
 10 11  2  0  0  0
 10 42  1  0  0  0
 11 12  1  0  0  0
 11 28  1  0  0  0
 12 14  1  0  0  0
 12 13  2  0  0  0
 13 43  1  0  0  0
 14 19  1  0  0  0
 14 15  2  0  0  0
 15 16  1  0  0  0
 15 44  1  0  0  0
 16 17  2  0  0  0
 16 20  1  0  0  0
 17 18  1  0  0  0
 17 45  1  0  0  0
 18 19  2  0  0  0
 18 46  1  0  0  0
 19 21  1  0  0  0
 20 29  1  0  0  0
 20 30  1  0  0  0
 20 47  1  0  0  0
 21 22  1  0  0  0
 22 23  1  0  0  0
 22 24  1  0  0  0
 22 25  1  0  0  0
 26 27  1  0  0  0
 26 48  1  0  0  0
 26 49  1  0  0  0
 27 50  1  0  0  0
 27 51  1  0  0  0
 27 52  1  0  0  0
 28 53  1  0  0  0
 28 54  1  0  0  0
 28 55  1  0  0  0
 29 30  1  0  0  0
 29 56  1  0  0  0
 29 57  1  0  0  0
 30 31  1  0  0  0
 30 58  1  0  0  0
 31 32  1  0  0  0
 31 33  2  0  0  0
 32 59  1  0  0  0
M  END
> <s_m_entry_id>
31132

> <s_m_entry_name>
dock_pv.345

> <s_m_Source_Path>
/home/csk/Desktop/cluster/DUD-E-result/rxra

> <s_m_Source_File>
dock_pv.maegz

> <i_m_Source_File_Index>
345

> <chembl_id>
CHEMBL246824

> <chembl_pref_name>
None

> <i_lp_mmshare_version>
53161

> <r_lp_tautomer_probability>
1

> <s_lp_Force_Field>
OPLS_2005

> <r_lp_Energy>
43.319904

> <b_lp_Chiralities_Consistent>
1

> <s_lp_Variant>
CHEMBL2061_lig443-3

> <s_i_glide_gridfile>
glide-grid_1mv9

> <i_i_glide_lignum>
518

> <i_i_glide_rotatable_bonds>
7

> <r_i_docking_score>
-9.30256584015014

> <r_i_glide_ligand_efficiency>
-0.281895934550004

> <r_i_glide_ligand_efficiency_sa>
-0.904190886501558

> <r_i_glide_ligand_efficiency_ln>
-2.06884247674126

> <r_i_glide_gscore>
-9.30256584015014

> <r_i_glide_lipo>
-5.72082957985118

> <r_i_glide_hbond>
0

> <r_i_glide_metal>
0

> <r_i_glide_rewards>
-2.96268102954545

> <r_i_glide_evdw>
-13.7723150253296

> <r_i_glide_ecoul>
-2.05776262283325

> <r_i_glide_erotb>
0.378224913937964

> <r_i_glide_esite>
0

> <r_i_glide_emodel>
-44.6874377527001

> <r_i_glide_energy>
-15.8300776481628

> <r_i_glide_einternal>
10.1682500839233

> <i_i_glide_confnum>
29

> <i_i_glide_posenum>
264

> <r_i_glide_eff_state_penalty>
0

> <s_user_duplicate_titles>
CHEMBL2061_lig443

> <i_f3d_flags>
0

> <s_m_subgroup_title>
dock_pv

> <s_m_subgroupid>
dock_pv

> <b_m_subgroup_collapsed>
1

$$$$
CHEMBL2061_lig8
                    3D
 Schrodinger Suite 2021-1.
 54 56  0  0  1  0            999 V2000
   64.0938   45.1130   30.8799 C   0  0  0  0  0  0
   63.1589   45.3419   29.8712 C   0  0  0  0  0  0
   62.0857   46.2072   30.1158 C   0  0  0  0  0  0
   62.0010   46.8134   31.3769 C   0  0  0  0  0  0
   63.9745   45.6592   32.1692 C   0  0  0  0  0  0
   62.8484   46.4771   32.4474 C   0  0  0  0  0  0
   62.4899   46.9536   33.8845 C   0  0  0  0  0  0
   63.4406   46.3466   34.9539 C   0  0  0  0  0  0
   64.8861   46.2479   34.4712 C   0  0  0  0  0  0
   65.0298   45.3076   33.2457 C   0  0  0  0  0  0
   63.2990   44.5849   28.5564 C   0  0  0  0  0  0
   64.8260   43.8376   33.6939 C   0  0  0  0  0  0
   66.4470   45.5620   32.6918 C   0  0  0  0  0  0
   62.5863   48.4902   33.9722 C   0  0  0  0  0  0
   61.0751   46.4466   34.2457 C   0  0  0  0  0  0
   61.0258   46.4603   29.0735 C   0  0  0  0  0  0
   59.5950   46.0768   29.3496 C   0  0  0  0  0  0
   58.6277   46.0822   28.3442 C   0  0  0  0  0  0
   57.2968   45.7721   28.6255 C   0  0  0  0  0  0
   56.8670   45.5213   29.9347 C   0  0  0  0  0  0
   57.8296   45.5972   30.9756 C   0  0  0  0  0  0
   59.1762   45.7190   30.6274 C   0  0  0  0  0  0
   55.4188   45.1273   30.1297 C   0  0  0  0  0  0
   54.6317   45.6769   30.8910 O   0  0  0  0  0  0
   55.0334   44.0951   29.3398 O   0  0  0  0  0  0
   57.5332   45.6770   32.4301 N   0  3  0  0  0  0
   56.4441   46.0770   32.8051 O   0  0  0  0  0  0
   58.4081   45.3405   33.2227 O   0  5  0  0  0  0
   61.3553   46.8415   27.9474 O   0  0  0  0  0  0
   64.9138   44.4434   30.6689 H   0  0  0  0  0  0
   61.1868   47.4947   31.5717 H   0  0  0  0  0  0
   63.1136   45.3490   35.2476 H   0  0  0  0  0  0
   63.3985   46.9261   35.8784 H   0  0  0  0  0  0
   65.5231   45.9058   35.2891 H   0  0  0  0  0  0
   65.2417   47.2512   34.2281 H   0  0  0  0  0  0
   64.0079   43.7624   28.6423 H   0  0  0  0  0  0
   62.3489   44.1385   28.2596 H   0  0  0  0  0  0
   63.6075   45.2765   27.7746 H   0  0  0  0  0  0
   65.4866   43.5814   34.5230 H   0  0  0  0  0  0
   63.8031   43.6321   34.0108 H   0  0  0  0  0  0
   65.0463   43.1405   32.8857 H   0  0  0  0  0  0
   67.2044   45.4320   33.4666 H   0  0  0  0  0  0
   66.7088   44.8772   31.8866 H   0  0  0  0  0  0
   66.5485   46.5767   32.3036 H   0  0  0  0  0  0
   62.2060   48.8424   34.9295 H   0  0  0  0  0  0
   63.6122   48.8389   33.9018 H   0  0  0  0  0  0
   62.0082   48.9910   33.1951 H   0  0  0  0  0  0
   60.8074   46.6997   35.2725 H   0  0  0  0  0  0
   60.3156   46.8793   33.6029 H   0  0  0  0  0  0
   60.9871   45.3659   34.1388 H   0  0  0  0  0  0
   58.9050   46.3193   27.3298 H   0  0  0  0  0  0
   56.5946   45.7429   27.8032 H   0  0  0  0  0  0
   59.8879   45.6771   31.4296 H   0  0  0  0  0  0
   54.1069   43.8867   29.4444 H   0  0  0  0  0  0
  1  2  2  0  0  0
  1  5  1  0  0  0
  1 30  1  0  0  0
  2 11  1  0  0  0
  2  3  1  0  0  0
  3  4  2  0  0  0
  3 16  1  0  0  0
  4  6  1  0  0  0
  4 31  1  0  0  0
  5 10  1  0  0  0
  5  6  2  0  0  0
  6  7  1  0  0  0
  7 14  1  0  0  0
  7 15  1  0  0  0
  7  8  1  0  0  0
  8  9  1  0  0  0
  8 32  1  0  0  0
  8 33  1  0  0  0
  9 10  1  0  0  0
  9 34  1  0  0  0
  9 35  1  0  0  0
 10 12  1  0  0  0
 10 13  1  0  0  0
 11 36  1  0  0  0
 11 37  1  0  0  0
 11 38  1  0  0  0
 12 39  1  0  0  0
 12 40  1  0  0  0
 12 41  1  0  0  0
 13 42  1  0  0  0
 13 43  1  0  0  0
 13 44  1  0  0  0
 14 45  1  0  0  0
 14 46  1  0  0  0
 14 47  1  0  0  0
 15 48  1  0  0  0
 15 49  1  0  0  0
 15 50  1  0  0  0
 16 17  1  0  0  0
 16 29  2  0  0  0
 17 18  2  0  0  0
 17 22  1  0  0  0
 18 19  1  0  0  0
 18 51  1  0  0  0
 19 20  2  0  0  0
 19 52  1  0  0  0
 20 21  1  0  0  0
 20 23  1  0  0  0
 21 22  2  0  0  0
 21 26  1  0  0  0
 22 53  1  0  0  0
 23 24  2  0  0  0
 23 25  1  0  0  0
 25 54  1  0  0  0
 26 27  2  0  0  0
 26 28  1  0  0  0
M  CHG  2  26   1  28  -1
M  END
> <s_m_entry_id>
31133

> <s_m_entry_name>
dock_pv.346

> <s_m_Source_Path>
/home/csk/Desktop/cluster/DUD-E-result/rxra

> <s_m_Source_File>
dock_pv.maegz

> <i_m_Source_File_Index>
346

> <chembl_id>
CHEMBL567602

> <chembl_pref_name>
None

> <i_lp_mmshare_version>
53161

> <r_lp_tautomer_probability>
1

> <s_lp_Force_Field>
OPLS_2005

> <r_lp_Energy>
38.639651

> <b_lp_Chiralities_Consistent>
1

> <s_lp_Variant>
CHEMBL2061_lig8-1

> <s_i_glide_gridfile>
glide-grid_1mv9

> <i_i_glide_lignum>
11

> <i_i_glide_rotatable_bonds>
5

> <r_i_docking_score>
-9.29882136587253

> <r_i_glide_ligand_efficiency>
-0.320649012616294

> <r_i_glide_ligand_efficiency_sa>
-0.985135355494847

> <r_i_glide_ligand_efficiency_ln>
-2.12919429502016

> <r_i_glide_gscore>
-9.29882136587253

> <r_i_glide_lipo>
-5.54005644868618

> <r_i_glide_hbond>
-0.144830683510958

> <r_i_glide_metal>
0

> <r_i_glide_rewards>
-2.43147458286134

> <r_i_glide_evdw>
-31.6936321258545

> <r_i_glide_ecoul>
0.180512338876724

> <r_i_glide_erotb>
0.375145104647161

> <r_i_glide_esite>
0

> <r_i_glide_emodel>
-32.1815655879466

> <r_i_glide_energy>
-31.5131197869778

> <r_i_glide_einternal>
9.96316528320312

> <i_i_glide_confnum>
27

> <i_i_glide_posenum>
103

> <r_i_glide_eff_state_penalty>
0

> <s_user_duplicate_titles>
CHEMBL2061_lig8

> <i_f3d_flags>
0

> <s_m_subgroup_title>
dock_pv

> <s_m_subgroupid>
dock_pv

> <b_m_subgroup_collapsed>
1

$$$$
CHEMBL2061_lig56
                    3D
 Schrodinger Suite 2021-1.
 42 44  0  0  1  0            999 V2000
   62.0152   46.0499   28.9637 C   0  0  0  0  0  0
   55.2842   44.8797   29.3326 N   0  0  0  0  0  0
   57.2937   45.3737   30.2317 N   0  0  0  0  0  0
   60.7192   45.1166   29.7390 S   0  0  0  0  0  0
   56.1029   44.6949   30.3371 C   0  0  0  0  0  0
   61.7447   47.1494   28.1251 C   0  0  0  0  0  0
   63.3452   45.6357   29.1448 C   0  0  0  0  0  0
   55.9279   45.7139   28.5388 C   0  0  0  0  0  0
   57.1631   46.0701   29.0563 C   0  0  0  0  0  0
   58.3130   45.4606   31.2771 C   0  0  0  0  0  0
   59.6998   46.0699   30.8806 C   0  0  1  0  0  0
   64.0084   46.5953   35.5125 C   0  0  0  0  0  0
   60.1472   47.6789   27.7480 Cl  0  0  0  0  0  0
   63.7683   44.2236   30.0567 Cl  0  0  0  0  0  0
   62.5745   47.2770   33.2467 C   0  0  0  0  0  0
   64.8080   46.0771   36.9394 Cl  0  0  0  0  0  0
   60.4552   46.5010   32.1680 C   0  0  0  0  0  0
   61.6497   47.4757   32.0562 C   0  0  0  0  0  0
   63.0825   47.6328   35.5760 C   0  0  0  0  0  0
   64.2773   45.9447   34.3136 C   0  0  0  0  0  0
   62.3629   47.9759   34.4369 C   0  0  0  0  0  0
   63.5604   46.2906   33.1766 C   0  0  0  0  0  0
   64.1062   47.4353   27.7206 C   0  0  0  0  0  0
   62.7932   47.8415   27.5220 C   0  0  0  0  0  0
   64.3767   46.3462   28.5422 C   0  0  0  0  0  0
   55.9064   44.0869   31.2048 H   0  0  0  0  0  0
   55.5010   46.0572   27.6090 H   0  0  0  0  0  0
   57.9250   46.7401   28.7027 H   0  0  0  0  0  0
   58.4081   44.4630   31.7015 H   0  0  0  0  0  0
   57.8614   46.0694   32.0616 H   0  0  0  0  0  0
   59.4981   46.8770   30.2149 H   0  0  0  0  0  0
   59.7677   46.8770   32.9185 H   0  0  0  0  0  0
   60.8081   45.6239   32.6746 H   0  0  0  0  0  0
   62.2356   47.3172   31.1564 H   0  0  0  0  0  0
   61.3145   48.5085   31.9915 H   0  0  0  0  0  0
   62.8920   48.1376   36.5109 H   0  0  0  0  0  0
   65.0066   45.1484   34.2741 H   0  0  0  0  0  0
   61.6079   48.7430   34.5009 H   0  0  0  0  0  0
   63.7291   45.7505   32.2598 H   0  0  0  0  0  0
   64.9173   47.9632   27.2398 H   0  0  0  0  0  0
   62.5882   48.6876   26.8838 H   0  0  0  0  0  0
   65.3950   46.0153   28.6740 H   0  0  0  0  0  0
  1  4  1  0  0  0
  1  6  1  0  0  0
  1  7  2  0  0  0
  2  5  2  0  0  0
  2  8  1  0  0  0
  3 10  1  0  0  0
  3  5  1  0  0  0
  3  9  1  0  0  0
  4 11  1  0  0  0
  5 26  1  0  0  0
  6 13  1  0  0  0
  6 24  2  0  0  0
  7 14  1  0  0  0
  7 25  1  0  0  0
  8  9  2  0  0  0
  8 27  1  0  0  0
  9 28  1  0  0  0
 10 11  1  0  0  0
 10 29  1  0  0  0
 10 30  1  0  0  0
 11 17  1  0  0  0
 11 31  1  0  0  0
 12 20  1  0  0  0
 12 16  1  0  0  0
 12 19  2  0  0  0
 15 18  1  0  0  0
 15 21  2  0  0  0
 15 22  1  0  0  0
 17 18  1  0  0  0
 17 32  1  0  0  0
 17 33  1  0  0  0
 18 34  1  0  0  0
 18 35  1  0  0  0
 19 21  1  0  0  0
 19 36  1  0  0  0
 20 22  2  0  0  0
 20 37  1  0  0  0
 21 38  1  0  0  0
 22 39  1  0  0  0
 23 25  2  0  0  0
 23 24  1  0  0  0
 23 40  1  0  0  0
 24 41  1  0  0  0
 25 42  1  0  0  0
M  END
> <s_m_entry_id>
31134

> <s_m_entry_name>
dock_pv.347

> <s_m_Source_Path>
/home/csk/Desktop/cluster/DUD-E-result/rxra

> <s_m_Source_File>
dock_pv.maegz

> <i_m_Source_File_Index>
347

> <chembl_id>
CHEMBL1295

> <chembl_pref_name>
BUTOCONAZOLE

> <i_lp_mmshare_version>
53161

> <r_lp_tautomer_probability>
1

> <s_lp_Force_Field>
OPLS_2005

> <r_lp_Energy>
17.863011

> <b_lp_Chiralities_Consistent>
1

> <s_lp_Variant>
CHEMBL2061_lig56-1

> <s_i_glide_gridfile>
glide-grid_1mv9

> <i_i_glide_lignum>
78

> <i_i_glide_rotatable_bonds>
7

> <r_i_docking_score>
-9.28542569624234

> <r_i_glide_ligand_efficiency>
-0.371417027849694

> <r_i_glide_ligand_efficiency_sa>
-1.08602997654154

> <r_i_glide_ligand_efficiency_ln>
-2.20092415176321

> <r_i_glide_gscore>
-9.28542569624234

> <r_i_glide_lipo>
-5.52107363991121

> <r_i_glide_hbond>
0

> <r_i_glide_metal>
0

> <r_i_glide_rewards>
-2.35054322692762

> <r_i_glide_evdw>
-38.2956962585449

> <r_i_glide_ecoul>
0.239607214927673

> <r_i_glide_erotb>
0.465034901284585

> <r_i_glide_esite>
0

> <r_i_glide_emodel>
-41.9226224984421

> <r_i_glide_energy>
-38.0560890436172

> <r_i_glide_einternal>
10.235107421875

> <i_i_glide_confnum>
58

> <i_i_glide_posenum>
240

> <r_i_glide_eff_state_penalty>
0

> <s_user_duplicate_titles>
CHEMBL2061_lig56

> <i_f3d_flags>
0

> <s_m_subgroup_title>
dock_pv

> <s_m_subgroupid>
dock_pv

> <b_m_subgroup_collapsed>
1

$$$$
CHEMBL2061_lig230
                    3D
 Schrodinger Suite 2021-1.
 61 64  0  0  1  0            999 V2000
   64.7156   46.4050   34.8008 C   0  0  0  0  0  0
   63.2608   46.3992   35.2669 C   0  0  0  0  0  0
   62.2733   46.9363   34.1933 C   0  0  0  0  0  0
   64.9438   45.5070   33.5643 C   0  0  0  0  0  0
   63.8069   45.6929   32.5243 C   0  0  0  0  0  0
   62.5737   46.3499   32.7969 C   0  0  0  0  0  0
   61.5889   46.4144   31.7753 C   0  0  0  0  0  0
   61.7276   45.7631   30.5404 C   0  0  0  0  0  0
   62.9442   45.0965   30.3384 C   0  0  0  0  0  0
   63.9557   45.0903   31.2776 C   0  0  0  0  0  0
   64.9507   44.0263   34.0230 C   0  0  0  0  0  0
   66.3033   45.9399   32.9621 C   0  0  0  0  0  0
   62.4078   48.4673   34.1390 C   0  0  0  0  0  0
   60.7100   45.8010   29.5306 N   0  0  0  0  0  0
   59.2992   45.7617   29.7157 C   0  0  0  0  0  0
   58.4030   46.5389   28.9673 C   0  0  0  0  0  0
   57.0250   46.2890   29.0407 C   0  0  0  0  0  0
   56.5261   45.3349   29.9327 C   0  0  0  0  0  0
   57.4771   44.6042   30.6472 C   0  0  0  0  0  0
   58.8079   44.8196   30.5390 N   0  0  0  0  0  0
   55.0394   45.1967   30.1725 C   0  0  0  0  0  0
   54.2245   46.0115   29.7388 O   0  0  0  0  0  0
   54.6621   44.1327   30.9392 O   0  0  0  0  0  0
   60.8730   46.4761   34.6620 C   0  0  0  0  0  0
   61.2550   45.6944   27.8273 S   0  0  0  0  0  0
   62.3735   46.9952   27.7073 C   0  0  0  0  0  0
   60.1588   46.0771   26.9392 O   0  0  0  0  0  0
   62.0080   44.4520   27.6044 O   0  0  0  0  0  0
   63.7163   46.7005   27.7386 C   0  0  0  0  0  0
   64.6376   47.6765   27.4336 C   0  0  0  0  0  0
   64.1927   48.9771   27.3390 C   0  0  0  0  0  0
   62.8280   49.2761   27.4076 C   0  0  0  0  0  0
   61.8996   48.2813   27.5822 C   0  0  0  0  0  0
   65.3600   46.0836   35.6222 H   0  0  0  0  0  0
   65.0225   47.4296   34.5904 H   0  0  0  0  0  0
   62.9972   45.3830   35.5640 H   0  0  0  0  0  0
   63.1775   46.9926   36.1767 H   0  0  0  0  0  0
   60.6644   46.9342   31.9699 H   0  0  0  0  0  0
   63.1594   44.4972   29.4806 H   0  0  0  0  0  0
   64.8520   44.5341   31.0462 H   0  0  0  0  0  0
   65.6833   43.8554   34.8127 H   0  0  0  0  0  0
   63.9806   43.7021   34.4014 H   0  0  0  0  0  0
   65.2094   43.3536   33.2044 H   0  0  0  0  0  0
   67.0958   45.9275   33.7132 H   0  0  0  0  0  0
   66.6285   45.2766   32.1608 H   0  0  0  0  0  0
   66.2584   46.9497   32.5528 H   0  0  0  0  0  0
   61.9103   48.8768   35.0146 H   0  0  0  0  0  0
   63.4378   48.8164   34.1451 H   0  0  0  0  0  0
   61.9594   48.9016   33.2462 H   0  0  0  0  0  0
   58.7676   47.3200   28.3200 H   0  0  0  0  0  0
   56.3359   46.8769   28.4540 H   0  0  0  0  0  0
   57.2148   43.8242   31.3391 H   0  0  0  0  0  0
   55.3962   43.5524   31.1426 H   0  0  0  0  0  0
   60.7370   46.7016   35.7195 H   0  0  0  0  0  0
   60.0581   46.9562   34.1276 H   0  0  0  0  0  0
   60.7323   45.4012   34.5385 H   0  0  0  0  0  0
   64.0084   45.6825   27.9031 H   0  0  0  0  0  0
   65.6823   47.4316   27.3390 H   0  0  0  0  0  0
   64.9181   49.7624   27.1874 H   0  0  0  0  0  0
   62.4344   50.2769   27.3390 H   0  0  0  0  0  0
   60.8434   48.5084   27.5974 H   0  0  0  0  0  0
  1  2  1  0  0  0
  1  4  1  0  0  0
  1 34  1  0  0  0
  1 35  1  0  0  0
  2  3  1  0  0  0
  2 36  1  0  0  0
  2 37  1  0  0  0
  3  6  1  0  0  0
  3 24  1  0  0  0
  3 13  1  0  0  0
  4  5  1  0  0  0
  4 11  1  0  0  0
  4 12  1  0  0  0
  5 10  1  0  0  0
  5  6  2  0  0  0
  6  7  1  0  0  0
  7  8  2  0  0  0
  7 38  1  0  0  0
  8  9  1  0  0  0
  8 14  1  0  0  0
  9 10  2  0  0  0
  9 39  1  0  0  0
 10 40  1  0  0  0
 11 41  1  0  0  0
 11 42  1  0  0  0
 11 43  1  0  0  0
 12 44  1  0  0  0
 12 45  1  0  0  0
 12 46  1  0  0  0
 13 47  1  0  0  0
 13 48  1  0  0  0
 13 49  1  0  0  0
 14 25  1  0  0  0
 14 15  1  0  0  0
 15 16  2  0  0  0
 15 20  1  0  0  0
 16 17  1  0  0  0
 16 50  1  0  0  0
 17 18  2  0  0  0
 17 51  1  0  0  0
 18 19  1  0  0  0
 18 21  1  0  0  0
 19 20  2  0  0  0
 19 52  1  0  0  0
 21 22  2  0  0  0
 21 23  1  0  0  0
 23 53  1  0  0  0
 24 54  1  0  0  0
 24 55  1  0  0  0
 24 56  1  0  0  0
 25 26  1  0  0  0
 25 27  2  0  0  0
 25 28  2  0  0  0
 26 29  2  0  0  0
 26 33  1  0  0  0
 29 30  1  0  0  0
 29 57  1  0  0  0
 30 31  2  0  0  0
 30 58  1  0  0  0
 31 32  1  0  0  0
 31 59  1  0  0  0
 32 33  2  0  0  0
 32 60  1  0  0  0
 33 61  1  0  0  0
M  END
> <s_m_entry_id>
31135

> <s_m_entry_name>
dock_pv.348

> <s_m_Source_Path>
/home/csk/Desktop/cluster/DUD-E-result/rxra

> <s_m_Source_File>
dock_pv.maegz

> <i_m_Source_File_Index>
348

> <chembl_id>
CHEMBL515426

> <chembl_pref_name>
None

> <i_lp_mmshare_version>
53161

> <r_lp_tautomer_probability>
1

> <s_lp_Force_Field>
OPLS_2005

> <r_lp_Energy>
32.906116

> <b_lp_Chiralities_Consistent>
1

> <s_lp_Variant>
CHEMBL2061_lig230-1

> <s_i_glide_gridfile>
glide-grid_1mv9

> <i_i_glide_lignum>
269

> <i_i_glide_rotatable_bonds>
6

> <r_i_docking_score>
-9.28523375124118

> <r_i_glide_ligand_efficiency>
-0.281370719734581

> <r_i_glide_ligand_efficiency_sa>
-0.90250624195243

> <r_i_glide_ligand_efficiency_ln>
-2.06498790990867

> <r_i_glide_gscore>
-9.28523375124118

> <r_i_glide_lipo>
-6.63686768402206

> <r_i_glide_hbond>
-0.0848187486570334

> <r_i_glide_metal>
0

> <r_i_glide_rewards>
-1.14218595895411

> <r_i_glide_evdw>
-26.8596248626709

> <r_i_glide_ecoul>
-3.6361358165741

> <r_i_glide_erotb>
0.46704025601168

> <r_i_glide_esite>
0

> <r_i_glide_emodel>
-45.1579932834983

> <r_i_glide_energy>
-30.495760679245

> <r_i_glide_einternal>
25.8412456512451

> <i_i_glide_confnum>
191

> <i_i_glide_posenum>
242

> <r_i_glide_eff_state_penalty>
0

> <s_user_duplicate_titles>
CHEMBL2061_lig230

> <i_f3d_flags>
0

> <s_m_subgroup_title>
dock_pv

> <s_m_subgroupid>
dock_pv

> <b_m_subgroup_collapsed>
1

$$$$
CHEMBL2061_lig475
                    3D
 Schrodinger Suite 2021-1.
 55 57  0  0  1  0            999 V2000
   63.6181   44.6211   30.1998 C   0  0  0  0  0  0
   62.9359   45.7076   30.7758 C   0  0  0  0  0  0
   61.8117   46.2370   30.1526 C   0  0  0  0  0  0
   61.3226   45.6771   28.9987 C   0  0  0  0  0  0
   62.0080   44.6228   28.3913 C   0  0  0  0  0  0
   63.1443   44.0893   28.9951 C   0  0  0  0  0  0
   64.8130   43.9531   30.8927 C   0  0  0  0  0  0
   64.3585   42.9209   31.9445 C   0  0  0  0  0  0
   63.3623   46.2270   31.9628 O   0  0  0  0  0  0
   60.1516   46.2342   28.4836 N   0  0  0  0  0  0
   58.8552   45.9198   28.9770 C   0  0  0  0  0  0
   60.3197   46.8501   27.1570 C   0  0  0  0  0  0
   61.6250   47.6447   26.9392 C   0  0  0  0  0  0
   57.8133   46.0770   28.1390 N   0  0  0  0  0  0
   56.5502   45.8461   28.5390 C   0  0  0  0  0  0
   56.2444   45.4333   29.8286 C   0  0  0  0  0  0
   57.3131   45.1923   30.7036 C   0  0  0  0  0  0
   58.6259   45.4347   30.2733 C   0  0  0  0  0  0
   54.8120   45.2708   30.2255 C   0  0  0  0  0  0
   54.4080   44.3634   30.9390 O   0  0  0  0  0  0
   54.0080   46.2560   29.7389 O   0  0  0  0  0  0
   65.8585   44.9530   31.4335 C   0  0  0  0  0  0
   62.4196   46.9304   32.7584 C   0  0  0  0  0  0
   62.9666   46.8979   34.1421 C   0  0  0  0  0  0
   63.1636   48.0865   34.8233 C   0  0  0  0  0  0
   63.8191   48.0510   36.0350 C   0  0  0  0  0  0
   64.2735   46.8343   36.5390 C   0  0  0  0  0  0
   64.0305   45.6395   35.8866 C   0  0  0  0  0  0
   63.3641   45.6762   34.6795 C   0  0  0  0  0  0
   61.2846   47.0845   30.5634 H   0  0  0  0  0  0
   61.6458   44.1998   27.4683 H   0  0  0  0  0  0
   63.6338   43.2413   28.5390 H   0  0  0  0  0  0
   65.3465   43.3780   30.1390 H   0  0  0  0  0  0
   63.8946   42.0564   31.4677 H   0  0  0  0  0  0
   65.1820   42.5527   32.5558 H   0  0  0  0  0  0
   63.6227   43.3364   32.6254 H   0  0  0  0  0  0
   60.2148   46.0770   26.3994 H   0  0  0  0  0  0
   59.5077   47.5504   26.9910 H   0  0  0  0  0  0
   61.6340   48.0770   25.9446 H   0  0  0  0  0  0
   61.7186   48.4602   27.6574 H   0  0  0  0  0  0
   62.5158   47.0207   27.0109 H   0  0  0  0  0  0
   55.7927   46.0027   27.7831 H   0  0  0  0  0  0
   57.1384   44.8770   31.7211 H   0  0  0  0  0  0
   59.4472   45.2782   30.9489 H   0  0  0  0  0  0
   54.5255   46.9095   29.2619 H   0  0  0  0  0  0
   66.0042   45.7890   30.7491 H   0  0  0  0  0  0
   65.5832   45.3584   32.4071 H   0  0  0  0  0  0
   66.8264   44.4774   31.5585 H   0  0  0  0  0  0
   61.4349   46.4570   32.7789 H   0  0  0  0  0  0
   62.3083   47.9545   32.3952 H   0  0  0  0  0  0
   62.8692   49.0305   34.3907 H   0  0  0  0  0  0
   64.0080   48.9798   36.5390 H   0  0  0  0  0  0
   64.8433   46.8103   37.4481 H   0  0  0  0  0  0
   64.3825   44.7049   36.2913 H   0  0  0  0  0  0
   63.2080   44.7592   34.1390 H   0  0  0  0  0  0
  1  7  1  0  0  0
  1  6  1  0  0  0
  1  2  2  0  0  0
  2  9  1  0  0  0
  2  3  1  0  0  0
  3  4  2  0  0  0
  3 30  1  0  0  0
  4  5  1  0  0  0
  4 10  1  0  0  0
  5  6  2  0  0  0
  5 31  1  0  0  0
  6 32  1  0  0  0
  7  8  1  0  0  0
  7 22  1  0  0  0
  7 33  1  0  0  0
  8 34  1  0  0  0
  8 35  1  0  0  0
  8 36  1  0  0  0
  9 23  1  0  0  0
 10 11  1  0  0  0
 10 12  1  0  0  0
 11 14  2  0  0  0
 11 18  1  0  0  0
 12 13  1  0  0  0
 12 37  1  0  0  0
 12 38  1  0  0  0
 13 39  1  0  0  0
 13 40  1  0  0  0
 13 41  1  0  0  0
 14 15  1  0  0  0
 15 16  2  0  0  0
 15 42  1  0  0  0
 16 17  1  0  0  0
 16 19  1  0  0  0
 17 18  2  0  0  0
 17 43  1  0  0  0
 18 44  1  0  0  0
 19 20  2  0  0  0
 19 21  1  0  0  0
 21 45  1  0  0  0
 22 46  1  0  0  0
 22 47  1  0  0  0
 22 48  1  0  0  0
 23 24  1  0  0  0
 23 49  1  0  0  0
 23 50  1  0  0  0
 24 25  2  0  0  0
 24 29  1  0  0  0
 25 26  1  0  0  0
 25 51  1  0  0  0
 26 27  2  0  0  0
 26 52  1  0  0  0
 27 28  1  0  0  0
 27 53  1  0  0  0
 28 29  2  0  0  0
 28 54  1  0  0  0
 29 55  1  0  0  0
M  END
> <s_m_entry_id>
31136

> <s_m_entry_name>
dock_pv.349

> <s_m_Source_Path>
/home/csk/Desktop/cluster/DUD-E-result/rxra

> <s_m_Source_File>
dock_pv.maegz

> <i_m_Source_File_Index>
349

> <chembl_id>
CHEMBL1688392

> <chembl_pref_name>
None

> <i_lp_mmshare_version>
53161

> <r_lp_tautomer_probability>
1

> <s_lp_Force_Field>
OPLS_2005

> <r_lp_Energy>
28.317874

> <b_lp_Chiralities_Consistent>
1

> <s_lp_Variant>
CHEMBL2061_lig475-1

> <s_i_glide_gridfile>
glide-grid_1mv9

> <i_i_glide_lignum>
564

> <i_i_glide_rotatable_bonds>
9

> <r_i_docking_score>
-9.2812017985979

> <r_i_glide_ligand_efficiency>
-0.320041441330962

> <r_i_glide_ligand_efficiency_sa>
-0.983268704014213

> <r_i_glide_ligand_efficiency_ln>
-2.12515986090794

> <r_i_glide_gscore>
-9.2812017985979

> <r_i_glide_lipo>
-5.95799966180592

> <r_i_glide_hbond>
-0.32

> <r_i_glide_metal>
0

> <r_i_glide_rewards>
-0.925462344035164

> <r_i_glide_evdw>
-40.252384185791

> <r_i_glide_ecoul>
-5.5511474609375

> <r_i_glide_erotb>
0.767551535673352

> <r_i_glide_esite>
0

> <r_i_glide_emodel>
-48.8836310567435

> <r_i_glide_energy>
-45.8035316467285

> <r_i_glide_einternal>
11.0211791992188

> <i_i_glide_confnum>
71

> <i_i_glide_posenum>
77

> <r_i_glide_eff_state_penalty>
0

> <s_user_duplicate_titles>
CHEMBL2061_lig475

> <i_f3d_flags>
0

> <s_m_subgroup_title>
dock_pv

> <s_m_subgroupid>
dock_pv

> <b_m_subgroup_collapsed>
1

$$$$
CHEMBL2061_lig28
                    3D
 Schrodinger Suite 2021-1.
 51 51  0  0  1  0            999 V2000
   63.4647   46.5242   31.9844 C   0  0  0  0  0  0
   62.7411   46.9890   30.7989 C   0  0  0  0  0  0
   63.0439   46.9507   33.1963 C   0  0  0  0  0  0
   64.6867   45.5835   31.8911 C   0  0  1  0  0  0
   63.0547   46.7120   29.5160 C   0  0  0  0  0  0
   56.3860   46.0011   29.2420 C   0  0  0  0  0  0
   55.1575   45.5894   29.8874 C   0  0  0  0  0  0
   60.0433   46.4331   29.0727 C   0  0  0  0  0  0
   57.6670   45.8765   29.6897 C   0  0  0  0  0  0
   62.3354   47.1964   28.3443 C   0  0  0  0  0  0
   58.7166   46.4229   28.8253 C   0  0  0  0  0  0
   60.9970   47.0673   28.1701 C   0  0  0  0  0  0
   54.0832   46.1679   29.7373 O   0  0  0  0  0  0
   55.2854   44.4774   30.6535 O   0  0  0  0  0  0
   63.7449   46.6428   34.5105 C   0  0  1  0  0  0
   65.7265   45.8137   33.0420 C   0  0  0  0  0  0
   65.2650   46.6431   34.2607 C   0  0  0  0  0  0
   58.0422   45.2780   31.0494 C   0  0  0  0  0  0
   63.1633   47.8966   27.2788 C   0  0  0  0  0  0
   63.3450   47.6558   35.6009 C   0  0  0  0  0  0
   64.2511   44.1099   31.7841 C   0  0  0  0  0  0
   64.0290   43.3102   32.8473 C   0  0  0  0  0  0
   64.0950   43.5658   30.3734 C   0  0  0  0  0  0
   61.8816   47.6248   30.9590 H   0  0  0  0  0  0
   62.1813   47.6022   33.2331 H   0  0  0  0  0  0
   65.2391   45.8431   30.9870 H   0  0  0  0  0  0
   63.9144   46.0965   29.3072 H   0  0  0  0  0  0
   56.1927   46.4774   28.2917 H   0  0  0  0  0  0
   60.4166   45.9651   29.9705 H   0  0  0  0  0  0
   58.4100   46.8768   27.8952 H   0  0  0  0  0  0
   60.5873   47.4806   27.2588 H   0  0  0  0  0  0
   56.1843   44.1451   30.6045 H   0  0  0  0  0  0
   63.4290   45.6531   34.8424 H   0  0  0  0  0  0
   66.1480   44.8677   33.3840 H   0  0  0  0  0  0
   66.5899   46.3304   32.6217 H   0  0  0  0  0  0
   65.6019   47.6752   34.1353 H   0  0  0  0  0  0
   65.7790   46.2826   35.1522 H   0  0  0  0  0  0
   58.8398   45.8643   31.5043 H   0  0  0  0  0  0
   57.2490   45.3337   31.7925 H   0  0  0  0  0  0
   58.4098   44.2578   30.9400 H   0  0  0  0  0  0
   63.9564   47.2331   26.9315 H   0  0  0  0  0  0
   62.5846   48.2255   26.4147 H   0  0  0  0  0  0
   63.6701   48.7567   27.7193 H   0  0  0  0  0  0
   62.2720   47.6300   35.7945 H   0  0  0  0  0  0
   63.8504   47.4411   36.5432 H   0  0  0  0  0  0
   63.6055   48.6766   35.3159 H   0  0  0  0  0  0
   63.7316   42.2787   32.7203 H   0  0  0  0  0  0
   64.1373   43.6646   33.8610 H   0  0  0  0  0  0
   63.1789   43.9383   29.9185 H   0  0  0  0  0  0
   64.9343   43.8627   29.7468 H   0  0  0  0  0  0
   64.0433   42.4768   30.3632 H   0  0  0  0  0  0
  1  2  1  0  0  0
  1  3  2  0  0  0
  1  4  1  0  0  0
  2  5  2  0  0  0
  2 24  1  0  0  0
  3 15  1  0  0  0
  3 25  1  0  0  0
  4 16  1  0  0  0
  4 21  1  0  0  0
  4 26  1  0  0  0
  5 10  1  0  0  0
  5 27  1  0  0  0
  6  9  2  0  0  0
  6  7  1  0  0  0
  6 28  1  0  0  0
  7 13  2  0  0  0
  7 14  1  0  0  0
  8 12  1  0  0  0
  8 11  2  0  0  0
  8 29  1  0  0  0
  9 11  1  0  0  0
  9 18  1  0  0  0
 10 12  2  0  0  0
 10 19  1  0  0  0
 11 30  1  0  0  0
 12 31  1  0  0  0
 14 32  1  0  0  0
 15 17  1  0  0  0
 15 20  1  0  0  0
 15 33  1  0  0  0
 16 17  1  0  0  0
 16 34  1  0  0  0
 16 35  1  0  0  0
 17 36  1  0  0  0
 17 37  1  0  0  0
 18 38  1  0  0  0
 18 39  1  0  0  0
 18 40  1  0  0  0
 19 41  1  0  0  0
 19 42  1  0  0  0
 19 43  1  0  0  0
 20 44  1  0  0  0
 20 45  1  0  0  0
 20 46  1  0  0  0
 21 22  2  0  0  0
 21 23  1  0  0  0
 22 47  1  0  0  0
 22 48  1  0  0  0
 23 49  1  0  0  0
 23 50  1  0  0  0
 23 51  1  0  0  0
M  END
> <s_m_entry_id>
31137

> <s_m_entry_name>
dock_pv.350

> <s_m_Source_Path>
/home/csk/Desktop/cluster/DUD-E-result/rxra

> <s_m_Source_File>
dock_pv.maegz

> <i_m_Source_File_Index>
350

> <chembl_id>
CHEMBL1773352

> <chembl_pref_name>
None

> <i_lp_mmshare_version>
53161

> <r_lp_tautomer_probability>
1

> <s_lp_Force_Field>
OPLS_2005

> <r_lp_Energy>
19.980187

> <b_lp_Chiralities_Consistent>
1

> <s_lp_Variant>
CHEMBL2061_lig28-1

> <s_i_glide_gridfile>
glide-grid_1mv9

> <i_i_glide_lignum>
32

> <i_i_glide_rotatable_bonds>
7

> <r_i_docking_score>
-9.28044774419526

> <r_i_glide_ligand_efficiency>
-0.40349772800849

> <r_i_glide_ligand_efficiency_sa>
-1.14749386392915

> <r_i_glide_ligand_efficiency_ln>
-2.24409641499406

> <r_i_glide_gscore>
-9.28044774419526

> <r_i_glide_lipo>
-5.49562268254206

> <r_i_glide_hbond>
-0.132913884194854

> <r_i_glide_metal>
0

> <r_i_glide_rewards>
-2.21496216020264

> <r_i_glide_evdw>
-40.2267837524414

> <r_i_glide_ecoul>
-3.77547359466553

> <r_i_glide_erotb>
1.14071120956618

> <r_i_glide_esite>
0

> <r_i_glide_emodel>
-64.6148421739006

> <r_i_glide_energy>
-44.0022573471069

> <r_i_glide_einternal>
8.1768970489502

> <i_i_glide_confnum>
43

> <i_i_glide_posenum>
307

> <r_i_glide_eff_state_penalty>
0

> <s_user_duplicate_titles>
CHEMBL2061_lig28

> <i_f3d_flags>
0

> <s_m_subgroup_title>
dock_pv

> <s_m_subgroupid>
dock_pv

> <b_m_subgroup_collapsed>
1

$$$$
CHEMBL2061_lig524 
                    3D
 Schrodinger Suite 2021-1.
 34 35  0  0  1  0            999 V2000
   63.7119   46.2824   32.4199 C   0  0  0  0  0  0
   63.6125   45.8229   31.1028 C   0  0  0  0  0  0
   62.3674   45.8146   30.4703 C   0  0  0  0  0  0
   61.2069   46.2086   31.1429 C   0  0  0  0  0  0
   61.3308   46.6406   32.4717 C   0  0  0  0  0  0
   62.5727   46.6961   33.1151 C   0  0  0  0  0  0
   59.8709   46.0769   30.4871 C   0  0  0  0  0  0
   59.7102   46.3116   29.1182 C   0  0  0  0  0  0
   58.4693   46.1413   28.5128 C   0  0  0  0  0  0
   57.3573   45.7396   29.2573 C   0  0  0  0  0  0
   57.5170   45.4705   30.6165 C   0  0  0  0  0  0
   58.7484   45.6770   31.2259 C   0  0  0  0  0  0
   56.0093   45.5292   28.5655 C   0  0  0  0  0  0
   54.8067   46.1072   29.3175 C   0  0  0  0  0  0
   54.5343   47.3877   28.9387 O   0  0  0  0  0  0
   54.1515   45.4699   30.1399 O   0  0  0  0  0  0
   62.6896   47.1658   34.5650 C   0  0  0  0  0  0
   63.7923   47.8951   34.7477 F   0  0  0  0  0  0
   61.6400   47.8997   34.9377 F   0  0  0  0  0  0
   62.7547   46.0959   35.3566 F   0  0  0  0  0  0
   64.8283   45.3008   30.3517 C   0  0  0  0  0  0
   64.7758   43.9702   30.3182 F   0  0  0  0  0  0
   64.8085   45.7648   29.1007 F   0  0  0  0  0  0
   65.9702   45.6619   30.9403 F   0  0  0  0  0  0
   64.6722   46.2971   32.9168 H   0  0  0  0  0  0
   62.2982   45.4360   29.4603 H   0  0  0  0  0  0
   60.4417   46.9080   33.0221 H   0  0  0  0  0  0
   60.5480   46.6252   28.5124 H   0  0  0  0  0  0
   58.3969   46.3221   27.4526 H   0  0  0  0  0  0
   56.6862   45.1277   31.2158 H   0  0  0  0  0  0
   58.8240   45.4752   32.2842 H   0  0  0  0  0  0
   55.8494   44.4605   28.4568 H   0  0  0  0  0  0
   56.0287   45.9228   27.5488 H   0  0  0  0  0  0
   55.2110   47.7525   28.3646 H   0  0  0  0  0  0
  1  2  2  0  0  0
  1  6  1  0  0  0
  1 25  1  0  0  0
  2  3  1  0  0  0
  2 21  1  0  0  0
  3  4  2  0  0  0
  3 26  1  0  0  0
  4  5  1  0  0  0
  4  7  1  0  0  0
  5  6  2  0  0  0
  5 27  1  0  0  0
  6 17  1  0  0  0
  7  8  2  0  0  0
  7 12  1  0  0  0
  8  9  1  0  0  0
  8 28  1  0  0  0
  9 10  2  0  0  0
  9 29  1  0  0  0
 10 11  1  0  0  0
 10 13  1  0  0  0
 11 12  2  0  0  0
 11 30  1  0  0  0
 12 31  1  0  0  0
 13 14  1  0  0  0
 13 32  1  0  0  0
 13 33  1  0  0  0
 14 15  1  0  0  0
 14 16  2  0  0  0
 15 34  1  0  0  0
 17 18  1  0  0  0
 17 19  1  0  0  0
 17 20  1  0  0  0
 21 22  1  0  0  0
 21 23  1  0  0  0
 21 24  1  0  0  0
M  END
> <s_m_entry_id>
31138

> <s_m_entry_name>
dock_pv.351

> <s_m_Source_Path>
/home/csk/Desktop/cluster/DUD-E-result/rxra

> <s_m_Source_File>
dock_pv.maegz

> <i_m_Source_File_Index>
351

> <chembl_id>
CHEMBL4451817

> <chembl_pref_name>
None

> <i_lp_mmshare_version>
53161

> <r_lp_tautomer_probability>
1

> <s_lp_Force_Field>
OPLS_2005

> <r_lp_Energy>
15.641557

> <b_lp_Chiralities_Consistent>
1

> <s_lp_Variant>
CHEMBL2061_lig524 -1

> <s_i_glide_gridfile>
glide-grid_1mv9

> <i_i_glide_lignum>
624

> <i_i_glide_rotatable_bonds>
6

> <r_i_docking_score>
-9.27563640593596

> <r_i_glide_ligand_efficiency>
-0.386484850247331

> <r_i_glide_ligand_efficiency_sa>
-1.11481521721809

> <r_i_glide_ligand_efficiency_ln>
-2.22008542316064

> <r_i_glide_gscore>
-9.27563640593596

> <r_i_glide_lipo>
-3.81472520516606

> <r_i_glide_hbond>
-0.130610491836091

> <r_i_glide_metal>
0

> <r_i_glide_rewards>
-3.59185225858015

> <r_i_glide_evdw>
-34.0327415466309

> <r_i_glide_ecoul>
-3.38452410697937

> <r_i_glide_erotb>
0.470867243024797

> <r_i_glide_esite>
0

> <r_i_glide_emodel>
-57.0022526345121

> <r_i_glide_energy>
-37.4172656536102

> <r_i_glide_einternal>
2.12391352653503

> <i_i_glide_confnum>
3

> <i_i_glide_posenum>
236

> <r_i_glide_eff_state_penalty>
0

> <s_user_duplicate_titles>
CHEMBL2061_lig524 

> <i_f3d_flags>
0

> <s_m_subgroup_title>
dock_pv

> <s_m_subgroupid>
dock_pv

> <b_m_subgroup_collapsed>
1

$$$$
CHEMBL2061_lig531 
                    3D
 Schrodinger Suite 2021-1.
 37 38  0  0  1  0            999 V2000
   63.4569   46.4595   28.6323 C   0  0  0  0  0  0
   62.5671   47.3577   28.0277 C   0  0  0  0  0  0
   61.1919   47.2385   28.2735 C   0  0  0  0  0  0
   60.6969   46.2098   29.0846 C   0  0  0  0  0  0
   61.6080   45.3048   29.6216 C   0  0  0  0  0  0
   62.9801   45.4290   29.4351 C   0  0  0  0  0  0
   59.2471   46.0123   29.3593 C   0  0  0  0  0  0
   58.7967   45.6770   30.6391 C   0  0  0  0  0  0
   57.4562   45.3786   30.8743 C   0  0  0  0  0  0
   56.5216   45.4957   29.8407 C   0  0  0  0  0  0
   56.9655   45.8365   28.5597 C   0  0  0  0  0  0
   58.3176   46.0770   28.3296 C   0  0  0  0  0  0
   55.0595   45.2770   30.1092 C   0  0  0  0  0  0
   54.6335   44.4771   30.9390 O   0  0  0  0  0  0
   54.2555   46.1217   29.4058 O   0  0  0  0  0  0
   63.0545   48.4529   27.0913 C   0  0  0  0  0  0
   64.5680   48.4787   26.8284 C   0  0  0  0  0  0
   63.9350   44.4593   30.1130 C   0  0  0  0  0  0
   63.8053   43.0188   29.6029 C   0  0  0  0  0  0
   64.5229   46.5371   28.4794 H   0  0  0  0  0  0
   60.5064   47.9412   27.8216 H   0  0  0  0  0  0
   61.2195   44.4770   30.1721 H   0  0  0  0  0  0
   59.4917   45.6770   31.4657 H   0  0  0  0  0  0
   57.1476   45.1399   31.8806 H   0  0  0  0  0  0
   56.2827   45.8997   27.7243 H   0  0  0  0  0  0
   58.6611   46.3160   27.3390 H   0  0  0  0  0  0
   54.8080   46.7006   28.8766 H   0  0  0  0  0  0
   62.5448   48.3141   26.1390 H   0  0  0  0  0  0
   62.7322   49.4165   27.4864 H   0  0  0  0  0  0
   64.8080   49.2770   26.1390 H   0  0  0  0  0  0
   65.1352   48.6636   27.7389 H   0  0  0  0  0  0
   64.9210   47.5485   26.3815 H   0  0  0  0  0  0
   64.9645   44.7994   29.9875 H   0  0  0  0  0  0
   63.7451   44.4861   31.1870 H   0  0  0  0  0  0
   64.5127   42.3761   30.1268 H   0  0  0  0  0  0
   62.8079   42.6068   29.7390 H   0  0  0  0  0  0
   64.0080   42.9512   28.5381 H   0  0  0  0  0  0
  1  2  2  0  0  0
  1  6  1  0  0  0
  1 20  1  0  0  0
  2  3  1  0  0  0
  2 16  1  0  0  0
  3  4  2  0  0  0
  3 21  1  0  0  0
  4  5  1  0  0  0
  4  7  1  0  0  0
  5  6  2  0  0  0
  5 22  1  0  0  0
  6 18  1  0  0  0
  7  8  2  0  0  0
  7 12  1  0  0  0
  8  9  1  0  0  0
  8 23  1  0  0  0
  9 10  2  0  0  0
  9 24  1  0  0  0
 10 11  1  0  0  0
 10 13  1  0  0  0
 11 12  2  0  0  0
 11 25  1  0  0  0
 12 26  1  0  0  0
 13 14  2  0  0  0
 13 15  1  0  0  0
 15 27  1  0  0  0
 16 17  1  0  0  0
 16 28  1  0  0  0
 16 29  1  0  0  0
 17 30  1  0  0  0
 17 31  1  0  0  0
 17 32  1  0  0  0
 18 19  1  0  0  0
 18 33  1  0  0  0
 18 34  1  0  0  0
 19 35  1  0  0  0
 19 36  1  0  0  0
 19 37  1  0  0  0
M  END
> <s_m_entry_id>
31139

> <s_m_entry_name>
dock_pv.352

> <s_m_Source_Path>
/home/csk/Desktop/cluster/DUD-E-result/rxra

> <s_m_Source_File>
dock_pv.maegz

> <i_m_Source_File_Index>
352

> <chembl_id>
CHEMBL4514583

> <chembl_pref_name>
None

> <i_lp_mmshare_version>
53161

> <r_lp_tautomer_probability>
1

> <s_lp_Force_Field>
OPLS_2005

> <r_lp_Energy>
14.553266

> <b_lp_Chiralities_Consistent>
1

> <s_lp_Variant>
CHEMBL2061_lig531 -1

> <s_i_glide_gridfile>
glide-grid_1mv9

> <i_i_glide_lignum>
631

> <i_i_glide_rotatable_bonds>
5

> <r_i_docking_score>
-9.25741040411727

> <r_i_glide_ligand_efficiency>
-0.487232126532488

> <r_i_glide_ligand_efficiency_sa>
-1.30013100847354

> <r_i_glide_ligand_efficiency_ln>
-2.34695236838816

> <r_i_glide_gscore>
-9.25741040411727

> <r_i_glide_lipo>
-4.61262579298342

> <r_i_glide_hbond>
-0.225503920048791

> <r_i_glide_metal>
0

> <r_i_glide_rewards>
-2.75454443505732

> <r_i_glide_evdw>
-34.5406265258789

> <r_i_glide_ecoul>
-3.20978307723999

> <r_i_glide_erotb>
0.543762531852204

> <r_i_glide_esite>
0

> <r_i_glide_emodel>
-55.044225258145

> <r_i_glide_energy>
-37.7504096031189

> <r_i_glide_einternal>
5.03558254241943

> <i_i_glide_confnum>
2

> <i_i_glide_posenum>
11

> <r_i_glide_eff_state_penalty>
0

> <s_user_duplicate_titles>
CHEMBL2061_lig531 

> <i_f3d_flags>
0

> <s_m_subgroup_title>
dock_pv

> <s_m_subgroupid>
dock_pv

> <b_m_subgroup_collapsed>
1

$$$$
CHEMBL2061_lig283
                    3D
 Schrodinger Suite 2021-1.
 57 59  0  0  1  0            999 V2000
   62.2191   46.4140   32.4397 C   0  0  0  0  0  0
   63.3816   45.9921   31.7400 C   0  0  0  0  0  0
   60.9327   46.2755   30.3187 C   0  0  0  0  0  0
   59.5811   46.3308   29.6842 C   0  0  0  0  0  0
   61.0263   46.5058   31.6994 C   0  0  0  0  0  0
   63.2971   45.8128   30.3475 C   0  0  0  0  0  0
   62.1120   45.9638   29.6299 C   0  0  0  0  0  0
   58.6058   45.5347   30.1885 C   0  0  0  0  0  0
   64.7020   45.6158   32.4621 C   0  0  0  0  0  0
   62.2369   46.7156   33.9689 C   0  0  0  0  0  0
   54.0896   47.1075   28.4456 C   0  0  0  0  0  0
   54.9475   46.1651   29.2297 C   0  0  0  0  0  0
   57.1493   45.3916   29.9673 C   0  0  0  0  0  0
   56.3537   46.1936   29.1534 C   0  0  0  0  0  0
   63.4012   45.9400   34.6408 C   0  0  0  0  0  0
   64.7305   46.1543   33.9147 C   0  0  0  0  0  0
   52.9259   46.8801   28.1389 O   0  0  0  0  0  0
   54.6828   48.2608   28.1389 O   0  0  0  0  0  0
   59.3859   47.3330   28.5564 C   0  0  0  0  0  0
   62.1421   45.7008   28.1290 C   0  0  0  0  0  0
   54.3390   45.2361   30.0671 C   0  0  0  0  0  0
   62.4854   48.2220   34.2011 C   0  0  0  0  0  0
   60.9244   46.2620   34.6574 C   0  0  0  0  0  0
   64.8003   44.0713   32.5076 C   0  0  0  0  0  0
   65.8952   46.2623   31.7294 C   0  0  0  0  0  0
   55.1194   44.3990   30.8379 C   0  0  0  0  0  0
   56.5043   44.4573   30.7602 C   0  0  0  0  0  0
   60.1183   46.7508   32.2260 H   0  0  0  0  0  0
   64.1765   45.4967   29.8073 H   0  0  0  0  0  0
   58.9237   44.8735   30.9690 H   0  0  0  0  0  0
   56.8606   46.8870   28.5361 H   0  0  0  0  0  0
   63.1929   44.8726   34.6783 H   0  0  0  0  0  0
   63.5078   46.2386   35.6834 H   0  0  0  0  0  0
   65.5374   45.6815   34.4787 H   0  0  0  0  0  0
   64.9759   47.2178   33.9202 H   0  0  0  0  0  0
   55.5002   48.3970   28.6240 H   0  0  0  0  0  0
   60.3274   47.7880   28.2527 H   0  0  0  0  0  0
   58.9614   46.8422   27.6824 H   0  0  0  0  0  0
   58.7390   48.1533   28.8646 H   0  0  0  0  0  0
   62.2952   46.6338   27.5837 H   0  0  0  0  0  0
   62.9444   45.0114   27.8614 H   0  0  0  0  0  0
   61.2166   45.2427   27.7861 H   0  0  0  0  0  0
   53.2636   45.1525   30.1241 H   0  0  0  0  0  0
   62.8209   48.4378   35.2179 H   0  0  0  0  0  0
   63.2210   48.6165   33.5156 H   0  0  0  0  0  0
   61.6081   48.8284   34.0425 H   0  0  0  0  0  0
   61.0227   46.2345   35.7414 H   0  0  0  0  0  0
   60.0983   46.9402   34.4418 H   0  0  0  0  0  0
   60.6114   45.2792   34.3221 H   0  0  0  0  0  0
   65.7114   43.7528   33.0116 H   0  0  0  0  0  0
   63.9694   43.6073   33.0358 H   0  0  0  0  0  0
   64.8074   43.6434   31.5046 H   0  0  0  0  0  0
   66.8001   46.2986   32.3419 H   0  0  0  0  0  0
   66.1559   45.7155   30.8226 H   0  0  0  0  0  0
   65.6177   47.2756   31.4435 H   0  0  0  0  0  0
   54.6483   43.6679   31.4681 H   0  0  0  0  0  0
   57.0940   43.7656   31.3396 H   0  0  0  0  0  0
  1  2  2  0  0  0
  1  5  1  0  0  0
  1 10  1  0  0  0
  2  6  1  0  0  0
  2  9  1  0  0  0
  3  5  2  0  0  0
  3  4  1  0  0  0
  3  7  1  0  0  0
  4  8  2  0  0  0
  4 19  1  0  0  0
  5 28  1  0  0  0
  6  7  2  0  0  0
  6 29  1  0  0  0
  7 20  1  0  0  0
  8 13  1  0  0  0
  8 30  1  0  0  0
  9 24  1  0  0  0
  9 25  1  0  0  0
  9 16  1  0  0  0
 10 15  1  0  0  0
 10 22  1  0  0  0
 10 23  1  0  0  0
 11 12  1  0  0  0
 11 17  2  0  0  0
 11 18  1  0  0  0
 12 14  1  0  0  0
 12 21  2  0  0  0
 13 14  2  0  0  0
 13 27  1  0  0  0
 14 31  1  0  0  0
 15 16  1  0  0  0
 15 32  1  0  0  0
 15 33  1  0  0  0
 16 34  1  0  0  0
 16 35  1  0  0  0
 18 36  1  0  0  0
 19 37  1  0  0  0
 19 38  1  0  0  0
 19 39  1  0  0  0
 20 40  1  0  0  0
 20 41  1  0  0  0
 20 42  1  0  0  0
 21 26  1  0  0  0
 21 43  1  0  0  0
 22 44  1  0  0  0
 22 45  1  0  0  0
 22 46  1  0  0  0
 23 47  1  0  0  0
 23 48  1  0  0  0
 23 49  1  0  0  0
 24 50  1  0  0  0
 24 51  1  0  0  0
 24 52  1  0  0  0
 25 53  1  0  0  0
 25 54  1  0  0  0
 25 55  1  0  0  0
 26 27  2  0  0  0
 26 56  1  0  0  0
 27 57  1  0  0  0
M  END
> <s_m_entry_id>
31140

> <s_m_entry_name>
dock_pv.353

> <s_m_Source_Path>
/home/csk/Desktop/cluster/DUD-E-result/rxra

> <s_m_Source_File>
dock_pv.maegz

> <i_m_Source_File_Index>
353

> <chembl_id>
CHEMBL93985

> <chembl_pref_name>
None

> <i_lp_mmshare_version>
53161

> <r_lp_tautomer_probability>
1

> <s_lp_Force_Field>
OPLS_2005

> <r_lp_Energy>
33.992415

> <b_lp_Chiralities_Consistent>
1

> <s_lp_Variant>
CHEMBL2061_lig283-1

> <s_i_glide_gridfile>
glide-grid_1mv9

> <i_i_glide_lignum>
328

> <i_i_glide_rotatable_bonds>
4

> <r_i_docking_score>
-9.25212094744541

> <r_i_glide_ligand_efficiency>
-0.342671146201682

> <r_i_glide_ligand_efficiency_sa>
-1.02801343747566

> <r_i_glide_ligand_efficiency_ln>
-2.15374122343036

> <r_i_glide_gscore>
-9.25212094744541

> <r_i_glide_lipo>
-6.17275380166991

> <r_i_glide_hbond>
-0.206625398225455

> <r_i_glide_metal>
0

> <r_i_glide_rewards>
-1.70956243543816

> <r_i_glide_evdw>
-23.4368228912354

> <r_i_glide_ecoul>
-2.78174543380737

> <r_i_glide_erotb>
0.438387310214999

> <r_i_glide_esite>
-0.0124636626940055

> <r_i_glide_emodel>
-51.8084367356014

> <r_i_glide_energy>
-26.2185683250427

> <r_i_glide_einternal>
4.23268461227417

> <i_i_glide_confnum>
38

> <i_i_glide_posenum>
139

> <r_i_glide_eff_state_penalty>
0

> <s_user_duplicate_titles>
CHEMBL2061_lig283

> <i_f3d_flags>
0

> <s_m_subgroup_title>
dock_pv

> <s_m_subgroupid>
dock_pv

> <b_m_subgroup_collapsed>
1

$$$$
CHEMBL2061_lig526 
                    3D
 Schrodinger Suite 2021-1.
 55 56  0  0  1  0            999 V2000
   63.7110   46.1715   32.5364 C   0  0  0  0  0  0
   62.5792   46.6632   33.1971 C   0  0  0  0  0  0
   61.3550   46.6391   32.5048 C   0  0  0  0  0  0
   61.2604   46.1702   31.1847 C   0  0  0  0  0  0
   62.4121   45.6769   30.5794 C   0  0  0  0  0  0
   63.6390   45.6395   31.2465 C   0  0  0  0  0  0
   59.9639   46.0770   30.4549 C   0  0  0  0  0  0
   58.8080   45.6769   31.1271 C   0  0  0  0  0  0
   57.6258   45.4558   30.4426 C   0  0  0  0  0  0
   57.5281   45.7424   29.0794 C   0  0  0  0  0  0
   58.6711   46.1833   28.4042 C   0  0  0  0  0  0
   59.8781   46.3406   29.0822 C   0  0  0  0  0  0
   56.1988   45.5848   28.3259 C   0  0  0  0  0  0
   54.9644   46.1921   29.0267 C   0  0  0  0  0  0
   54.4195   45.3057   30.1505 C   0  0  0  0  0  0
   54.0081   44.0770   29.7390 O   0  0  0  0  0  0
   54.4080   45.6762   31.3163 O   0  0  0  0  0  0
   64.8499   44.9955   30.5521 C   0  0  0  0  0  0
   64.6474   43.4613   30.5392 C   0  0  0  0  0  0
   66.2013   45.2989   31.2502 C   0  0  0  0  0  0
   64.9368   45.5313   29.1078 C   0  0  0  0  0  0
   62.7190   47.1686   34.6574 C   0  0  0  0  0  0
   63.4190   48.5428   34.6443 C   0  0  0  0  0  0
   63.5819   46.1956   35.5055 C   0  0  0  0  0  0
   61.3600   47.3126   35.3890 C   0  0  0  0  0  0
   64.6564   46.1848   33.0502 H   0  0  0  0  0  0
   60.4520   46.9668   32.9911 H   0  0  0  0  0  0
   62.3269   45.2474   29.5934 H   0  0  0  0  0  0
   58.8302   45.4621   32.1858 H   0  0  0  0  0  0
   56.8046   45.0706   31.0173 H   0  0  0  0  0  0
   58.6424   46.3943   27.3439 H   0  0  0  0  0  0
   60.7499   46.6649   28.5330 H   0  0  0  0  0  0
   56.2889   46.0524   27.3453 H   0  0  0  0  0  0
   56.0081   44.5276   28.1381 H   0  0  0  0  0  0
   55.2320   47.1604   29.4495 H   0  0  0  0  0  0
   54.1765   46.4392   28.3150 H   0  0  0  0  0  0
   54.2499   43.8926   28.8266 H   0  0  0  0  0  0
   65.5146   42.9394   30.1390 H   0  0  0  0  0  0
   63.7867   43.1659   29.9374 H   0  0  0  0  0  0
   64.4806   43.0738   31.5457 H   0  0  0  0  0  0
   66.3779   46.3717   31.3389 H   0  0  0  0  0  0
   66.2538   44.8708   32.2518 H   0  0  0  0  0  0
   67.0367   44.8772   30.6882 H   0  0  0  0  0  0
   64.8304   46.6155   29.0661 H   0  0  0  0  0  0
   65.8897   45.2799   28.6582 H   0  0  0  0  0  0
   64.1622   45.1073   28.4723 H   0  0  0  0  0  0
   62.8490   49.2754   34.0719 H   0  0  0  0  0  0
   63.5538   48.9410   35.6513 H   0  0  0  0  0  0
   64.4086   48.4765   34.1915 H   0  0  0  0  0  0
   63.1860   45.1807   35.4945 H   0  0  0  0  0  0
   64.6186   46.1441   35.1752 H   0  0  0  0  0  0
   63.6290   46.5189   36.5415 H   0  0  0  0  0  0
   60.8079   46.3721   35.3943 H   0  0  0  0  0  0
   61.4916   47.6167   36.4283 H   0  0  0  0  0  0
   60.7287   48.0759   34.9389 H   0  0  0  0  0  0
  1  2  2  0  0  0
  1  6  1  0  0  0
  1 26  1  0  0  0
  2  3  1  0  0  0
  2 22  1  0  0  0
  3  4  2  0  0  0
  3 27  1  0  0  0
  4  5  1  0  0  0
  4  7  1  0  0  0
  5  6  2  0  0  0
  5 28  1  0  0  0
  6 18  1  0  0  0
  7  8  2  0  0  0
  7 12  1  0  0  0
  8  9  1  0  0  0
  8 29  1  0  0  0
  9 10  2  0  0  0
  9 30  1  0  0  0
 10 11  1  0  0  0
 10 13  1  0  0  0
 11 12  2  0  0  0
 11 31  1  0  0  0
 12 32  1  0  0  0
 13 14  1  0  0  0
 13 33  1  0  0  0
 13 34  1  0  0  0
 14 15  1  0  0  0
 14 35  1  0  0  0
 14 36  1  0  0  0
 15 16  1  0  0  0
 15 17  2  0  0  0
 16 37  1  0  0  0
 18 19  1  0  0  0
 18 20  1  0  0  0
 18 21  1  0  0  0
 19 38  1  0  0  0
 19 39  1  0  0  0
 19 40  1  0  0  0
 20 41  1  0  0  0
 20 42  1  0  0  0
 20 43  1  0  0  0
 21 44  1  0  0  0
 21 45  1  0  0  0
 21 46  1  0  0  0
 22 23  1  0  0  0
 22 24  1  0  0  0
 22 25  1  0  0  0
 23 47  1  0  0  0
 23 48  1  0  0  0
 23 49  1  0  0  0
 24 50  1  0  0  0
 24 51  1  0  0  0
 24 52  1  0  0  0
 25 53  1  0  0  0
 25 54  1  0  0  0
 25 55  1  0  0  0
M  END
> <s_m_entry_id>
31141

> <s_m_entry_name>
dock_pv.354

> <s_m_Source_Path>
/home/csk/Desktop/cluster/DUD-E-result/rxra

> <s_m_Source_File>
dock_pv.maegz

> <i_m_Source_File_Index>
354

> <chembl_id>
CHEMBL4464843

> <chembl_pref_name>
None

> <i_lp_mmshare_version>
53161

> <r_lp_tautomer_probability>
1

> <s_lp_Force_Field>
OPLS_2005

> <r_lp_Energy>
20.658321

> <b_lp_Chiralities_Consistent>
1

> <s_lp_Variant>
CHEMBL2061_lig526 -1

> <s_i_glide_gridfile>
glide-grid_1mv9

> <i_i_glide_lignum>
626

> <i_i_glide_rotatable_bonds>
7

> <r_i_docking_score>
-9.23947869347817

> <r_i_glide_ligand_efficiency>
-0.369579147739127

> <r_i_glide_ligand_efficiency_sa>
-1.0806559825033

> <r_i_glide_ligand_efficiency_ln>
-2.19003333518754

> <r_i_glide_gscore>
-9.23947869347817

> <r_i_glide_lipo>
-5.37277591296161

> <r_i_glide_hbond>
-0.156100495161898

> <r_i_glide_metal>
0

> <r_i_glide_rewards>
-1.93248014247677

> <r_i_glide_evdw>
-33.5877838134766

> <r_i_glide_ecoul>
-4.82857370376587

> <r_i_glide_erotb>
0.660292290304604

> <r_i_glide_esite>
-0.0347391869437869

> <r_i_glide_emodel>
-53.2062225960312

> <r_i_glide_energy>
-38.4163575172424

> <r_i_glide_einternal>
6.11456155776978

> <i_i_glide_confnum>
113

> <i_i_glide_posenum>
319

> <r_i_glide_eff_state_penalty>
0

> <s_user_duplicate_titles>
CHEMBL2061_lig526 

> <i_f3d_flags>
0

> <s_m_subgroup_title>
dock_pv

> <s_m_subgroupid>
dock_pv

> <b_m_subgroup_collapsed>
1

$$$$
CHEMBL2061_lig528
                    3D
 Schrodinger Suite 2021-1.
 31 32  0  0  1  0            999 V2000
   63.7725   48.0615   27.2002 C   0  0  0  0  0  0
   64.3842   44.6251   30.8476 C   0  0  0  0  0  0
   63.4803   45.4922   29.9710 C   0  0  0  0  0  0
   63.1689   47.1193   28.2164 C   0  0  0  0  0  0
   61.2096   46.2176   29.3583 C   0  0  0  0  0  0
   55.4672   45.3539   30.0402 C   0  0  0  0  0  0
   64.0080   46.3102   28.9805 C   0  0  0  0  0  0
   61.7774   47.0639   28.3988 C   0  0  0  0  0  0
   62.0966   45.4802   30.1510 C   0  0  0  0  0  0
   59.7238   46.0545   29.5259 C   0  0  0  0  0  0
   56.9469   45.5751   29.8419 C   0  0  0  0  0  0
   55.0040   44.6522   30.9389 O   0  0  0  0  0  0
   62.9886   48.0770   26.1390 F   0  0  0  0  0  0
   63.8282   49.2770   27.7390 F   0  0  0  0  0  0
   64.9948   47.6993   26.8095 F   0  0  0  0  0  0
   65.6798   44.8770   30.6497 F   0  0  0  0  0  0
   64.1127   44.8413   32.1349 F   0  0  0  0  0  0
   64.1650   43.3402   30.5692 F   0  0  0  0  0  0
   57.8243   45.3991   30.9133 C   0  0  0  0  0  0
   59.1787   45.6770   30.7588 C   0  0  0  0  0  0
   57.4712   45.9736   28.6059 C   0  0  0  0  0  0
   58.8397   46.2011   28.4512 C   0  0  0  0  0  0
   54.6830   46.0834   29.1989 O   0  0  0  0  0  0
   65.0777   46.3407   28.8243 H   0  0  0  0  0  0
   61.1378   47.6854   27.7885 H   0  0  0  0  0  0
   61.7042   44.8770   30.9390 H   0  0  0  0  0  0
   57.4592   45.1247   31.8928 H   0  0  0  0  0  0
   59.8032   45.6770   31.6384 H   0  0  0  0  0  0
   56.8365   46.0770   27.7390 H   0  0  0  0  0  0
   59.2107   46.4667   27.4722 H   0  0  0  0  0  0
   55.2287   46.6292   28.6316 H   0  0  0  0  0  0
  1  4  1  0  0  0
  1 13  1  0  0  0
  1 14  1  0  0  0
  1 15  1  0  0  0
  2  3  1  0  0  0
  2 16  1  0  0  0
  2 17  1  0  0  0
  2 18  1  0  0  0
  3  7  2  0  0  0
  3  9  1  0  0  0
  4  7  1  0  0  0
  4  8  2  0  0  0
  5  8  1  0  0  0
  5  9  2  0  0  0
  5 10  1  0  0  0
  6 11  1  0  0  0
  6 12  2  0  0  0
  6 23  1  0  0  0
  7 24  1  0  0  0
  8 25  1  0  0  0
  9 26  1  0  0  0
 10 20  1  0  0  0
 10 22  2  0  0  0
 11 21  2  0  0  0
 11 19  1  0  0  0
 19 20  2  0  0  0
 19 27  1  0  0  0
 20 28  1  0  0  0
 21 22  1  0  0  0
 21 29  1  0  0  0
 22 30  1  0  0  0
 23 31  1  0  0  0
M  END
> <s_m_entry_id>
31142

> <s_m_entry_name>
dock_pv.355

> <s_m_Source_Path>
/home/csk/Desktop/cluster/DUD-E-result/rxra

> <s_m_Source_File>
dock_pv.maegz

> <i_m_Source_File_Index>
355

> <chembl_id>
CHEMBL110563

> <chembl_pref_name>
None

> <i_lp_mmshare_version>
53161

> <r_lp_tautomer_probability>
1

> <s_lp_Force_Field>
OPLS_2005

> <r_lp_Energy>
13.943391

> <b_lp_Chiralities_Consistent>
1

> <s_lp_Variant>
CHEMBL2061_lig528-1

> <s_i_glide_gridfile>
glide-grid_1mv9

> <i_i_glide_lignum>
628

> <i_i_glide_rotatable_bonds>
5

> <r_i_docking_score>
-9.23268204163094

> <r_i_glide_ligand_efficiency>
-0.40142095833178

> <r_i_glide_ligand_efficiency_sa>
-1.14158780722697

> <r_i_glide_ligand_efficiency_ln>
-2.23254623499856

> <r_i_glide_gscore>
-9.23268204163094

> <r_i_glide_lipo>
-3.90556465491373

> <r_i_glide_hbond>
0

> <r_i_glide_metal>
0

> <r_i_glide_rewards>
-3.65809384505977

> <r_i_glide_evdw>
-31.7495040893555

> <r_i_glide_ecoul>
-2.79466915130615

> <r_i_glide_erotb>
0.337652035506263

> <r_i_glide_esite>
0

> <r_i_glide_emodel>
-49.4959120618162

> <r_i_glide_energy>
-34.5441732406616

> <r_i_glide_einternal>
2.28137850761414

> <i_i_glide_confnum>
6

> <i_i_glide_posenum>
276

> <r_i_glide_eff_state_penalty>
0

> <s_user_duplicate_titles>
CHEMBL2061_lig528

> <i_f3d_flags>
0

> <s_m_subgroup_title>
dock_pv

> <s_m_subgroupid>
dock_pv

> <b_m_subgroup_collapsed>
1

$$$$
CHEMBL2061_lig235
                    3D
 Schrodinger Suite 2021-1.
 40 42  0  0  1  0            999 V2000
   60.8165   47.0130   27.6278 C   0  0  0  0  0  0
   61.7049   46.6393   28.6288 C   0  0  0  0  0  0
   61.2082   46.1313   29.8257 C   0  0  0  0  0  0
   59.4597   46.7346   27.7690 C   0  0  0  0  0  0
   58.9477   46.2694   28.9797 C   0  0  0  0  0  0
   59.8242   46.0765   30.0343 C   0  0  0  0  0  0
   58.9990   45.9389   31.2309 C   0  0  0  0  0  0
   57.6361   45.7068   30.7510 C   0  0  0  0  0  0
   57.5764   45.9414   29.4206 C   0  0  0  0  0  0
   61.2629   47.6761   26.5395 F   0  0  0  0  0  0
   56.4520   45.3727   31.6330 C   0  0  0  0  0  0
   56.3810   45.9062   28.4495 C   0  0  0  0  0  0
   55.0253   46.4087   28.9764 C   0  0  0  0  0  0
   54.7459   47.6770   28.5713 O   0  0  0  0  0  0
   54.2635   45.7296   29.6643 O   0  0  0  0  0  0
   59.3597   46.0768   32.5288 C   0  0  0  0  0  0
   60.6151   46.4716   33.1870 C   0  0  0  0  0  0
   60.7630   46.0203   34.4903 C   0  0  0  0  0  0
   61.9128   46.2633   35.2063 C   0  0  0  0  0  0
   62.9267   47.0036   34.6247 C   0  0  0  0  0  0
   62.7729   47.5090   33.3389 C   0  0  0  0  0  0
   61.6085   47.2764   32.6287 C   0  0  0  0  0  0
   64.1878   47.2835   35.3921 C   0  0  0  0  0  0
   65.2140   47.3029   34.5395 F   0  0  0  0  0  0
   64.0092   48.4766   35.9546 F   0  0  0  0  0  0
   64.4119   46.3771   36.3454 F   0  0  0  0  0  0
   62.7657   46.7882   28.4962 H   0  0  0  0  0  0
   61.9132   45.8570   30.5940 H   0  0  0  0  0  0
   58.8083   46.9669   26.9568 H   0  0  0  0  0  0
   56.7612   45.2875   32.6599 H   0  0  0  0  0  0
   55.7086   46.1643   31.6262 H   0  0  0  0  0  0
   55.9843   44.4371   31.3312 H   0  0  0  0  0  0
   56.6061   46.4650   27.5490 H   0  0  0  0  0  0
   56.2373   44.8755   28.1397 H   0  0  0  0  0  0
   55.4909   48.1046   28.1437 H   0  0  0  0  0  0
   58.5763   45.9423   33.2546 H   0  0  0  0  0  0
   60.0088   45.3941   34.9388 H   0  0  0  0  0  0
   62.0207   45.8296   36.1810 H   0  0  0  0  0  0
   63.5676   48.0768   32.8972 H   0  0  0  0  0  0
   61.4874   47.7489   31.6673 H   0  0  0  0  0  0
  1  2  2  0  0  0
  1  4  1  0  0  0
  1 10  1  0  0  0
  2  3  1  0  0  0
  2 27  1  0  0  0
  3  6  2  0  0  0
  3 28  1  0  0  0
  4  5  2  0  0  0
  4 29  1  0  0  0
  5  6  1  0  0  0
  5  9  1  0  0  0
  6  7  1  0  0  0
  7  8  1  0  0  0
  7 16  2  0  0  0
  8  9  2  0  0  0
  8 11  1  0  0  0
  9 12  1  0  0  0
 11 30  1  0  0  0
 11 31  1  0  0  0
 11 32  1  0  0  0
 12 13  1  0  0  0
 12 33  1  0  0  0
 12 34  1  0  0  0
 13 14  1  0  0  0
 13 15  2  0  0  0
 14 35  1  0  0  0
 16 17  1  0  0  0
 16 36  1  0  0  0
 17 18  2  0  0  0
 17 22  1  0  0  0
 18 19  1  0  0  0
 18 37  1  0  0  0
 19 20  2  0  0  0
 19 38  1  0  0  0
 20 21  1  0  0  0
 20 23  1  0  0  0
 21 22  2  0  0  0
 21 39  1  0  0  0
 22 40  1  0  0  0
 23 24  1  0  0  0
 23 25  1  0  0  0
 23 26  1  0  0  0
M  END
> <s_m_entry_id>
31143

> <s_m_entry_name>
dock_pv.356

> <s_m_Source_Path>
/home/csk/Desktop/cluster/DUD-E-result/rxra

> <s_m_Source_File>
dock_pv.maegz

> <i_m_Source_File_Index>
356

> <chembl_id>
CHEMBL2337795

> <chembl_pref_name>
None

> <i_lp_mmshare_version>
53161

> <r_lp_tautomer_probability>
1

> <s_lp_Force_Field>
OPLS_2005

> <r_lp_Energy>
38.279424

> <b_lp_Chiralities_Consistent>
1

> <s_lp_Variant>
CHEMBL2061_lig235-1

> <s_i_glide_gridfile>
glide-grid_1mv9

> <i_i_glide_lignum>
274

> <i_i_glide_rotatable_bonds>
5

> <r_i_docking_score>
-9.21581844594671

> <r_i_glide_ligand_efficiency>
-0.354454555613335

> <r_i_glide_ligand_efficiency_sa>
-1.05007022629318

> <r_i_glide_ligand_efficiency_ln>
-2.16430472246381

> <r_i_glide_gscore>
-9.21581844594671

> <r_i_glide_lipo>
-4.71405742728764

> <r_i_glide_hbond>
-0.0213831325660863

> <r_i_glide_metal>
0

> <r_i_glide_rewards>
-3.45843156926558

> <r_i_glide_evdw>
-22.1433734893799

> <r_i_glide_ecoul>
-2.35712313652039

> <r_i_glide_erotb>
0.438790828119654

> <r_i_glide_esite>
0

> <r_i_glide_emodel>
-35.043604188193

> <r_i_glide_energy>
-24.5004966259003

> <r_i_glide_einternal>
5.45895528793335

> <i_i_glide_confnum>
30

> <i_i_glide_posenum>
150

> <r_i_glide_eff_state_penalty>
0

> <s_user_duplicate_titles>
CHEMBL2061_lig235

> <i_f3d_flags>
0

> <s_m_subgroup_title>
dock_pv

> <s_m_subgroupid>
dock_pv

> <b_m_subgroup_collapsed>
1

$$$$
CHEMBL2061_lig546 
                    3D
 Schrodinger Suite 2021-1.
 38 39  0  0  1  0            999 V2000
   61.2089   46.5367   30.9706 C   0  0  0  0  0  0
   62.0110   47.0750   29.9586 C   0  0  0  0  0  0
   61.4920   47.0650   28.6595 C   0  0  0  0  0  0
   60.2391   46.6070   28.3874 N   0  0  0  0  0  0
   59.5148   46.1481   29.4341 C   0  0  0  0  0  0
   59.9550   46.0770   30.7161 N   0  0  0  0  0  0
   61.6088   46.4771   32.3112 N   0  0  0  0  0  0
   62.8638   46.4003   32.9490 C   0  0  0  0  0  0
   62.9423   46.5269   34.3552 C   0  0  0  0  0  0
   64.1786   46.3271   35.0038 C   0  0  0  0  0  0
   65.3229   46.0476   34.2537 C   0  0  0  0  0  0
   65.2472   45.9249   32.8721 C   0  0  0  0  0  0
   64.0228   46.0767   32.2289 C   0  0  0  0  0  0
   61.6997   46.8595   35.1915 C   0  0  0  0  0  0
   64.2951   46.3426   36.5226 C   0  0  0  0  0  0
   57.8501   45.6770   29.0648 S   0  0  0  0  0  0
   57.0434   45.0441   30.5653 C   0  0  0  0  0  0
   55.5162   45.0821   30.4756 C   0  0  0  0  0  0
   55.0298   44.4799   29.3539 O   0  0  0  0  0  0
   54.8083   45.5921   31.3389 O   0  0  0  0  0  0
   62.2974   47.5657   27.4683 C   0  0  0  0  0  0
   63.1787   48.5030   27.8135 F   0  0  0  0  0  0
   62.9618   46.5407   26.9406 F   0  0  0  0  0  0
   61.4853   48.0770   26.5471 F   0  0  0  0  0  0
   62.9846   47.4906   30.1647 H   0  0  0  0  0  0
   60.8499   46.2145   32.9204 H   0  0  0  0  0  0
   66.2743   45.8929   34.7419 H   0  0  0  0  0  0
   66.1314   45.6779   32.3022 H   0  0  0  0  0  0
   63.9948   45.8982   31.1664 H   0  0  0  0  0  0
   61.9373   47.5911   35.9642 H   0  0  0  0  0  0
   60.8956   47.3107   34.6111 H   0  0  0  0  0  0
   61.3182   45.9652   35.6861 H   0  0  0  0  0  0
   64.0390   47.3202   36.9324 H   0  0  0  0  0  0
   63.6087   45.6053   36.9386 H   0  0  0  0  0  0
   65.2922   46.0770   36.8689 H   0  0  0  0  0  0
   57.3770   45.6137   31.4334 H   0  0  0  0  0  0
   57.3565   44.0112   30.7203 H   0  0  0  0  0  0
   55.7126   44.1385   28.7701 H   0  0  0  0  0  0
  1  2  2  0  0  0
  1  6  1  0  0  0
  1  7  1  0  0  0
  2  3  1  0  0  0
  2 25  1  0  0  0
  3  4  2  0  0  0
  3 21  1  0  0  0
  4  5  1  0  0  0
  5  6  2  0  0  0
  5 16  1  0  0  0
  7  8  1  0  0  0
  7 26  1  0  0  0
  8  9  2  0  0  0
  8 13  1  0  0  0
  9 10  1  0  0  0
  9 14  1  0  0  0
 10 11  2  0  0  0
 10 15  1  0  0  0
 11 12  1  0  0  0
 11 27  1  0  0  0
 12 13  2  0  0  0
 12 28  1  0  0  0
 13 29  1  0  0  0
 14 30  1  0  0  0
 14 31  1  0  0  0
 14 32  1  0  0  0
 15 33  1  0  0  0
 15 34  1  0  0  0
 15 35  1  0  0  0
 16 17  1  0  0  0
 17 18  1  0  0  0
 17 36  1  0  0  0
 17 37  1  0  0  0
 18 19  1  0  0  0
 18 20  2  0  0  0
 19 38  1  0  0  0
 21 22  1  0  0  0
 21 23  1  0  0  0
 21 24  1  0  0  0
M  END
> <s_m_entry_id>
31144

> <s_m_entry_name>
dock_pv.357

> <s_m_Source_Path>
/home/csk/Desktop/cluster/DUD-E-result/rxra

> <s_m_Source_File>
dock_pv.maegz

> <i_m_Source_File_Index>
357

> <chembl_id>
CHEMBL4548975

> <chembl_pref_name>
None

> <i_lp_mmshare_version>
53161

> <r_lp_tautomer_probability>
0.999999998296584

> <s_lp_Force_Field>
OPLS_2005

> <r_lp_Energy>
5.56349

> <b_lp_Chiralities_Consistent>
1

> <s_lp_Variant>
CHEMBL2061_lig546 -1

> <s_i_glide_gridfile>
glide-grid_1mv9

> <i_i_glide_lignum>
646

> <i_i_glide_rotatable_bonds>
7

> <r_i_docking_score>
-9.20518492709339

> <r_i_glide_ligand_efficiency>
-0.383549371962225

> <r_i_glide_ligand_efficiency_sa>
-1.10634783263638

> <r_i_glide_ligand_efficiency_ln>
-2.2032231514659

> <r_i_glide_gscore>
-9.20518492709339

> <r_i_glide_lipo>
-4.0346031360461

> <r_i_glide_hbond>
-0.0894601309793824

> <r_i_glide_metal>
0

> <r_i_glide_rewards>
-3.11148663675529

> <r_i_glide_evdw>
-42.6901702880859

> <r_i_glide_ecoul>
-3.89771890640259

> <r_i_glide_erotb>
0.74953132705207

> <r_i_glide_esite>
0

> <r_i_glide_emodel>
-68.9796773830516

> <r_i_glide_energy>
-46.5878891944885

> <r_i_glide_einternal>
4.4529275894165

> <i_i_glide_confnum>
162

> <i_i_glide_posenum>
370

> <r_i_glide_eff_state_penalty>
0

> <s_user_duplicate_titles>
CHEMBL2061_lig546 

> <i_f3d_flags>
0

> <s_m_subgroup_title>
dock_pv

> <s_m_subgroupid>
dock_pv

> <b_m_subgroup_collapsed>
1

$$$$
CHEMBL2061_lig505
                    3D
 Schrodinger Suite 2021-1.
 60 61  0  0  1  0            999 V2000
   63.5957   46.1006   30.3267 C   0  0  0  0  0  0
   62.4069   46.5643   29.8597 C   0  0  0  0  0  0
   61.9571   46.7542   28.4792 C   0  0  0  0  0  0
   60.6537   46.5628   28.1673 C   0  0  0  0  0  0
   62.8938   47.2740   27.3955 C   0  0  0  0  0  0
   59.6053   46.1146   29.0775 C   0  0  0  0  0  0
   58.3057   46.1377   28.7356 C   0  0  0  0  0  0
   57.1724   45.7736   29.5782 C   0  0  0  0  0  0
   55.9498   45.9786   29.0233 C   0  0  0  0  0  0
   57.4067   45.2760   31.0070 C   0  0  0  0  0  0
   54.6500   45.7596   29.6010 C   0  0  0  0  0  0
   54.5726   44.6489   30.3849 O   0  0  0  0  0  0
   53.6836   46.4770   29.3414 O   0  0  0  0  0  0
   64.7062   45.6797   29.3532 C   0  0  0  0  0  0
   65.8176   44.8763   30.0326 C   0  0  0  0  0  0
   66.2436   45.4778   31.3663 C   0  0  0  0  0  0
   63.8320   45.9684   31.7888 C   0  0  0  0  0  0
   65.0525   45.6329   32.2856 C   0  0  0  0  0  0
   62.7075   46.2253   32.7872 C   0  0  0  0  0  0
   62.6606   47.6894   33.2372 C   0  0  0  0  0  0
   65.4033   45.6168   33.7759 C   0  0  0  0  0  0
   64.8104   44.6333   34.7752 C   0  0  0  0  0  0
   66.2241   44.4679   34.3063 C   0  0  0  0  0  0
   61.9495   47.9229   34.5741 C   0  0  0  0  0  0
   62.8771   47.8143   35.7968 C   0  0  0  0  0  0
   60.6843   47.0836   34.7444 C   0  0  0  0  0  0
   61.6682   46.8634   30.5819 H   0  0  0  0  0  0
   60.3565   46.7591   27.1463 H   0  0  0  0  0  0
   63.5748   48.0119   27.8208 H   0  0  0  0  0  0
   63.4856   46.4771   26.9493 H   0  0  0  0  0  0
   62.3528   47.8031   26.6093 H   0  0  0  0  0  0
   59.8784   45.7597   30.0598 H   0  0  0  0  0  0
   58.0866   46.4767   27.7387 H   0  0  0  0  0  0
   55.8708   46.3827   28.0232 H   0  0  0  0  0  0
   58.1465   45.9156   31.4879 H   0  0  0  0  0  0
   56.5407   45.3387   31.6616 H   0  0  0  0  0  0
   57.8331   44.2729   31.0068 H   0  0  0  0  0  0
   55.4185   44.1951   30.3842 H   0  0  0  0  0  0
   64.2989   45.0785   28.5401 H   0  0  0  0  0  0
   65.1477   46.5552   28.8794 H   0  0  0  0  0  0
   65.4852   43.8472   30.1780 H   0  0  0  0  0  0
   66.6878   44.8400   29.3783 H   0  0  0  0  0  0
   66.6989   46.4551   31.2294 H   0  0  0  0  0  0
   66.9963   44.8459   31.8193 H   0  0  0  0  0  0
   61.7459   45.9130   32.3860 H   0  0  0  0  0  0
   62.8071   45.5869   33.6571 H   0  0  0  0  0  0
   63.6740   48.0746   33.3389 H   0  0  0  0  0  0
   62.1957   48.2924   32.4553 H   0  0  0  0  0  0
   65.6585   46.6004   34.1731 H   0  0  0  0  0  0
   64.6370   44.9596   35.7999 H   0  0  0  0  0  0
   64.0717   43.9031   34.4425 H   0  0  0  0  0  0
   66.4080   43.5944   33.6848 H   0  0  0  0  0  0
   67.0676   44.7350   34.9386 H   0  0  0  0  0  0
   61.6079   48.9479   34.5328 H   0  0  0  0  0  0
   63.2599   46.8030   35.9197 H   0  0  0  0  0  0
   63.7314   48.4881   35.7153 H   0  0  0  0  0  0
   62.3427   48.0768   36.7093 H   0  0  0  0  0  0
   60.8685   46.1320   35.2451 H   0  0  0  0  0  0
   60.0080   47.6784   35.3389 H   0  0  0  0  0  0
   60.1738   46.8765   33.8032 H   0  0  0  0  0  0
  1  2  2  0  0  0
  1 14  1  0  0  0
  1 17  1  0  0  0
  2  3  1  0  0  0
  2 27  1  0  0  0
  3  4  2  0  0  0
  3  5  1  0  0  0
  4  6  1  0  0  0
  4 28  1  0  0  0
  5 29  1  0  0  0
  5 30  1  0  0  0
  5 31  1  0  0  0
  6  7  2  0  0  0
  6 32  1  0  0  0
  7  8  1  0  0  0
  7 33  1  0  0  0
  8  9  2  0  0  0
  8 10  1  0  0  0
  9 11  1  0  0  0
  9 34  1  0  0  0
 10 35  1  0  0  0
 10 36  1  0  0  0
 10 37  1  0  0  0
 11 12  1  0  0  0
 11 13  2  0  0  0
 12 38  1  0  0  0
 14 15  1  0  0  0
 14 39  1  0  0  0
 14 40  1  0  0  0
 15 16  1  0  0  0
 15 41  1  0  0  0
 15 42  1  0  0  0
 16 18  1  0  0  0
 16 43  1  0  0  0
 16 44  1  0  0  0
 17 18  2  0  0  0
 17 19  1  0  0  0
 18 21  1  0  0  0
 19 20  1  0  0  0
 19 45  1  0  0  0
 19 46  1  0  0  0
 20 24  1  0  0  0
 20 47  1  0  0  0
 20 48  1  0  0  0
 21 22  1  0  0  0
 21 23  1  0  0  0
 21 49  1  0  0  0
 22 23  1  0  0  0
 22 50  1  0  0  0
 22 51  1  0  0  0
 23 52  1  0  0  0
 23 53  1  0  0  0
 24 25  1  0  0  0
 24 26  1  0  0  0
 24 54  1  0  0  0
 25 55  1  0  0  0
 25 56  1  0  0  0
 25 57  1  0  0  0
 26 58  1  0  0  0
 26 59  1  0  0  0
 26 60  1  0  0  0
M  END
> <s_m_entry_id>
31145

> <s_m_entry_name>
dock_pv.358

> <s_m_Source_Path>
/home/csk/Desktop/cluster/DUD-E-result/rxra

> <s_m_Source_File>
dock_pv.maegz

> <i_m_Source_File_Index>
358

> <chembl_id>
CHEMBL3622723

> <chembl_pref_name>
None

> <i_lp_mmshare_version>
53161

> <r_lp_tautomer_probability>
1

> <s_lp_Force_Field>
OPLS_2005

> <r_lp_Energy>
37.674881

> <b_lp_Chiralities_Consistent>
1

> <s_lp_Variant>
CHEMBL2061_lig505-1

> <s_i_glide_gridfile>
glide-grid_1mv9

> <i_i_glide_lignum>
598

> <i_i_glide_rotatable_bonds>
9

> <r_i_docking_score>
-9.18774626418971

> <r_i_glide_ligand_efficiency>
-0.353374856314989

> <r_i_glide_ligand_efficiency_sa>
-1.04687162137024

> <r_i_glide_ligand_efficiency_ln>
-2.15771206269052

> <r_i_glide_gscore>
-9.18774626418971

> <r_i_glide_lipo>
-6.05574054762264

> <r_i_glide_hbond>
-0.235536529656948

> <r_i_glide_metal>
0

> <r_i_glide_rewards>
-1.51929925135822

> <r_i_glide_evdw>
-36.5478744506836

> <r_i_glide_ecoul>
-4.09374666213989

> <r_i_glide_erotb>
1.06428578630325

> <r_i_glide_esite>
0

> <r_i_glide_emodel>
-52.5709980198307

> <r_i_glide_energy>
-40.6416211128235

> <r_i_glide_einternal>
4.41659069061279

> <i_i_glide_confnum>
217

> <i_i_glide_posenum>
112

> <r_i_glide_eff_state_penalty>
0

> <s_user_duplicate_titles>
CHEMBL2061_lig505

> <i_f3d_flags>
0

> <s_m_subgroup_title>
dock_pv

> <s_m_subgroupid>
dock_pv

> <b_m_subgroup_collapsed>
1

$$$$
CHEMBL2061_lig525 
                    3D
 Schrodinger Suite 2021-1.
 49 50  0  0  1  0            999 V2000
   63.6537   46.0201   32.5895 C   0  0  0  0  0  0
   62.4883   46.4987   33.2005 C   0  0  0  0  0  0
   61.3022   46.5098   32.4425 C   0  0  0  0  0  0
   61.2788   46.0771   31.1106 C   0  0  0  0  0  0
   62.4619   45.6014   30.5530 C   0  0  0  0  0  0
   63.6507   45.5371   31.2809 C   0  0  0  0  0  0
   60.0464   46.0782   30.2779 C   0  0  0  0  0  0
   58.7929   45.6770   30.7700 C   0  0  0  0  0  0
   57.6527   45.6770   29.9460 C   0  0  0  0  0  0
   57.7899   46.0733   28.6133 C   0  0  0  0  0  0
   59.0277   46.4770   28.1247 C   0  0  0  0  0  0
   60.1391   46.4906   28.9468 C   0  0  0  0  0  0
   64.9030   44.9351   30.6251 C   0  0  0  0  0  0
   64.7380   43.3981   30.5745 C   0  0  0  0  0  0
   66.2221   45.2762   31.3658 C   0  0  0  0  0  0
   65.0303   45.4910   29.1952 C   0  0  0  0  0  0
   62.5304   46.9759   34.6741 C   0  0  0  0  0  0
   63.6087   46.2298   35.5096 C   0  0  0  0  0  0
   61.1750   46.7548   35.3893 C   0  0  0  0  0  0
   62.8689   48.4769   34.6884 C   0  0  0  0  0  0
   56.2958   45.2769   30.4601 C   0  0  0  0  0  0
   56.0570   45.6770   31.7387 O   0  0  0  0  0  0
   55.4438   44.7396   29.7548 O   0  0  0  0  0  0
   64.5739   46.0031   33.1427 H   0  0  0  0  0  0
   60.3826   46.8684   32.8703 H   0  0  0  0  0  0
   62.4301   45.2120   29.5481 H   0  0  0  0  0  0
   58.7216   45.3545   31.7997 H   0  0  0  0  0  0
   56.9376   46.0767   27.9477 H   0  0  0  0  0  0
   59.1449   46.7838   27.0995 H   0  0  0  0  0  0
   61.0826   46.8210   28.5361 H   0  0  0  0  0  0
   65.6077   42.9094   30.1390 H   0  0  0  0  0  0
   63.8722   43.0992   29.9820 H   0  0  0  0  0  0
   64.6015   42.9817   31.5734 H   0  0  0  0  0  0
   66.3665   46.3537   31.4579 H   0  0  0  0  0  0
   66.2588   44.8444   32.3666 H   0  0  0  0  0  0
   67.0839   44.8769   30.8277 H   0  0  0  0  0  0
   64.8847   46.5708   29.1584 H   0  0  0  0  0  0
   66.0079   45.2770   28.7877 H   0  0  0  0  0  0
   64.3021   45.0405   28.5278 H   0  0  0  0  0  0
   64.6241   46.4309   35.1709 H   0  0  0  0  0  0
   63.6073   46.5540   36.5442 H   0  0  0  0  0  0
   63.4576   45.1494   35.4955 H   0  0  0  0  0  0
   60.3809   47.3505   34.9424 H   0  0  0  0  0  0
   60.8673   45.7069   35.3582 H   0  0  0  0  0  0
   61.2077   47.0532   36.4370 H   0  0  0  0  0  0
   62.1321   49.0481   34.1255 H   0  0  0  0  0  0
   62.8965   48.8708   35.7051 H   0  0  0  0  0  0
   63.8439   48.6682   34.2398 H   0  0  0  0  0  0
   56.7907   46.1976   32.0746 H   0  0  0  0  0  0
  1  2  2  0  0  0
  1  6  1  0  0  0
  1 24  1  0  0  0
  2  3  1  0  0  0
  2 17  1  0  0  0
  3  4  2  0  0  0
  3 25  1  0  0  0
  4  5  1  0  0  0
  4  7  1  0  0  0
  5  6  2  0  0  0
  5 26  1  0  0  0
  6 13  1  0  0  0
  7  8  2  0  0  0
  7 12  1  0  0  0
  8  9  1  0  0  0
  8 27  1  0  0  0
  9 10  2  0  0  0
  9 21  1  0  0  0
 10 11  1  0  0  0
 10 28  1  0  0  0
 11 12  2  0  0  0
 11 29  1  0  0  0
 12 30  1  0  0  0
 13 14  1  0  0  0
 13 15  1  0  0  0
 13 16  1  0  0  0
 14 31  1  0  0  0
 14 32  1  0  0  0
 14 33  1  0  0  0
 15 34  1  0  0  0
 15 35  1  0  0  0
 15 36  1  0  0  0
 16 37  1  0  0  0
 16 38  1  0  0  0
 16 39  1  0  0  0
 17 18  1  0  0  0
 17 19  1  0  0  0
 17 20  1  0  0  0
 18 40  1  0  0  0
 18 41  1  0  0  0
 18 42  1  0  0  0
 19 43  1  0  0  0
 19 44  1  0  0  0
 19 45  1  0  0  0
 20 46  1  0  0  0
 20 47  1  0  0  0
 20 48  1  0  0  0
 21 22  1  0  0  0
 21 23  2  0  0  0
 22 49  1  0  0  0
M  END
> <s_m_entry_id>
31146

> <s_m_entry_name>
dock_pv.359

> <s_m_Source_Path>
/home/csk/Desktop/cluster/DUD-E-result/rxra

> <s_m_Source_File>
dock_pv.maegz

> <i_m_Source_File_Index>
359

> <chembl_id>
CHEMBL4472137

> <chembl_pref_name>
None

> <i_lp_mmshare_version>
53161

> <r_lp_tautomer_probability>
1

> <s_lp_Force_Field>
OPLS_2005

> <r_lp_Energy>
21.080373

> <b_lp_Chiralities_Consistent>
1

> <s_lp_Variant>
CHEMBL2061_lig525 -1

> <s_i_glide_gridfile>
glide-grid_1mv9

> <i_i_glide_lignum>
625

> <i_i_glide_rotatable_bonds>
5

> <r_i_docking_score>
-9.18747927406749

> <r_i_glide_ligand_efficiency>
-0.39945562061163

> <r_i_glide_ligand_efficiency_sa>
-1.13599864818622

> <r_i_glide_ligand_efficiency_ln>
-2.22161579592568

> <r_i_glide_gscore>
-9.18747927406749

> <r_i_glide_lipo>
-5.06143513215931

> <r_i_glide_hbond>
0

> <r_i_glide_metal>
0

> <r_i_glide_rewards>
-2.56742204456476

> <r_i_glide_evdw>
-33.6390495300293

> <r_i_glide_ecoul>
-1.74170398712158

> <r_i_glide_erotb>
0.384585977226286

> <r_i_glide_esite>
0

> <r_i_glide_emodel>
-48.1529906194805

> <r_i_glide_energy>
-35.3807535171509

> <r_i_glide_einternal>
5.64228582382202

> <i_i_glide_confnum>
2

> <i_i_glide_posenum>
223

> <r_i_glide_eff_state_penalty>
0

> <s_user_duplicate_titles>
CHEMBL2061_lig525 

> <i_f3d_flags>
0

> <s_m_subgroup_title>
dock_pv

> <s_m_subgroupid>
dock_pv

> <b_m_subgroup_collapsed>
1

$$$$
CHEMBL2061_lig136
                    3D
 Schrodinger Suite 2021-1.
 58 58  0  0  1  0            999 V2000
   62.6838   46.1985   31.0329 C   0  0  0  0  0  0
   63.7979   45.4013   31.3997 C   0  0  0  0  0  0
   64.1578   45.2776   32.7622 C   0  0  0  0  0  0
   61.9129   46.7754   32.0533 C   0  0  0  0  0  0
   63.3837   45.8963   33.7278 C   0  0  0  0  0  0
   62.2286   46.5814   33.3968 C   0  0  0  0  0  0
   62.2880   46.4409   29.6087 C   0  0  0  0  0  0
   56.1992   45.8487   29.2645 C   0  0  0  0  0  0
   54.8458   45.6766   29.7419 C   0  0  0  0  0  0
   59.8276   45.9300   29.8342 C   0  0  0  0  0  0
   57.3432   45.6803   29.9774 C   0  0  0  0  0  0
   61.0288   46.3258   29.1151 C   0  0  0  0  0  0
   58.5965   45.9841   29.2859 C   0  0  0  0  0  0
   54.4534   44.8229   30.5360 O   0  0  0  0  0  0
   65.3524   44.4927   33.3058 C   0  0  0  0  0  0
   61.3528   47.1259   34.5077 C   0  0  0  0  0  0
   64.5477   44.7757   30.4305 O   0  0  0  0  0  0
   54.0259   46.6177   29.1967 O   0  0  0  0  0  0
   62.0336   43.4316   28.9388 F   0  0  0  0  0  0
   63.3764   46.9356   28.6624 C   0  0  0  0  0  0
   57.3725   45.2771   31.4524 C   0  0  0  0  0  0
   63.3537   43.3941   28.7861 C   0  0  0  0  0  0
   64.1563   43.4456   30.0905 C   0  0  0  0  0  0
   66.6885   44.9276   32.7206 C   0  0  0  0  0  0
   65.1189   42.9750   33.3672 C   0  0  0  0  0  0
   61.8850   48.4766   34.9779 C   0  0  0  0  0  0
   61.1739   46.1527   35.6896 C   0  0  0  0  0  0
   61.0523   47.3776   31.8044 H   0  0  0  0  0  0
   63.6804   45.8180   34.7610 H   0  0  0  0  0  0
   56.2576   46.1552   28.2290 H   0  0  0  0  0  0
   59.9293   45.5967   30.8532 H   0  0  0  0  0  0
   60.8982   46.5602   28.0676 H   0  0  0  0  0  0
   58.5380   46.2986   28.2519 H   0  0  0  0  0  0
   65.4758   44.7671   34.3563 H   0  0  0  0  0  0
   60.3547   47.2658   34.1007 H   0  0  0  0  0  0
   54.5241   47.2054   28.6245 H   0  0  0  0  0  0
   63.2565   48.0086   28.5292 H   0  0  0  0  0  0
   64.3862   46.7632   29.0280 H   0  0  0  0  0  0
   63.2901   46.4745   27.6780 H   0  0  0  0  0  0
   58.0202   45.9580   32.0043 H   0  0  0  0  0  0
   56.4108   45.3340   31.9573 H   0  0  0  0  0  0
   57.8088   44.2842   31.5643 H   0  0  0  0  0  0
   63.6095   44.2279   28.1412 H   0  0  0  0  0  0
   63.5646   42.4766   28.2428 H   0  0  0  0  0  0
   65.0770   42.8742   29.9726 H   0  0  0  0  0  0
   63.6079   42.9382   30.8760 H   0  0  0  0  0  0
   66.8040   46.0111   32.7581 H   0  0  0  0  0  0
   67.4794   44.4965   33.3380 H   0  0  0  0  0  0
   66.8080   44.6194   31.6821 H   0  0  0  0  0  0
   64.2946   42.7351   34.0388 H   0  0  0  0  0  0
   64.8939   42.5131   32.4179 H   0  0  0  0  0  0
   66.0092   42.4778   33.7390 H   0  0  0  0  0  0
   61.9551   49.1724   34.1387 H   0  0  0  0  0  0
   61.2099   48.8766   35.7317 H   0  0  0  0  0  0
   62.8755   48.3920   35.4284 H   0  0  0  0  0  0
   60.4544   45.3719   35.4423 H   0  0  0  0  0  0
   62.0849   45.6771   36.0426 H   0  0  0  0  0  0
   60.8078   46.6990   36.5454 H   0  0  0  0  0  0
  1  2  1  0  0  0
  1  4  2  0  0  0
  1  7  1  0  0  0
  2  3  2  0  0  0
  2 17  1  0  0  0
  3 15  1  0  0  0
  3  5  1  0  0  0
  4  6  1  0  0  0
  4 28  1  0  0  0
  5  6  2  0  0  0
  5 29  1  0  0  0
  6 16  1  0  0  0
  7 12  2  0  0  0
  7 20  1  0  0  0
  8 11  2  0  0  0
  8  9  1  0  0  0
  8 30  1  0  0  0
  9 14  2  0  0  0
  9 18  1  0  0  0
 10 12  1  0  0  0
 10 13  2  0  0  0
 10 31  1  0  0  0
 11 13  1  0  0  0
 11 21  1  0  0  0
 12 32  1  0  0  0
 13 33  1  0  0  0
 15 24  1  0  0  0
 15 25  1  0  0  0
 15 34  1  0  0  0
 16 26  1  0  0  0
 16 27  1  0  0  0
 16 35  1  0  0  0
 17 23  1  0  0  0
 18 36  1  0  0  0
 19 22  1  0  0  0
 20 37  1  0  0  0
 20 38  1  0  0  0
 20 39  1  0  0  0
 21 40  1  0  0  0
 21 41  1  0  0  0
 21 42  1  0  0  0
 22 23  1  0  0  0
 22 43  1  0  0  0
 22 44  1  0  0  0
 23 45  1  0  0  0
 23 46  1  0  0  0
 24 47  1  0  0  0
 24 48  1  0  0  0
 24 49  1  0  0  0
 25 50  1  0  0  0
 25 51  1  0  0  0
 25 52  1  0  0  0
 26 53  1  0  0  0
 26 54  1  0  0  0
 26 55  1  0  0  0
 27 56  1  0  0  0
 27 57  1  0  0  0
 27 58  1  0  0  0
M  END
> <s_m_entry_id>
31147

> <s_m_entry_name>
dock_pv.360

> <s_m_Source_Path>
/home/csk/Desktop/cluster/DUD-E-result/rxra

> <s_m_Source_File>
dock_pv.maegz

> <i_m_Source_File_Index>
360

> <chembl_id>
CHEMBL92430

> <chembl_pref_name>
None

> <i_lp_mmshare_version>
53161

> <r_lp_tautomer_probability>
1

> <s_lp_Force_Field>
OPLS_2005

> <r_lp_Energy>
27.466461

> <b_lp_Chiralities_Consistent>
1

> <s_lp_Variant>
CHEMBL2061_lig136-1

> <s_i_glide_gridfile>
glide-grid_1mv9

> <i_i_glide_lignum>
175

> <i_i_glide_rotatable_bonds>
10

> <r_i_docking_score>
-9.17918813195607

> <r_i_glide_ligand_efficiency>
-0.339969930813188

> <r_i_glide_ligand_efficiency_sa>
-1.01990979131908

> <r_i_glide_ligand_efficiency_ln>
-2.13676366637588

> <r_i_glide_gscore>
-9.17918813195607

> <r_i_glide_lipo>
-5.26605619992244

> <r_i_glide_hbond>
-0.123847261893243

> <r_i_glide_metal>
0

> <r_i_glide_rewards>
-2.06791493471997

> <r_i_glide_evdw>
-40.6205139160156

> <r_i_glide_ecoul>
-3.45082592964172

> <r_i_glide_erotb>
0.827279849826614

> <r_i_glide_esite>
0

> <r_i_glide_emodel>
-53.0238036855623

> <r_i_glide_energy>
-44.0713398456573

> <r_i_glide_einternal>
5.18529653549194

> <i_i_glide_confnum>
45

> <i_i_glide_posenum>
164

> <r_i_glide_eff_state_penalty>
0

> <s_user_duplicate_titles>
CHEMBL2061_lig136,146688

> <i_f3d_flags>
0

> <s_m_subgroup_title>
dock_pv

> <s_m_subgroupid>
dock_pv

> <b_m_subgroup_collapsed>
1

$$$$
CHEMBL2061_lig412
                    3D
 Schrodinger Suite 2021-1.
 62 63  0  0  1  0            999 V2000
   62.1233   47.6804   32.2687 C   0  0  0  0  0  0
   61.8591   47.6597   30.9119 C   0  0  0  0  0  0
   62.4722   46.7212   30.1032 C   0  0  0  0  0  0
   63.3861   45.8292   30.6738 C   0  0  0  0  0  0
   63.0392   46.8049   32.8722 C   0  0  0  0  0  0
   63.6876   45.8379   32.0516 C   0  0  0  0  0  0
   64.7264   44.8435   32.6308 C   0  0  0  0  0  0
   64.5119   44.6773   34.1589 C   0  0  0  0  0  0
   64.4238   46.0156   34.8886 C   0  0  0  0  0  0
   63.2543   46.9186   34.4019 C   0  0  0  0  0  0
   62.0523   46.6496   28.7614 N   0  0  0  0  0  0
   61.0865   45.5838   28.5202 C   0  0  0  0  0  0
   59.8946   45.5055   29.4660 C   0  0  0  0  0  0
   58.6134   45.6834   29.0955 C   0  0  0  0  0  0
   57.4569   45.5846   29.9801 C   0  0  0  0  0  0
   56.2402   45.7094   29.3912 C   0  0  0  0  0  0
   57.6603   45.3982   31.4883 C   0  0  0  0  0  0
   54.9490   45.6240   30.0217 C   0  0  0  0  0  0
   54.8534   44.6077   30.9228 O   0  0  0  0  0  0
   54.0081   46.3533   29.7255 O   0  0  0  0  0  0
   63.0898   46.7907   27.7442 C   0  0  0  0  0  0
   63.4918   48.2557   27.5227 C   0  0  0  0  0  0
   64.5677   43.4206   32.0359 C   0  0  0  0  0  0
   66.1367   45.4182   32.3635 C   0  0  0  0  0  0
   63.6649   48.3632   34.7540 C   0  0  0  0  0  0
   61.9346   46.5030   35.0992 C   0  0  0  0  0  0
   64.8584   48.4051   26.8572 C   0  0  0  0  0  0
   61.6087   48.4144   32.8627 H   0  0  0  0  0  0
   61.1544   48.3559   30.4869 H   0  0  0  0  0  0
   63.8531   45.1016   30.0295 H   0  0  0  0  0  0
   65.3197   44.0847   34.5943 H   0  0  0  0  0  0
   63.6050   44.1102   34.3559 H   0  0  0  0  0  0
   65.3789   46.5238   34.7630 H   0  0  0  0  0  0
   64.3572   45.8486   35.9639 H   0  0  0  0  0  0
   61.6038   44.6227   28.5508 H   0  0  0  0  0  0
   60.7028   45.7060   27.5059 H   0  0  0  0  0  0
   60.1427   45.2780   30.4930 H   0  0  0  0  0  0
   58.4384   45.9065   28.0508 H   0  0  0  0  0  0
   56.1606   45.9004   28.3309 H   0  0  0  0  0  0
   58.4480   46.0737   31.8238 H   0  0  0  0  0  0
   56.7975   45.6765   32.0953 H   0  0  0  0  0  0
   58.0060   44.3933   31.7295 H   0  0  0  0  0  0
   55.6844   44.1321   30.9671 H   0  0  0  0  0  0
   63.9719   46.2455   28.0843 H   0  0  0  0  0  0
   62.8499   46.3159   26.7926 H   0  0  0  0  0  0
   62.7228   48.7637   26.9417 H   0  0  0  0  0  0
   63.4983   48.7842   28.4722 H   0  0  0  0  0  0
   65.2079   42.7032   32.5485 H   0  0  0  0  0  0
   63.5705   43.0253   32.1540 H   0  0  0  0  0  0
   64.8084   43.3738   30.9742 H   0  0  0  0  0  0
   66.8968   44.8478   32.8963 H   0  0  0  0  0  0
   66.3862   45.3818   31.3001 H   0  0  0  0  0  0
   66.2306   46.4590   32.6750 H   0  0  0  0  0  0
   63.9300   48.4777   35.8065 H   0  0  0  0  0  0
   64.5195   48.6546   34.1493 H   0  0  0  0  0  0
   62.8694   49.0739   34.5400 H   0  0  0  0  0  0
   62.0824   46.2187   36.1382 H   0  0  0  0  0  0
   61.2130   47.3199   35.0937 H   0  0  0  0  0  0
   61.4474   45.6769   34.5900 H   0  0  0  0  0  0
   65.2097   49.4349   26.9378 H   0  0  0  0  0  0
   65.6042   47.7692   27.3342 H   0  0  0  0  0  0
   64.8120   48.1283   25.8036 H   0  0  0  0  0  0
  1  2  2  0  0  0
  1  5  1  0  0  0
  1 28  1  0  0  0
  2  3  1  0  0  0
  2 29  1  0  0  0
  3  4  2  0  0  0
  3 11  1  0  0  0
  4  6  1  0  0  0
  4 30  1  0  0  0
  5 10  1  0  0  0
  5  6  2  0  0  0
  6  7  1  0  0  0
  7  8  1  0  0  0
  7 23  1  0  0  0
  7 24  1  0  0  0
  8  9  1  0  0  0
  8 31  1  0  0  0
  8 32  1  0  0  0
  9 10  1  0  0  0
  9 33  1  0  0  0
  9 34  1  0  0  0
 10 25  1  0  0  0
 10 26  1  0  0  0
 11 21  1  0  0  0
 11 12  1  0  0  0
 12 13  1  0  0  0
 12 35  1  0  0  0
 12 36  1  0  0  0
 13 14  2  0  0  0
 13 37  1  0  0  0
 14 15  1  0  0  0
 14 38  1  0  0  0
 15 16  2  0  0  0
 15 17  1  0  0  0
 16 18  1  0  0  0
 16 39  1  0  0  0
 17 40  1  0  0  0
 17 41  1  0  0  0
 17 42  1  0  0  0
 18 19  1  0  0  0
 18 20  2  0  0  0
 19 43  1  0  0  0
 21 22  1  0  0  0
 21 44  1  0  0  0
 21 45  1  0  0  0
 22 27  1  0  0  0
 22 46  1  0  0  0
 22 47  1  0  0  0
 23 48  1  0  0  0
 23 49  1  0  0  0
 23 50  1  0  0  0
 24 51  1  0  0  0
 24 52  1  0  0  0
 24 53  1  0  0  0
 25 54  1  0  0  0
 25 55  1  0  0  0
 25 56  1  0  0  0
 26 57  1  0  0  0
 26 58  1  0  0  0
 26 59  1  0  0  0
 27 60  1  0  0  0
 27 61  1  0  0  0
 27 62  1  0  0  0
M  END
> <s_m_entry_id>
31148

> <s_m_entry_name>
dock_pv.361

> <s_m_Source_Path>
/home/csk/Desktop/cluster/DUD-E-result/rxra

> <s_m_Source_File>
dock_pv.maegz

> <i_m_Source_File_Index>
361

> <chembl_id>
CHEMBL205600

> <chembl_pref_name>
None

> <i_lp_mmshare_version>
53161

> <r_lp_tautomer_probability>
1

> <s_lp_Force_Field>
OPLS_2005

> <r_lp_Energy>
27.78844

> <b_lp_Chiralities_Consistent>
1

> <s_lp_Variant>
CHEMBL2061_lig412-1

> <s_i_glide_gridfile>
glide-grid_1mv9

> <i_i_glide_lignum>
483

> <i_i_glide_rotatable_bonds>
8

> <r_i_docking_score>
-9.17104168474306

> <r_i_glide_ligand_efficiency>
-0.339668210546039

> <r_i_glide_ligand_efficiency_sa>
-1.01900463051863

> <r_i_glide_ligand_efficiency_ln>
-2.13486730776937

> <r_i_glide_gscore>
-9.17104168474306

> <r_i_glide_lipo>
-6.19083934866329

> <r_i_glide_hbond>
-0.170941695895564

> <r_i_glide_metal>
0

> <r_i_glide_rewards>
-0.921917895815939

> <r_i_glide_evdw>
-44.1990966796875

> <r_i_glide_ecoul>
-3.49721264839172

> <r_i_glide_erotb>
0.847193986874874

> <r_i_glide_esite>
0

> <r_i_glide_emodel>
-59.7992209400606

> <r_i_glide_energy>
-47.6963093280792

> <r_i_glide_einternal>
14.9086475372314

> <i_i_glide_confnum>
160

> <i_i_glide_posenum>
197

> <r_i_glide_eff_state_penalty>
0

> <s_user_duplicate_titles>
CHEMBL2061_lig412,345783

> <i_f3d_flags>
0

> <s_m_subgroup_title>
dock_pv

> <s_m_subgroupid>
dock_pv

> <b_m_subgroup_collapsed>
1

$$$$
CHEMBL2061_lig522 
                    3D
 Schrodinger Suite 2021-1.
 37 38  0  0  1  0            999 V2000
   63.7431   46.1580   32.3177 C   0  0  0  0  0  0
   63.6504   45.6880   31.0033 C   0  0  0  0  0  0
   62.4135   45.7025   30.3510 C   0  0  0  0  0  0
   61.2563   46.1404   31.0012 C   0  0  0  0  0  0
   61.3775   46.6032   32.3209 C   0  0  0  0  0  0
   62.6070   46.6168   32.9900 C   0  0  0  0  0  0
   59.9180   46.0256   30.3480 C   0  0  0  0  0  0
   58.7955   45.6770   31.1059 C   0  0  0  0  0  0
   57.5204   45.5695   30.5513 C   0  0  0  0  0  0
   57.3405   45.7670   29.1706 C   0  0  0  0  0  0
   58.4731   46.0770   28.4042 C   0  0  0  0  0  0
   59.7346   46.2244   28.9790 C   0  0  0  0  0  0
   55.9893   45.5687   28.4583 C   0  0  0  0  0  0
   54.8080   46.3960   28.9911 C   0  0  0  0  0  0
   54.8080   47.6770   28.5390 O   0  0  0  0  0  0
   53.9486   45.9324   29.7390 O   0  0  0  0  0  0
   62.7079   47.0732   34.4480 C   0  0  0  0  0  0
   63.2080   48.3067   34.5001 F   0  0  0  0  0  0
   61.5170   47.0815   35.0508 F   0  0  0  0  0  0
   63.5101   46.2612   35.1388 F   0  0  0  0  0  0
   64.8595   45.1174   30.2782 C   0  0  0  0  0  0
   64.9410   45.6770   29.0715 F   0  0  0  0  0  0
   66.0018   45.3215   30.9390 F   0  0  0  0  0  0
   64.6866   43.8035   30.1390 F   0  0  0  0  0  0
   56.3798   45.2810   31.5104 C   0  0  0  0  0  0
   64.6946   46.1474   32.8312 H   0  0  0  0  0  0
   62.3459   45.3084   29.3467 H   0  0  0  0  0  0
   60.4930   46.9260   32.8483 H   0  0  0  0  0  0
   58.9046   45.5150   32.1682 H   0  0  0  0  0  0
   58.4079   46.2115   27.3390 H   0  0  0  0  0  0
   60.5713   46.4833   28.3465 H   0  0  0  0  0  0
   55.7269   44.5125   28.5373 H   0  0  0  0  0  0
   56.0827   45.7574   27.3885 H   0  0  0  0  0  0
   55.6042   47.8839   28.0471 H   0  0  0  0  0  0
   56.7355   45.2770   32.5385 H   0  0  0  0  0  0
   55.6444   46.0770   31.5031 H   0  0  0  0  0  0
   55.8795   44.3431   31.2702 H   0  0  0  0  0  0
  1  2  2  0  0  0
  1  6  1  0  0  0
  1 26  1  0  0  0
  2  3  1  0  0  0
  2 21  1  0  0  0
  3  4  2  0  0  0
  3 27  1  0  0  0
  4  5  1  0  0  0
  4  7  1  0  0  0
  5  6  2  0  0  0
  5 28  1  0  0  0
  6 17  1  0  0  0
  7  8  2  0  0  0
  7 12  1  0  0  0
  8  9  1  0  0  0
  8 29  1  0  0  0
  9 10  2  0  0  0
  9 25  1  0  0  0
 10 11  1  0  0  0
 10 13  1  0  0  0
 11 12  2  0  0  0
 11 30  1  0  0  0
 12 31  1  0  0  0
 13 14  1  0  0  0
 13 32  1  0  0  0
 13 33  1  0  0  0
 14 15  1  0  0  0
 14 16  2  0  0  0
 15 34  1  0  0  0
 17 18  1  0  0  0
 17 19  1  0  0  0
 17 20  1  0  0  0
 21 22  1  0  0  0
 21 23  1  0  0  0
 21 24  1  0  0  0
 25 35  1  0  0  0
 25 36  1  0  0  0
 25 37  1  0  0  0
M  END
> <s_m_entry_id>
31149

> <s_m_entry_name>
dock_pv.362

> <s_m_Source_Path>
/home/csk/Desktop/cluster/DUD-E-result/rxra

> <s_m_Source_File>
dock_pv.maegz

> <i_m_Source_File_Index>
362

> <chembl_id>
CHEMBL4476449

> <chembl_pref_name>
None

> <i_lp_mmshare_version>
53161

> <r_lp_tautomer_probability>
1

> <s_lp_Force_Field>
OPLS_2005

> <r_lp_Energy>
16.804922

> <b_lp_Chiralities_Consistent>
1

> <s_lp_Variant>
CHEMBL2061_lig522 -1

> <s_i_glide_gridfile>
glide-grid_1mv9

> <i_i_glide_lignum>
622

> <i_i_glide_rotatable_bonds>
6

> <r_i_docking_score>
-9.16950505940755

> <r_i_glide_ligand_efficiency>
-0.366780202376302

> <r_i_glide_ligand_efficiency_sa>
-1.07247181662289

> <r_i_glide_ligand_efficiency_ln>
-2.1734474869722

> <r_i_glide_gscore>
-9.16950505940755

> <r_i_glide_lipo>
-4.02194588184319

> <r_i_glide_hbond>
-0.143469290269987

> <r_i_glide_metal>
0

> <r_i_glide_rewards>
-3.53517373881442

> <r_i_glide_evdw>
-31.3922595977783

> <r_i_glide_ecoul>
-2.25469708442688

> <r_i_glide_erotb>
0.438901394072993

> <r_i_glide_esite>
0

> <r_i_glide_emodel>
-46.4562536564065

> <r_i_glide_energy>
-33.6469566822052

> <r_i_glide_einternal>
4.34647369384766

> <i_i_glide_confnum>
12

> <i_i_glide_posenum>
275

> <r_i_glide_eff_state_penalty>
0

> <s_user_duplicate_titles>
CHEMBL2061_lig522 

> <i_f3d_flags>
0

> <s_m_subgroup_title>
dock_pv

> <s_m_subgroupid>
dock_pv

> <b_m_subgroup_collapsed>
1

$$$$
CHEMBL2061_lig527 
                    3D
 Schrodinger Suite 2021-1.
 52 53  0  0  1  0            999 V2000
   63.6515   46.1745   32.5156 C   0  0  0  0  0  0
   63.5545   45.6637   31.2178 C   0  0  0  0  0  0
   62.3058   45.6822   30.5846 C   0  0  0  0  0  0
   61.1649   46.1583   31.2280 C   0  0  0  0  0  0
   61.2895   46.5928   32.5563 C   0  0  0  0  0  0
   62.5299   46.6301   33.2161 C   0  0  0  0  0  0
   59.8396   46.0766   30.5408 C   0  0  0  0  0  0
   59.7045   46.3245   29.1717 C   0  0  0  0  0  0
   58.4738   46.1628   28.5402 C   0  0  0  0  0  0
   57.3524   45.7503   29.2651 C   0  0  0  0  0  0
   57.4886   45.4740   30.6252 C   0  0  0  0  0  0
   58.7063   45.6766   31.2576 C   0  0  0  0  0  0
   56.0144   45.5438   28.5542 C   0  0  0  0  0  0
   54.8078   46.1171   29.3080 C   0  0  0  0  0  0
   54.5331   47.3972   28.9342 O   0  0  0  0  0  0
   54.1593   45.4817   30.1388 O   0  0  0  0  0  0
   62.6949   47.1170   34.6809 C   0  0  0  0  0  0
   61.3470   47.2516   35.4338 C   0  0  0  0  0  0
   63.3909   48.4939   34.6711 C   0  0  0  0  0  0
   63.5782   46.1367   35.5012 C   0  0  0  0  0  0
   64.7579   45.0471   30.4860 C   0  0  0  0  0  0
   66.1171   45.3666   31.1634 C   0  0  0  0  0  0
   64.8105   45.5994   29.0415 C   0  0  0  0  0  0
   64.5813   43.5094   30.4731 C   0  0  0  0  0  0
   64.6080   46.1956   33.0100 H   0  0  0  0  0  0
   62.1981   45.2626   29.5971 H   0  0  0  0  0  0
   60.3917   46.8836   33.0757 H   0  0  0  0  0  0
   60.5582   46.6314   28.5863 H   0  0  0  0  0  0
   58.4080   46.3555   27.4824 H   0  0  0  0  0  0
   56.6514   45.1180   31.2078 H   0  0  0  0  0  0
   58.7780   45.4584   32.3131 H   0  0  0  0  0  0
   56.0462   45.9517   27.5426 H   0  0  0  0  0  0
   55.8550   44.4763   28.4304 H   0  0  0  0  0  0
   55.2065   47.7663   28.3604 H   0  0  0  0  0  0
   61.4895   47.5755   36.4660 H   0  0  0  0  0  0
   60.8116   46.3014   35.4651 H   0  0  0  0  0  0
   60.6935   47.9947   34.9771 H   0  0  0  0  0  0
   64.3738   48.4433   34.2015 H   0  0  0  0  0  0
   62.8093   49.2315   34.1180 H   0  0  0  0  0  0
   63.5382   48.8800   35.6809 H   0  0  0  0  0  0
   64.6140   46.1186   35.1649 H   0  0  0  0  0  0
   63.6185   46.4212   36.5526 H   0  0  0  0  0  0
   63.2087   45.1115   35.4586 H   0  0  0  0  0  0
   66.2119   44.8857   32.1374 H   0  0  0  0  0  0
   66.9518   45.0117   30.5566 H   0  0  0  0  0  0
   66.2548   46.4385   31.3089 H   0  0  0  0  0  0
   63.9829   45.2543   28.4258 H   0  0  0  0  0  0
   64.8063   46.6881   29.0197 H   0  0  0  0  0  0
   65.7129   45.2772   28.5401 H   0  0  0  0  0  0
   63.7577   43.1975   29.8311 H   0  0  0  0  0  0
   65.4773   42.9950   30.1324 H   0  0  0  0  0  0
   64.3736   43.1270   31.4746 H   0  0  0  0  0  0
  1  2  2  0  0  0
  1  6  1  0  0  0
  1 25  1  0  0  0
  2  3  1  0  0  0
  2 21  1  0  0  0
  3  4  2  0  0  0
  3 26  1  0  0  0
  4  5  1  0  0  0
  4  7  1  0  0  0
  5  6  2  0  0  0
  5 27  1  0  0  0
  6 17  1  0  0  0
  7  8  2  0  0  0
  7 12  1  0  0  0
  8  9  1  0  0  0
  8 28  1  0  0  0
  9 10  2  0  0  0
  9 29  1  0  0  0
 10 11  1  0  0  0
 10 13  1  0  0  0
 11 12  2  0  0  0
 11 30  1  0  0  0
 12 31  1  0  0  0
 13 14  1  0  0  0
 13 32  1  0  0  0
 13 33  1  0  0  0
 14 15  1  0  0  0
 14 16  2  0  0  0
 15 34  1  0  0  0
 17 18  1  0  0  0
 17 19  1  0  0  0
 17 20  1  0  0  0
 18 35  1  0  0  0
 18 36  1  0  0  0
 18 37  1  0  0  0
 19 38  1  0  0  0
 19 39  1  0  0  0
 19 40  1  0  0  0
 20 41  1  0  0  0
 20 42  1  0  0  0
 20 43  1  0  0  0
 21 22  1  0  0  0
 21 23  1  0  0  0
 21 24  1  0  0  0
 22 44  1  0  0  0
 22 45  1  0  0  0
 22 46  1  0  0  0
 23 47  1  0  0  0
 23 48  1  0  0  0
 23 49  1  0  0  0
 24 50  1  0  0  0
 24 51  1  0  0  0
 24 52  1  0  0  0
M  END
> <s_m_entry_id>
31150

> <s_m_entry_name>
dock_pv.363

> <s_m_Source_Path>
/home/csk/Desktop/cluster/DUD-E-result/rxra

> <s_m_Source_File>
dock_pv.maegz

> <i_m_Source_File_Index>
363

> <chembl_id>
CHEMBL4578667

> <chembl_pref_name>
None

> <i_lp_mmshare_version>
53161

> <r_lp_tautomer_probability>
1

> <s_lp_Force_Field>
OPLS_2005

> <r_lp_Energy>
22.329271

> <b_lp_Chiralities_Consistent>
1

> <s_lp_Variant>
CHEMBL2061_lig527 -1

> <s_i_glide_gridfile>
glide-grid_1mv9

> <i_i_glide_lignum>
627

> <i_i_glide_rotatable_bonds>
6

> <r_i_docking_score>
-9.16627280172021

> <r_i_glide_ligand_efficiency>
-0.381928033405009

> <r_i_glide_ligand_efficiency_sa>
-1.1016710829664

> <r_i_glide_ligand_efficiency_ln>
-2.19390969430302

> <r_i_glide_gscore>
-9.16627280172021

> <r_i_glide_lipo>
-5.18606426724523

> <r_i_glide_hbond>
-0.130679558701799

> <r_i_glide_metal>
0

> <r_i_glide_rewards>
-2.05105105591812

> <r_i_glide_evdw>
-36.857364654541

> <r_i_glide_ecoul>
-3.26206803321838

> <r_i_glide_erotb>
0.533700517854757

> <r_i_glide_esite>
0

> <r_i_glide_emodel>
-57.6222898715313

> <r_i_glide_energy>
-40.1194326877594

> <r_i_glide_einternal>
4.18870782852173

> <i_i_glide_confnum>
8

> <i_i_glide_posenum>
67

> <r_i_glide_eff_state_penalty>
0

> <s_user_duplicate_titles>
CHEMBL2061_lig527 

> <i_f3d_flags>
0

> <s_m_subgroup_title>
dock_pv

> <s_m_subgroupid>
dock_pv

> <b_m_subgroup_collapsed>
1

$$$$
CHEMBL2061_lig253
                    3D
 Schrodinger Suite 2021-1.
 46 48  0  0  1  0            999 V2000
   63.4506   46.7618   31.5537 C   0  0  0  0  0  0
   64.3905   46.2372   32.5095 C   0  0  0  0  0  0
   62.5011   46.8749   30.7955 C   0  0  0  0  0  0
   54.8078   45.7876   29.3493 C   0  0  0  0  0  0
   56.2661   45.6776   29.6809 C   0  0  0  0  0  0
   65.3803   45.4202   32.0517 C   0  0  0  0  0  0
   64.1416   46.5107   34.0354 C   0  0  0  0  0  0
   57.2559   46.0767   28.7753 C   0  0  0  0  0  0
   58.6072   46.2058   29.1832 C   0  0  0  0  0  0
   58.9477   45.8135   30.5072 C   0  0  0  0  0  0
   53.9586   45.0678   29.8768 O   0  0  0  0  0  0
   61.2054   46.6691   30.1774 C   0  0  0  0  0  0
   60.2448   46.0764   30.9820 C   0  0  0  0  0  0
   56.6392   45.2124   30.9395 C   0  0  0  0  0  0
   57.9621   45.2620   31.3532 C   0  0  0  0  0  0
   59.6181   46.7732   28.3556 C   0  0  0  0  0  0
   54.4978   46.8458   28.5446 O   0  0  0  0  0  0
   60.9047   47.0006   28.8568 C   0  0  0  0  0  0
   66.2808   44.6912   33.0271 C   0  0  0  0  0  0
   65.1847   45.7729   34.9444 C   0  0  0  0  0  0
   65.6416   45.0529   30.5837 C   0  0  0  0  0  0
   62.7706   45.9308   34.4156 C   0  0  0  0  0  0
   64.2543   48.0199   34.3220 C   0  0  0  0  0  0
   66.5329   45.5356   34.2704 C   0  0  0  0  0  0
   56.9909   46.3845   27.7789 H   0  0  0  0  0  0
   60.4738   45.8239   32.0088 H   0  0  0  0  0  0
   55.8895   44.8813   31.6446 H   0  0  0  0  0  0
   58.2250   44.9629   32.3576 H   0  0  0  0  0  0
   59.3758   47.0636   27.3437 H   0  0  0  0  0  0
   55.2774   47.3723   28.3620 H   0  0  0  0  0  0
   61.6579   47.4482   28.2226 H   0  0  0  0  0  0
   67.2075   44.4723   32.5367 H   0  0  0  0  0  0
   65.8437   43.7308   33.3037 H   0  0  0  0  0  0
   64.8151   44.7877   35.2380 H   0  0  0  0  0  0
   65.3110   46.2851   35.8970 H   0  0  0  0  0  0
   66.7029   45.1486   30.3541 H   0  0  0  0  0  0
   65.3513   44.0179   30.4048 H   0  0  0  0  0  0
   65.1139   45.6727   29.8610 H   0  0  0  0  0  0
   62.5722   46.0191   35.4855 H   0  0  0  0  0  0
   61.9416   46.4078   33.8918 H   0  0  0  0  0  0
   62.7982   44.8767   34.1539 H   0  0  0  0  0  0
   64.1867   48.2374   35.3886 H   0  0  0  0  0  0
   65.2099   48.4042   33.9674 H   0  0  0  0  0  0
   63.4481   48.5790   33.8480 H   0  0  0  0  0  0
   67.0046   46.4766   33.9930 H   0  0  0  0  0  0
   67.2242   45.0232   34.9377 H   0  0  0  0  0  0
  1  2  1  0  0  0
  1  3  3  0  0  0
  2  6  2  0  0  0
  2  7  1  0  0  0
  3 12  1  0  0  0
  4  5  1  0  0  0
  4 11  2  0  0  0
  4 17  1  0  0  0
  5  8  1  0  0  0
  5 14  2  0  0  0
  6 19  1  0  0  0
  6 21  1  0  0  0
  7 20  1  0  0  0
  7 22  1  0  0  0
  7 23  1  0  0  0
  8  9  2  0  0  0
  8 25  1  0  0  0
  9 16  1  0  0  0
  9 10  1  0  0  0
 10 13  1  0  0  0
 10 15  2  0  0  0
 12 13  2  0  0  0
 12 18  1  0  0  0
 13 26  1  0  0  0
 14 15  1  0  0  0
 14 27  1  0  0  0
 15 28  1  0  0  0
 16 18  2  0  0  0
 16 29  1  0  0  0
 17 30  1  0  0  0
 18 31  1  0  0  0
 19 24  1  0  0  0
 19 32  1  0  0  0
 19 33  1  0  0  0
 20 24  1  0  0  0
 20 34  1  0  0  0
 20 35  1  0  0  0
 21 36  1  0  0  0
 21 37  1  0  0  0
 21 38  1  0  0  0
 22 39  1  0  0  0
 22 40  1  0  0  0
 22 41  1  0  0  0
 23 42  1  0  0  0
 23 43  1  0  0  0
 23 44  1  0  0  0
 24 45  1  0  0  0
 24 46  1  0  0  0
M  END
> <s_m_entry_id>
31151

> <s_m_entry_name>
dock_pv.364

> <s_m_Source_Path>
/home/csk/Desktop/cluster/DUD-E-result/rxra

> <s_m_Source_File>
dock_pv.maegz

> <i_m_Source_File_Index>
364

> <chembl_id>
CHEMBL151672

> <chembl_pref_name>
None

> <i_lp_mmshare_version>
53161

> <r_lp_tautomer_probability>
1

> <s_lp_Force_Field>
OPLS_2005

> <r_lp_Energy>
22.465195

> <b_lp_Chiralities_Consistent>
1

> <s_lp_Variant>
CHEMBL2061_lig253-1

> <s_i_glide_gridfile>
glide-grid_1mv9

> <i_i_glide_lignum>
295

> <i_i_glide_rotatable_bonds>
4

> <r_i_docking_score>
-9.14940335288539

> <r_i_glide_ligand_efficiency>
-0.381225139703558

> <r_i_glide_ligand_efficiency_sa>
-1.09964358669077

> <r_i_glide_ligand_efficiency_ln>
-2.18987206110828

> <r_i_glide_gscore>
-9.14940335288539

> <r_i_glide_lipo>
-5.44511161158426

> <r_i_glide_hbond>
-0.0302911173297217

> <r_i_glide_metal>
0

> <r_i_glide_rewards>
-2.14634749258359

> <r_i_glide_evdw>
-35.6244049072266

> <r_i_glide_ecoul>
-1.98753809928894

> <r_i_glide_erotb>
0.551697828866853

> <r_i_glide_esite>
0

> <r_i_glide_emodel>
-54.5079549344853

> <r_i_glide_energy>
-37.6119430065155

> <r_i_glide_einternal>
7.49399423599243

> <i_i_glide_confnum>
2

> <i_i_glide_posenum>
195

> <r_i_glide_eff_state_penalty>
0

> <s_user_duplicate_titles>
CHEMBL2061_lig253

> <i_f3d_flags>
0

> <s_m_subgroup_title>
dock_pv

> <s_m_subgroupid>
dock_pv

> <b_m_subgroup_collapsed>
1

$$$$
CHEMBL2061_lig549 
                    3D
 Schrodinger Suite 2021-1.
 39 41  0  0  1  0            999 V2000
   61.3205   46.4061   30.2772 C   0  0  0  0  0  0
   61.9975   47.0199   29.2235 C   0  0  0  0  0  0
   61.2657   47.2958   28.0745 C   0  0  0  0  0  0
   59.9458   46.9932   27.9715 N   0  0  0  0  0  0
   59.3700   46.4008   29.0501 C   0  0  0  0  0  0
   60.0053   46.0770   30.2034 N   0  0  0  0  0  0
   61.9445   46.1777   31.5027 N   0  0  0  0  0  0
   63.2779   45.8899   31.8322 C   0  0  0  0  0  0
   64.1397   45.3491   30.8720 C   0  0  0  0  0  0
   65.4109   44.9279   31.2291 C   0  0  0  0  0  0
   65.8210   45.0403   32.5509 C   0  0  0  0  0  0
   57.6381   46.0769   28.9303 S   0  0  0  0  0  0
   57.0459   45.1841   30.3975 C   0  0  0  0  0  0
   55.5159   45.1051   30.4313 C   0  0  0  0  0  0
   54.9939   44.4774   29.3406 O   0  0  0  0  0  0
   54.8346   45.5677   31.3397 O   0  0  0  0  0  0
   62.0758   48.0769   26.7730 Cl  0  0  0  0  0  0
   63.6949   46.0306   33.1728 C   0  0  0  0  0  0
   64.9860   45.5787   33.5338 C   0  0  0  0  0  0
   65.5197   45.7006   34.9596 C   0  0  0  0  0  0
   64.4502   46.0668   36.0055 C   0  0  0  0  0  0
   63.5194   47.1572   35.4681 C   0  0  0  0  0  0
   62.7609   46.6192   34.2444 C   0  0  0  0  0  0
   63.0349   47.3092   29.3004 H   0  0  0  0  0  0
   61.3003   46.0687   32.2696 H   0  0  0  0  0  0
   63.8165   45.1965   29.8536 H   0  0  0  0  0  0
   66.0720   44.4991   30.4893 H   0  0  0  0  0  0
   66.8086   44.7004   32.8223 H   0  0  0  0  0  0
   57.4095   45.6778   31.2985 H   0  0  0  0  0  0
   57.4572   44.1739   30.3985 H   0  0  0  0  0  0
   55.6536   44.1695   28.7138 H   0  0  0  0  0  0
   66.0076   44.7716   35.2527 H   0  0  0  0  0  0
   66.2944   46.4661   34.9407 H   0  0  0  0  0  0
   63.8656   45.1795   36.2556 H   0  0  0  0  0  0
   64.9207   46.3856   36.9365 H   0  0  0  0  0  0
   62.8123   47.4739   36.2340 H   0  0  0  0  0  0
   64.0944   48.0439   35.1952 H   0  0  0  0  0  0
   62.1507   47.4227   33.8281 H   0  0  0  0  0  0
   62.0697   45.8387   34.5650 H   0  0  0  0  0  0
  1  2  2  0  0  0
  1  6  1  0  0  0
  1  7  1  0  0  0
  2  3  1  0  0  0
  2 24  1  0  0  0
  3  4  2  0  0  0
  3 17  1  0  0  0
  4  5  1  0  0  0
  5  6  2  0  0  0
  5 12  1  0  0  0
  7  8  1  0  0  0
  7 25  1  0  0  0
  8  9  2  0  0  0
  8 18  1  0  0  0
  9 10  1  0  0  0
  9 26  1  0  0  0
 10 11  2  0  0  0
 10 27  1  0  0  0
 11 19  1  0  0  0
 11 28  1  0  0  0
 12 13  1  0  0  0
 13 14  1  0  0  0
 13 29  1  0  0  0
 13 30  1  0  0  0
 14 15  1  0  0  0
 14 16  2  0  0  0
 15 31  1  0  0  0
 18 19  2  0  0  0
 18 23  1  0  0  0
 19 20  1  0  0  0
 20 21  1  0  0  0
 20 32  1  0  0  0
 20 33  1  0  0  0
 21 22  1  0  0  0
 21 34  1  0  0  0
 21 35  1  0  0  0
 22 23  1  0  0  0
 22 36  1  0  0  0
 22 37  1  0  0  0
 23 38  1  0  0  0
 23 39  1  0  0  0
M  END
> <s_m_entry_id>
31152

> <s_m_entry_name>
dock_pv.365

> <s_m_Source_Path>
/home/csk/Desktop/cluster/DUD-E-result/rxra

> <s_m_Source_File>
dock_pv.maegz

> <i_m_Source_File_Index>
365

> <chembl_id>
CHEMBL4575123

> <chembl_pref_name>
None

> <i_lp_mmshare_version>
53161

> <r_lp_tautomer_probability>
0.999999998296584

> <s_lp_Force_Field>
OPLS_2005

> <r_lp_Energy>
9.996596

> <b_lp_Chiralities_Consistent>
1

> <s_lp_Variant>
CHEMBL2061_lig549 -1

> <s_i_glide_gridfile>
glide-grid_1mv9

> <i_i_glide_lignum>
649

> <i_i_glide_rotatable_bonds>
6

> <r_i_docking_score>
-9.13637066214251

> <r_i_glide_ligand_efficiency>
-0.397233507049674

> <r_i_glide_ligand_efficiency_sa>
-1.1296792528085

> <r_i_glide_ligand_efficiency_ln>
-2.20925727013495

> <r_i_glide_gscore>
-9.13637066214251

> <r_i_glide_lipo>
-4.46072063613185

> <r_i_glide_hbond>
-0.0757627849290216

> <r_i_glide_metal>
0

> <r_i_glide_rewards>
-2.5351353540751

> <r_i_glide_evdw>
-45.6126823425293

> <r_i_glide_ecoul>
-3.7502965927124

> <r_i_glide_erotb>
0.77842671902679

> <r_i_glide_esite>
0

> <r_i_glide_emodel>
-68.4920687018471

> <r_i_glide_energy>
-49.3629789352417

> <r_i_glide_einternal>
13.0535593032837

> <i_i_glide_confnum>
157

> <i_i_glide_posenum>
296

> <r_i_glide_eff_state_penalty>
0

> <s_user_duplicate_titles>
CHEMBL2061_lig549 

> <i_f3d_flags>
0

> <s_m_subgroup_title>
dock_pv

> <s_m_subgroupid>
dock_pv

> <b_m_subgroup_collapsed>
1

$$$$
CHEMBL2061_lig48
                    3D
 Schrodinger Suite 2021-1.
 48 51  0  0  1  0            999 V2000
   62.2223   47.7245   27.2113 C   0  0  0  0  0  0
   62.8411   47.6182   28.4375 C   0  0  0  0  0  0
   62.1562   47.1320   29.5438 C   0  0  0  0  0  0
   60.9219   47.2797   27.0590 C   0  0  0  0  0  0
   60.2258   46.6935   28.1363 C   0  0  0  0  0  0
   60.8090   46.6447   29.4260 C   0  0  0  0  0  0
   60.0159   46.1144   30.5067 C   0  0  0  0  0  0
   58.6977   45.6748   30.2682 C   0  0  0  0  0  0
   58.1844   45.6774   28.9884 C   0  0  0  0  0  0
   58.9630   46.1349   27.9445 C   0  0  0  0  0  0
   57.8762   45.2098   31.2640 O   0  0  0  0  0  0
   60.6104   46.0769   31.8202 C   0  0  0  0  0  0
   60.0163   46.0777   32.9472 N   0  0  0  0  0  0
   60.7787   46.0770   34.0850 N   0  0  0  0  0  0
   62.0566   46.5052   34.2860 C   0  0  0  0  0  0
   62.4818   46.5591   35.7402 C   0  0  2  0  0  0
   62.8150   46.9539   33.4239 O   0  0  0  0  0  0
   62.4175   48.0395   36.1758 C   0  0  0  0  0  0
   63.6072   48.8781   35.6872 C   0  0  0  0  0  0
   64.0075   45.6431   36.2611 S   0  0  0  0  0  0
   64.7007   45.0785   34.7624 C   0  0  0  0  0  0
   64.2881   44.0220   34.1222 N   0  0  0  0  0  0
   65.8628   46.0782   33.9387 S   0  0  0  0  0  0
   65.4044   45.2453   32.4796 C   0  0  0  0  0  0
   64.6235   44.1120   32.8116 C   0  0  0  0  0  0
   64.1867   43.2472   31.8008 C   0  0  0  0  0  0
   64.4095   43.6210   30.4744 C   0  0  0  0  0  0
   65.1227   44.7817   30.1624 C   0  0  0  0  0  0
   65.6702   45.5859   31.1590 C   0  0  0  0  0  0
   62.7595   48.1316   26.3667 H   0  0  0  0  0  0
   63.8687   47.9167   28.5181 H   0  0  0  0  0  0
   62.6858   47.1239   30.4840 H   0  0  0  0  0  0
   60.4460   47.3665   26.1032 H   0  0  0  0  0  0
   57.2010   45.2735   28.7957 H   0  0  0  0  0  0
   58.6613   46.0109   26.9390 H   0  0  0  0  0  0
   58.3016   45.3099   32.1210 H   0  0  0  0  0  0
   61.6768   45.9033   31.7526 H   0  0  0  0  0  0
   60.2254   45.9129   34.9122 H   0  0  0  0  0  0
   61.6901   46.0394   36.2818 H   0  0  0  0  0  0
   61.4859   48.5098   35.8521 H   0  0  0  0  0  0
   62.3557   48.0771   37.2543 H   0  0  0  0  0  0
   63.6080   49.8586   36.1390 H   0  0  0  0  0  0
   64.5506   48.4141   35.9463 H   0  0  0  0  0  0
   63.6020   49.0296   34.6083 H   0  0  0  0  0  0
   63.6102   42.3646   32.0359 H   0  0  0  0  0  0
   64.0234   43.0037   29.6755 H   0  0  0  0  0  0
   65.2691   45.0598   29.1293 H   0  0  0  0  0  0
   66.2399   46.4754   30.9389 H   0  0  0  0  0  0
  1  2  2  0  0  0
  1  4  1  0  0  0
  1 30  1  0  0  0
  2  3  1  0  0  0
  2 31  1  0  0  0
  3  6  2  0  0  0
  3 32  1  0  0  0
  4  5  2  0  0  0
  4 33  1  0  0  0
  5  6  1  0  0  0
  5 10  1  0  0  0
  6  7  1  0  0  0
  7  8  2  0  0  0
  7 12  1  0  0  0
  8  9  1  0  0  0
  8 11  1  0  0  0
  9 10  2  0  0  0
  9 34  1  0  0  0
 10 35  1  0  0  0
 11 36  1  0  0  0
 12 13  2  0  0  0
 12 37  1  0  0  0
 13 14  1  0  0  0
 14 15  1  0  0  0
 14 38  1  0  0  0
 15 16  1  0  0  0
 15 17  2  0  0  0
 16 18  1  0  0  0
 16 20  1  0  0  0
 16 39  1  0  0  0
 18 19  1  0  0  0
 18 40  1  0  0  0
 18 41  1  0  0  0
 19 42  1  0  0  0
 19 43  1  0  0  0
 19 44  1  0  0  0
 20 21  1  0  0  0
 21 22  2  0  0  0
 21 23  1  0  0  0
 22 25  1  0  0  0
 23 24  1  0  0  0
 24 25  2  0  0  0
 24 29  1  0  0  0
 25 26  1  0  0  0
 26 27  2  0  0  0
 26 45  1  0  0  0
 27 28  1  0  0  0
 27 46  1  0  0  0
 28 29  2  0  0  0
 28 47  1  0  0  0
 29 48  1  0  0  0
M  END
> <s_m_entry_id>
31153

> <s_m_entry_name>
dock_pv.366

> <s_m_Source_Path>
/home/csk/Desktop/cluster/DUD-E-result/rxra

> <s_m_Source_File>
dock_pv.maegz

> <i_m_Source_File_Index>
366

> <chembl_id>
CHEMBL3319092

> <chembl_pref_name>
None

> <i_lp_mmshare_version>
53161

> <r_lp_tautomer_probability>
1

> <s_lp_Force_Field>
OPLS_2005

> <r_lp_Energy>
22.684573

> <b_lp_Chiralities_Consistent>
1

> <s_lp_Variant>
CHEMBL2061_lig48-1

> <s_i_glide_gridfile>
glide-grid_1mv9

> <i_i_glide_lignum>
65

> <i_i_glide_rotatable_bonds>
8

> <r_i_docking_score>
-9.12321181992324

> <r_i_glide_ligand_efficiency>
-0.314593511031836

> <r_i_glide_ligand_efficiency_sa>
-0.96653093610983

> <r_i_glide_ligand_efficiency_ln>
-2.08898416207163

> <r_i_glide_gscore>
-9.12321181992324

> <r_i_glide_lipo>
-5.99286553118227

> <r_i_glide_hbond>
0

> <r_i_glide_metal>
0

> <r_i_glide_rewards>
-2.05167062221057

> <r_i_glide_evdw>
-33.8573303222656

> <r_i_glide_ecoul>
0.379905998706818

> <r_i_glide_erotb>
0.557204949776863

> <r_i_glide_esite>
0

> <r_i_glide_emodel>
-35.6065758852541

> <r_i_glide_energy>
-33.4774243235588

> <r_i_glide_einternal>
6.45633220672607

> <i_i_glide_confnum>
7

> <i_i_glide_posenum>
352

> <r_i_glide_eff_state_penalty>
0

> <s_user_duplicate_titles>
CHEMBL2061_lig48

> <i_f3d_flags>
0

> <s_m_subgroup_title>
dock_pv

> <s_m_subgroupid>
dock_pv

> <b_m_subgroup_collapsed>
1

$$$$
CHEMBL2061_lig243
                    3D
 Schrodinger Suite 2021-1.
 54 56  0  0  1  0            999 V2000
   60.8019   46.8157   28.3458 N   0  0  0  0  0  0
   61.9876   46.1231   28.3863 C   0  0  0  0  0  0
   61.8484   45.0245   29.0925 N   0  0  0  0  0  0
   60.6264   45.1094   29.7383 N   0  0  0  0  0  0
   59.9656   46.0773   29.1540 C   0  0  0  0  0  0
   60.5225   48.0800   27.6825 C   0  0  0  0  0  0
   63.3084   46.6339   27.8031 C   0  0  0  0  0  0
   58.2467   46.3618   29.3389 S   0  0  0  0  0  0
   57.7299   44.7803   30.0891 C   0  0  0  0  0  0
   56.3077   44.7109   30.6758 C   0  0  0  0  0  0
   55.1368   45.2025   29.8226 C   0  0  0  0  0  0
   55.4630   45.5199   28.5408 O   0  0  0  0  0  0
   54.0065   45.2784   30.2856 O   0  0  0  0  0  0
   64.4781   46.0774   28.4352 O   0  0  0  0  0  0
   64.5122   45.9863   29.7949 C   0  0  0  0  0  0
   63.7081   46.6352   30.6882 C   0  0  0  0  0  0
   65.6084   44.8771   30.5388 S   0  0  0  0  0  0
   64.9174   45.2414   32.0846 C   0  0  0  0  0  0
   63.8549   46.1422   31.9502 C   0  0  0  0  0  0
   63.0199   46.6456   33.0648 C   0  0  0  0  0  0
   63.8564   46.5467   34.3420 C   0  0  2  0  0  0
   64.3939   45.0869   34.5042 C   0  0  0  0  0  0
   65.4283   44.7121   33.4158 C   0  0  0  0  0  0
   63.0217   47.0784   35.5299 C   0  0  0  0  0  0
   61.8691   46.1120   35.9084 C   0  0  0  0  0  0
   62.4025   48.4649   35.2371 C   0  0  0  0  0  0
   63.9994   47.3348   36.6735 C   0  0  0  0  0  0
   59.6466   48.5433   28.1383 H   0  0  0  0  0  0
   61.3681   48.7596   27.7861 H   0  0  0  0  0  0
   60.3353   47.8961   26.6254 H   0  0  0  0  0  0
   63.3977   47.7128   27.9339 H   0  0  0  0  0  0
   63.3473   46.4746   26.7258 H   0  0  0  0  0  0
   57.8657   43.9937   29.3454 H   0  0  0  0  0  0
   58.4089   44.5386   30.9066 H   0  0  0  0  0  0
   56.0921   43.6774   30.9389 H   0  0  0  0  0  0
   56.2846   45.2792   31.6067 H   0  0  0  0  0  0
   56.4110   45.4630   28.3994 H   0  0  0  0  0  0
   62.9781   47.3876   30.4315 H   0  0  0  0  0  0
   62.0929   46.0771   33.0993 H   0  0  0  0  0  0
   62.7467   47.6762   32.8401 H   0  0  0  0  0  0
   64.7215   47.2098   34.2466 H   0  0  0  0  0  0
   64.8803   44.9582   35.4694 H   0  0  0  0  0  0
   63.5715   44.3735   34.5326 H   0  0  0  0  0  0
   66.3875   45.1740   33.6543 H   0  0  0  0  0  0
   65.5811   43.6323   33.3937 H   0  0  0  0  0  0
   61.1310   46.6048   36.5387 H   0  0  0  0  0  0
   62.2416   45.2460   36.4548 H   0  0  0  0  0  0
   61.3097   45.7442   35.0511 H   0  0  0  0  0  0
   63.1708   49.1560   34.8742 H   0  0  0  0  0  0
   61.6063   48.4272   34.4994 H   0  0  0  0  0  0
   61.9534   48.8770   36.1410 H   0  0  0  0  0  0
   64.6313   48.1823   36.4219 H   0  0  0  0  0  0
   63.4388   47.6770   37.5126 H   0  0  0  0  0  0
   64.6036   46.4826   36.9821 H   0  0  0  0  0  0
  1  2  1  0  0  0
  1  5  1  0  0  0
  1  6  1  0  0  0
  2  3  2  0  0  0
  2  7  1  0  0  0
  3  4  1  0  0  0
  4  5  2  0  0  0
  5  8  1  0  0  0
  6 28  1  0  0  0
  6 29  1  0  0  0
  6 30  1  0  0  0
  7 14  1  0  0  0
  7 31  1  0  0  0
  7 32  1  0  0  0
  8  9  1  0  0  0
  9 10  1  0  0  0
  9 33  1  0  0  0
  9 34  1  0  0  0
 10 11  1  0  0  0
 10 35  1  0  0  0
 10 36  1  0  0  0
 11 12  1  0  0  0
 11 13  2  0  0  0
 12 37  1  0  0  0
 14 15  1  0  0  0
 15 16  2  0  0  0
 15 17  1  0  0  0
 16 19  1  0  0  0
 16 38  1  0  0  0
 17 18  1  0  0  0
 18 19  2  0  0  0
 18 23  1  0  0  0
 19 20  1  0  0  0
 20 21  1  0  0  0
 20 39  1  0  0  0
 20 40  1  0  0  0
 21 22  1  0  0  0
 21 24  1  0  0  0
 21 41  1  0  0  0
 22 23  1  0  0  0
 22 42  1  0  0  0
 22 43  1  0  0  0
 23 44  1  0  0  0
 23 45  1  0  0  0
 24 25  1  0  0  0
 24 26  1  0  0  0
 24 27  1  0  0  0
 25 46  1  0  0  0
 25 47  1  0  0  0
 25 48  1  0  0  0
 26 49  1  0  0  0
 26 50  1  0  0  0
 26 51  1  0  0  0
 27 52  1  0  0  0
 27 53  1  0  0  0
 27 54  1  0  0  0
M  END
> <s_m_entry_id>
31154

> <s_m_entry_name>
dock_pv.367

> <s_m_Source_Path>
/home/csk/Desktop/cluster/DUD-E-result/rxra

> <s_m_Source_File>
dock_pv.maegz

> <i_m_Source_File_Index>
367

> <chembl_id>
CHEMBL4292370

> <chembl_pref_name>
None

> <i_lp_mmshare_version>
53161

> <r_lp_tautomer_probability>
1

> <s_lp_Force_Field>
OPLS_2005

> <r_lp_Energy>
19.212481

> <b_lp_Chiralities_Consistent>
1

> <s_lp_Variant>
CHEMBL2061_lig243-1

> <s_i_glide_gridfile>
glide-grid_1mv9

> <i_i_glide_lignum>
282

> <i_i_glide_rotatable_bonds>
9

> <r_i_docking_score>
-9.11231429100969

> <r_i_glide_ligand_efficiency>
-0.337493121889248

> <r_i_glide_ligand_efficiency_sa>
-1.01247936455542

> <r_i_glide_ligand_efficiency_ln>
-2.12119653870499

> <r_i_glide_gscore>
-9.11231429100969

> <r_i_glide_lipo>
-4.89613229408749

> <r_i_glide_hbond>
-0.204228660399316

> <r_i_glide_metal>
0

> <r_i_glide_rewards>
-2.61239530043991

> <r_i_glide_evdw>
-36.5156021118164

> <r_i_glide_ecoul>
-2.63680601119995

> <r_i_glide_erotb>
0.821742971187848

> <r_i_glide_esite>
0

> <r_i_glide_emodel>
-46.7967062002129

> <r_i_glide_energy>
-39.1524081230164

> <r_i_glide_einternal>
6.00270938873291

> <i_i_glide_confnum>
68

> <i_i_glide_posenum>
163

> <r_i_glide_eff_state_penalty>
0

> <s_user_duplicate_titles>
CHEMBL2061_lig243

> <i_f3d_flags>
0

> <s_m_subgroup_title>
dock_pv

> <s_m_subgroupid>
dock_pv

> <b_m_subgroup_collapsed>
1

$$$$
CHEMBL2061_lig506
                    3D
 Schrodinger Suite 2021-1.
 62 62  0  0  1  0            999 V2000
   63.6266   45.9936   30.3014 C   0  0  0  0  0  0
   62.4360   46.4541   29.8262 C   0  0  0  0  0  0
   61.9631   46.6131   28.4480 C   0  0  0  0  0  0
   60.6493   46.4665   28.1559 C   0  0  0  0  0  0
   62.8911   47.0468   27.3263 C   0  0  0  0  0  0
   59.5901   46.0771   29.0774 C   0  0  0  0  0  0
   58.2875   46.1325   28.7409 C   0  0  0  0  0  0
   57.1546   45.7865   29.5989 C   0  0  0  0  0  0
   55.9250   46.0047   29.0586 C   0  0  0  0  0  0
   57.3941   45.2906   31.0282 C   0  0  0  0  0  0
   54.6240   45.7976   29.6486 C   0  0  0  0  0  0
   54.5633   44.7530   30.5228 O   0  0  0  0  0  0
   53.6450   46.4770   29.3395 O   0  0  0  0  0  0
   64.7280   45.5119   29.3505 C   0  0  0  0  0  0
   65.7708   44.6370   30.0685 C   0  0  0  0  0  0
   66.2580   45.2666   31.3568 C   0  0  0  0  0  0
   63.8668   45.8899   31.7657 C   0  0  0  0  0  0
   65.0791   45.5252   32.2715 C   0  0  0  0  0  0
   62.7117   46.0890   32.7405 C   0  0  0  0  0  0
   62.5548   47.5489   33.1925 C   0  0  0  0  0  0
   65.3986   45.4094   33.7683 C   0  0  0  0  0  0
   66.7610   45.9953   34.1618 C   0  0  0  0  0  0
   65.2630   43.9604   34.2632 C   0  0  0  0  0  0
   61.7043   47.7038   34.4618 C   0  0  0  0  0  0
   62.4900   47.4019   35.7411 C   0  0  0  0  0  0
   60.4080   46.8771   34.3822 C   0  0  0  0  0  0
   61.7068   46.7812   30.5464 H   0  0  0  0  0  0
   60.3504   46.6469   27.1314 H   0  0  0  0  0  0
   63.7224   47.6451   27.6983 H   0  0  0  0  0  0
   63.2373   46.1760   26.7717 H   0  0  0  0  0  0
   62.3700   47.6977   26.6234 H   0  0  0  0  0  0
   59.8653   45.7276   30.0614 H   0  0  0  0  0  0
   58.0714   46.4749   27.7393 H   0  0  0  0  0  0
   55.8390   46.4063   28.0587 H   0  0  0  0  0  0
   58.2124   45.8504   31.4785 H   0  0  0  0  0  0
   56.5680   45.4815   31.7124 H   0  0  0  0  0  0
   57.6852   44.2386   31.0381 H   0  0  0  0  0  0
   55.4234   44.3293   30.5751 H   0  0  0  0  0  0
   64.2962   44.9258   28.5404 H   0  0  0  0  0  0
   65.2080   46.3660   28.8775 H   0  0  0  0  0  0
   65.3405   43.6549   30.2733 H   0  0  0  0  0  0
   66.6473   44.4785   29.4409 H   0  0  0  0  0  0
   66.9506   44.5801   31.8324 H   0  0  0  0  0  0
   66.8072   46.1841   31.1506 H   0  0  0  0  0  0
   61.7880   45.7188   32.3004 H   0  0  0  0  0  0
   62.8126   45.4335   33.6040 H   0  0  0  0  0  0
   63.5364   47.9883   33.3737 H   0  0  0  0  0  0
   62.1222   48.1416   32.3858 H   0  0  0  0  0  0
   64.6930   46.0129   34.3362 H   0  0  0  0  0  0
   66.8876   46.9946   33.7387 H   0  0  0  0  0  0
   66.8194   46.0764   35.2449 H   0  0  0  0  0  0
   67.5995   45.3801   33.8363 H   0  0  0  0  0  0
   64.2700   43.5560   34.0627 H   0  0  0  0  0  0
   65.9901   43.3003   33.7888 H   0  0  0  0  0  0
   65.4233   43.9135   35.3372 H   0  0  0  0  0  0
   61.4375   48.7570   34.5391 H   0  0  0  0  0  0
   62.7476   46.3463   35.8290 H   0  0  0  0  0  0
   63.4148   47.9805   35.7940 H   0  0  0  0  0  0
   61.8893   47.6815   36.6021 H   0  0  0  0  0  0
   60.5297   45.8609   34.7580 H   0  0  0  0  0  0
   59.6195   47.3685   34.9389 H   0  0  0  0  0  0
   60.0308   46.8028   33.3616 H   0  0  0  0  0  0
  1  2  2  0  0  0
  1 14  1  0  0  0
  1 17  1  0  0  0
  2  3  1  0  0  0
  2 27  1  0  0  0
  3  4  2  0  0  0
  3  5  1  0  0  0
  4  6  1  0  0  0
  4 28  1  0  0  0
  5 29  1  0  0  0
  5 30  1  0  0  0
  5 31  1  0  0  0
  6  7  2  0  0  0
  6 32  1  0  0  0
  7  8  1  0  0  0
  7 33  1  0  0  0
  8  9  2  0  0  0
  8 10  1  0  0  0
  9 11  1  0  0  0
  9 34  1  0  0  0
 10 35  1  0  0  0
 10 36  1  0  0  0
 10 37  1  0  0  0
 11 12  1  0  0  0
 11 13  2  0  0  0
 12 38  1  0  0  0
 14 15  1  0  0  0
 14 39  1  0  0  0
 14 40  1  0  0  0
 15 16  1  0  0  0
 15 41  1  0  0  0
 15 42  1  0  0  0
 16 18  1  0  0  0
 16 43  1  0  0  0
 16 44  1  0  0  0
 17 18  2  0  0  0
 17 19  1  0  0  0
 18 21  1  0  0  0
 19 20  1  0  0  0
 19 45  1  0  0  0
 19 46  1  0  0  0
 20 24  1  0  0  0
 20 47  1  0  0  0
 20 48  1  0  0  0
 21 22  1  0  0  0
 21 23  1  0  0  0
 21 49  1  0  0  0
 22 50  1  0  0  0
 22 51  1  0  0  0
 22 52  1  0  0  0
 23 53  1  0  0  0
 23 54  1  0  0  0
 23 55  1  0  0  0
 24 25  1  0  0  0
 24 26  1  0  0  0
 24 56  1  0  0  0
 25 57  1  0  0  0
 25 58  1  0  0  0
 25 59  1  0  0  0
 26 60  1  0  0  0
 26 61  1  0  0  0
 26 62  1  0  0  0
M  END
> <s_m_entry_id>
31155

> <s_m_entry_name>
dock_pv.368

> <s_m_Source_Path>
/home/csk/Desktop/cluster/DUD-E-result/rxra

> <s_m_Source_File>
dock_pv.maegz

> <i_m_Source_File_Index>
368

> <chembl_id>
CHEMBL3622724

> <chembl_pref_name>
None

> <i_lp_mmshare_version>
53161

> <r_lp_tautomer_probability>
1

> <s_lp_Force_Field>
OPLS_2005

> <r_lp_Energy>
33.324995

> <b_lp_Chiralities_Consistent>
1

> <s_lp_Variant>
CHEMBL2061_lig506-1

> <s_i_glide_gridfile>
glide-grid_1mv9

> <i_i_glide_lignum>
599

> <i_i_glide_rotatable_bonds>
9

> <r_i_docking_score>
-9.1101524643602

> <r_i_glide_ligand_efficiency>
-0.350390479398469

> <r_i_glide_ligand_efficiency_sa>
-1.038030416498

> <r_i_glide_ligand_efficiency_ln>
-2.13948941340659

> <r_i_glide_gscore>
-9.1101524643602

> <r_i_glide_lipo>
-6.04192727045252

> <r_i_glide_hbond>
-0.240758503256189

> <r_i_glide_metal>
0

> <r_i_glide_rewards>
-1.41709780360331

> <r_i_glide_evdw>
-33.5363082885742

> <r_i_glide_ecoul>
-4.24423551559448

> <r_i_glide_erotb>
0.903081854719698

> <r_i_glide_esite>
0

> <r_i_glide_emodel>
-47.4872667526947

> <r_i_glide_energy>
-37.7805438041687

> <r_i_glide_einternal>
7.23415040969849

> <i_i_glide_confnum>
42

> <i_i_glide_posenum>
118

> <r_i_glide_eff_state_penalty>
0

> <s_user_duplicate_titles>
CHEMBL2061_lig506

> <i_f3d_flags>
0

> <s_m_subgroup_title>
dock_pv

> <s_m_subgroupid>
dock_pv

> <b_m_subgroup_collapsed>
1

$$$$
CHEMBL2061_lig104
                    3D
 Schrodinger Suite 2021-1.
 59 60  0  0  1  0            999 V2000
   63.4598   45.9769   29.5570 C   0  0  0  0  0  0
   62.6571   47.0959   29.7930 C   0  0  0  0  0  0
   64.0965   45.3239   30.6239 C   0  0  0  0  0  0
   62.4599   47.5228   31.1055 C   0  0  0  0  0  0
   63.1032   46.8721   32.1654 C   0  0  0  0  0  0
   63.9422   45.8025   31.9171 C   0  0  0  0  0  0
   63.6512   45.5450   28.2705 O   0  0  0  0  0  0
   62.0117   47.7778   28.6549 C   0  0  0  0  0  0
   56.2279   46.0553   29.2707 C   0  0  0  0  0  0
   55.0119   45.5920   29.8924 C   0  0  0  0  0  0
   62.7850   47.2026   33.5495 C   0  0  0  0  0  0
   59.7596   46.9685   29.3015 C   0  0  0  0  0  0
   57.4974   46.0035   29.7548 C   0  0  0  0  0  0
   60.6789   47.7078   28.4492 C   0  0  0  0  0  0
   58.5151   46.6371   28.9212 C   0  0  0  0  0  0
   53.9313   46.1485   29.7391 O   0  0  0  0  0  0
   64.9357   44.0819   30.4065 C   0  0  0  0  0  0
   63.7270   47.6783   34.4708 C   0  0  0  0  0  0
   61.4651   47.0268   33.9171 C   0  0  0  0  0  0
   62.2660   43.5308   28.1447 C   0  0  0  0  0  0
   62.5674   44.9163   27.5958 C   0  0  0  0  0  0
   61.9319   48.0769   36.0127 C   0  0  0  0  0  0
   55.1605   44.4761   30.6473 O   0  0  0  0  0  0
   63.2174   42.6197   28.1422 F   0  0  0  0  0  0
   61.6862   43.5923   29.3354 F   0  0  0  0  0  0
   63.2950   48.1180   35.7228 C   0  0  0  0  0  0
   61.0481   47.4962   35.1340 C   0  0  0  0  0  0
   61.4119   48.6430   37.1148 F   0  0  0  0  0  0
   62.9493   48.4801   27.6816 C   0  0  0  0  0  0
   57.8773   45.4200   31.1222 C   0  0  0  0  0  0
   64.6742   42.9730   31.4502 C   0  0  0  0  0  0
   66.3979   44.4778   30.1730 C   0  0  0  0  0  0
   61.8065   48.3604   31.3057 H   0  0  0  0  0  0
   64.4201   45.3049   32.7480 H   0  0  0  0  0  0
   56.0292   46.5227   28.3164 H   0  0  0  0  0  0
   60.0948   46.6943   30.2884 H   0  0  0  0  0  0
   60.2733   48.2140   27.5850 H   0  0  0  0  0  0
   58.2634   46.8768   27.9030 H   0  0  0  0  0  0
   64.5827   43.6425   29.4944 H   0  0  0  0  0  0
   64.7665   47.7749   34.1913 H   0  0  0  0  0  0
   60.7384   46.6282   33.2229 H   0  0  0  0  0  0
   61.6081   43.0617   27.4574 H   0  0  0  0  0  0
   61.6468   45.4870   27.6204 H   0  0  0  0  0  0
   62.8080   44.8770   26.5391 H   0  0  0  0  0  0
   56.0670   44.1662   30.6049 H   0  0  0  0  0  0
   63.9947   48.5531   36.4203 H   0  0  0  0  0  0
   60.0080   47.5040   35.3390 H   0  0  0  0  0  0
   63.5072   49.2894   28.1390 H   0  0  0  0  0  0
   63.6757   47.7833   27.2655 H   0  0  0  0  0  0
   62.4049   48.8763   26.8349 H   0  0  0  0  0  0
   58.5800   46.0755   31.6319 H   0  0  0  0  0  0
   57.0562   45.3591   31.8319 H   0  0  0  0  0  0
   58.3769   44.4570   31.0075 H   0  0  0  0  0  0
   63.6080   42.8260   31.6096 H   0  0  0  0  0  0
   65.0544   42.0108   31.1012 H   0  0  0  0  0  0
   65.1147   43.1950   32.4243 H   0  0  0  0  0  0
   66.4338   45.2755   29.4338 H   0  0  0  0  0  0
   66.8592   44.8562   31.0843 H   0  0  0  0  0  0
   66.9982   43.6648   29.7728 H   0  0  0  0  0  0
  1  2  1  0  0  0
  1  3  2  0  0  0
  1  7  1  0  0  0
  2  4  2  0  0  0
  2  8  1  0  0  0
  3  6  1  0  0  0
  3 17  1  0  0  0
  4  5  1  0  0  0
  4 33  1  0  0  0
  5  6  2  0  0  0
  5 11  1  0  0  0
  6 34  1  0  0  0
  7 21  1  0  0  0
  8 14  2  0  0  0
  8 29  1  0  0  0
  9 13  2  0  0  0
  9 10  1  0  0  0
  9 35  1  0  0  0
 10 16  2  0  0  0
 10 23  1  0  0  0
 11 18  2  0  0  0
 11 19  1  0  0  0
 12 14  1  0  0  0
 12 15  2  0  0  0
 12 36  1  0  0  0
 13 15  1  0  0  0
 13 30  1  0  0  0
 14 37  1  0  0  0
 15 38  1  0  0  0
 17 31  1  0  0  0
 17 32  1  0  0  0
 17 39  1  0  0  0
 18 26  1  0  0  0
 18 40  1  0  0  0
 19 27  2  0  0  0
 19 41  1  0  0  0
 20 21  1  0  0  0
 20 24  1  0  0  0
 20 25  1  0  0  0
 20 42  1  0  0  0
 21 43  1  0  0  0
 21 44  1  0  0  0
 22 27  1  0  0  0
 22 28  1  0  0  0
 22 26  2  0  0  0
 23 45  1  0  0  0
 26 46  1  0  0  0
 27 47  1  0  0  0
 29 48  1  0  0  0
 29 49  1  0  0  0
 29 50  1  0  0  0
 30 51  1  0  0  0
 30 52  1  0  0  0
 30 53  1  0  0  0
 31 54  1  0  0  0
 31 55  1  0  0  0
 31 56  1  0  0  0
 32 57  1  0  0  0
 32 58  1  0  0  0
 32 59  1  0  0  0
M  END
> <s_m_entry_id>
31156

> <s_m_entry_name>
dock_pv.369

> <s_m_Source_Path>
/home/csk/Desktop/cluster/DUD-E-result/rxra

> <s_m_Source_File>
dock_pv.maegz

> <i_m_Source_File_Index>
369

> <chembl_id>
CHEMBL133915

> <chembl_pref_name>
None

> <i_lp_mmshare_version>
53161

> <r_lp_tautomer_probability>
1

> <s_lp_Force_Field>
OPLS_2005

> <r_lp_Energy>
32.774968

> <b_lp_Chiralities_Consistent>
1

> <s_lp_Variant>
CHEMBL2061_lig104-1

> <s_i_glide_gridfile>
glide-grid_1mv9

> <i_i_glide_lignum>
143

> <i_i_glide_rotatable_bonds>
10

> <r_i_docking_score>
-9.10682261949584

> <r_i_glide_ligand_efficiency>
-0.284588206859245

> <r_i_glide_ligand_efficiency_sa>
-0.903511236848442

> <r_i_glide_ligand_efficiency_ln>
-2.03926582711406

> <r_i_glide_gscore>
-9.10682261949584

> <r_i_glide_lipo>
-6.03028430703788

> <r_i_glide_hbond>
-0.161847291019379

> <r_i_glide_metal>
0

> <r_i_glide_rewards>
-1.85458220781585

> <r_i_glide_evdw>
-25.4829025268555

> <r_i_glide_ecoul>
-3.2972891330719

> <r_i_glide_erotb>
0.708629682680817

> <r_i_glide_esite>
0

> <r_i_glide_emodel>
-25.8042935054056

> <r_i_glide_energy>
-28.7801916599274

> <r_i_glide_einternal>
10.2812271118164

> <i_i_glide_confnum>
108

> <i_i_glide_posenum>
148

> <r_i_glide_eff_state_penalty>
0

> <s_user_duplicate_titles>
CHEMBL2061_lig104,217494

> <i_f3d_flags>
0

> <s_m_subgroup_title>
dock_pv

> <s_m_subgroupid>
dock_pv

> <b_m_subgroup_collapsed>
1

$$$$
CHEMBL2061_lig539 
                    3D
 Schrodinger Suite 2021-1.
 32 33  0  0  1  0            999 V2000
   59.0885   45.8047   29.6965 C   0  0  0  0  0  0
   58.4082   45.4285   30.8556 C   0  0  0  0  0  0
   57.0242   45.2905   30.8418 C   0  0  0  0  0  0
   56.2901   45.6254   29.7020 C   0  0  0  0  0  0
   56.9708   46.0011   28.5413 C   0  0  0  0  0  0
   58.3613   46.0771   28.5388 C   0  0  0  0  0  0
   54.7896   45.5966   29.7484 C   0  0  0  0  0  0
   54.2018   46.5260   28.9408 O   0  0  0  0  0  0
   54.1561   44.8778   30.5234 O   0  0  0  0  0  0
   60.6137   45.8420   29.6323 C   0  0  0  0  0  0
   61.2167   46.2615   30.8598 O   0  0  0  0  0  0
   62.5838   46.0771   31.0367 C   0  0  0  0  0  0
   63.1564   46.4344   32.2746 C   0  0  0  0  0  0
   64.5208   46.2006   32.5042 C   0  0  0  0  0  0
   65.3266   45.6559   31.5105 C   0  0  0  0  0  0
   64.7791   45.3330   30.2753 C   0  0  0  0  0  0
   63.4230   45.5408   30.0405 C   0  0  0  0  0  0
   62.3096   47.0780   33.3735 C   0  0  0  0  0  0
   61.1764   46.4064   33.5808 F   0  0  0  0  0  0
   62.9522   47.1524   34.5429 F   0  0  0  0  0  0
   62.0097   48.3169   32.9891 F   0  0  0  0  0  0
   58.9429   45.2774   31.7794 H   0  0  0  0  0  0
   56.5108   45.0011   31.7391 H   0  0  0  0  0  0
   56.4333   46.2114   27.6269 H   0  0  0  0  0  0
   58.8737   46.3515   27.6273 H   0  0  0  0  0  0
   54.8773   47.0524   28.5091 H   0  0  0  0  0  0
   60.9262   44.8307   29.3701 H   0  0  0  0  0  0
   60.9385   46.5168   28.8382 H   0  0  0  0  0  0
   64.9738   46.4627   33.4504 H   0  0  0  0  0  0
   66.3796   45.4974   31.6939 H   0  0  0  0  0  0
   65.4080   44.9229   29.4999 H   0  0  0  0  0  0
   63.0449   45.2705   29.0667 H   0  0  0  0  0  0
  1  2  2  0  0  0
  1  6  1  0  0  0
  1 10  1  0  0  0
  2  3  1  0  0  0
  2 22  1  0  0  0
  3  4  2  0  0  0
  3 23  1  0  0  0
  4  5  1  0  0  0
  4  7  1  0  0  0
  5  6  2  0  0  0
  5 24  1  0  0  0
  6 25  1  0  0  0
  7  8  1  0  0  0
  7  9  2  0  0  0
  8 26  1  0  0  0
 10 11  1  0  0  0
 10 27  1  0  0  0
 10 28  1  0  0  0
 11 12  1  0  0  0
 12 13  2  0  0  0
 12 17  1  0  0  0
 13 14  1  0  0  0
 13 18  1  0  0  0
 14 15  2  0  0  0
 14 29  1  0  0  0
 15 16  1  0  0  0
 15 30  1  0  0  0
 16 17  2  0  0  0
 16 31  1  0  0  0
 17 32  1  0  0  0
 18 19  1  0  0  0
 18 20  1  0  0  0
 18 21  1  0  0  0
M  END
> <s_m_entry_id>
31157

> <s_m_entry_name>
dock_pv.370

> <s_m_Source_Path>
/home/csk/Desktop/cluster/DUD-E-result/rxra

> <s_m_Source_File>
dock_pv.maegz

> <i_m_Source_File_Index>
370

> <chembl_id>
CHEMBL4551159

> <chembl_pref_name>
None

> <i_lp_mmshare_version>
53161

> <r_lp_tautomer_probability>
1

> <s_lp_Force_Field>
OPLS_2005

> <r_lp_Energy>
19.980418

> <b_lp_Chiralities_Consistent>
1

> <s_lp_Variant>
CHEMBL2061_lig539 -1

> <s_i_glide_gridfile>
glide-grid_1mv9

> <i_i_glide_lignum>
639

> <i_i_glide_rotatable_bonds>
6

> <r_i_docking_score>
-9.09696017145509

> <r_i_glide_ligand_efficiency>
-0.4331885795931

> <r_i_glide_ligand_efficiency_sa>
-1.19513444395873

> <r_i_glide_ligand_efficiency_ln>
-2.24920502025341

> <r_i_glide_gscore>
-9.09696017145509

> <r_i_glide_lipo>
-3.95557859116382

> <r_i_glide_hbond>
-0.319951139923433

> <r_i_glide_metal>
0

> <r_i_glide_rewards>
-3.39163318582653

> <r_i_glide_evdw>
-35.020809173584

> <r_i_glide_ecoul>
-3.42420434951782

> <r_i_glide_erotb>
0.834873856565556

> <r_i_glide_esite>
0

> <r_i_glide_emodel>
-57.03547438007

> <r_i_glide_energy>
-38.4450135231018

> <r_i_glide_einternal>
4.99210453033447

> <i_i_glide_confnum>
8

> <i_i_glide_posenum>
391

> <r_i_glide_eff_state_penalty>
0

> <s_user_duplicate_titles>
CHEMBL2061_lig539 

> <i_f3d_flags>
0

> <s_m_subgroup_title>
dock_pv

> <s_m_subgroupid>
dock_pv

> <b_m_subgroup_collapsed>
1

$$$$
CHEMBL2061_lig503
                    3D
 Schrodinger Suite 2021-1.
 57 58  0  0  1  0            999 V2000
   62.7466   45.5426   30.2421 C   0  0  0  0  0  0
   61.7762   46.1691   29.5311 C   0  0  0  0  0  0
   61.6395   46.2690   28.0888 C   0  0  0  0  0  0
   60.4246   46.3186   27.5005 C   0  0  0  0  0  0
   62.8729   46.4656   27.2233 C   0  0  0  0  0  0
   59.0988   46.2609   28.0931 C   0  0  0  0  0  0
   58.6753   45.5509   29.1578 C   0  0  0  0  0  0
   57.3177   45.5471   29.7020 C   0  0  0  0  0  0
   56.2462   45.8528   28.9175 C   0  0  0  0  0  0
   57.1809   45.1693   31.1718 C   0  0  0  0  0  0
   54.8647   45.8641   29.3385 C   0  0  0  0  0  0
   54.4477   44.6383   29.7634 O   0  0  0  0  0  0
   54.1176   46.8379   29.2348 O   0  0  0  0  0  0
   63.8046   44.6618   29.5490 C   0  0  0  0  0  0
   64.3675   43.5911   30.4986 C   0  0  0  0  0  0
   64.8934   44.2462   31.7723 C   0  0  0  0  0  0
   62.8230   45.7260   31.7112 C   0  0  0  0  0  0
   63.8265   45.1130   32.4117 C   0  0  0  0  0  0
   61.8110   46.6560   32.4527 C   0  0  0  0  0  0
   60.3731   46.1066   32.5811 C   0  0  0  0  0  0
   61.9219   48.1345   32.0083 C   0  0  0  0  0  0
   64.1394   45.5416   33.7758 C   0  0  0  0  0  0
   64.0072   44.6453   34.8323 C   0  0  0  0  0  0
   64.0087   45.1338   36.1285 C   0  0  0  0  0  0
   64.2087   46.4904   36.3486 C   0  0  0  0  0  0
   64.4067   47.3722   35.3010 C   0  0  0  0  0  0
   64.4417   46.8834   34.0102 C   0  0  0  0  0  0
   61.0165   46.7183   30.0567 H   0  0  0  0  0  0
   60.4048   46.4222   26.4302 H   0  0  0  0  0  0
   63.7201   46.8489   27.7929 H   0  0  0  0  0  0
   63.1323   45.5597   26.6812 H   0  0  0  0  0  0
   62.6705   47.2475   26.4951 H   0  0  0  0  0  0
   58.3958   46.8773   27.5863 H   0  0  0  0  0  0
   59.3975   44.9189   29.6541 H   0  0  0  0  0  0
   56.3668   46.1264   27.8811 H   0  0  0  0  0  0
   57.9674   44.4747   31.4693 H   0  0  0  0  0  0
   57.2220   46.0548   31.8100 H   0  0  0  0  0  0
   56.2596   44.6274   31.3576 H   0  0  0  0  0  0
   55.1562   44.0025   29.6411 H   0  0  0  0  0  0
   63.3719   44.1440   28.6920 H   0  0  0  0  0  0
   64.6203   45.2755   29.1673 H   0  0  0  0  0  0
   63.6144   42.8466   30.7459 H   0  0  0  0  0  0
   65.1730   43.0334   30.0221 H   0  0  0  0  0  0
   65.7807   44.8442   31.5536 H   0  0  0  0  0  0
   65.2042   43.4959   32.4977 H   0  0  0  0  0  0
   62.0408   46.7097   33.5119 H   0  0  0  0  0  0
   60.2970   45.3216   33.3362 H   0  0  0  0  0  0
   59.6950   46.8756   32.9322 H   0  0  0  0  0  0
   59.9804   45.7015   31.6549 H   0  0  0  0  0  0
   62.8075   48.2973   31.3990 H   0  0  0  0  0  0
   61.0855   48.4765   31.4110 H   0  0  0  0  0  0
   61.9962   48.8088   32.8634 H   0  0  0  0  0  0
   63.7911   43.6022   34.6493 H   0  0  0  0  0  0
   63.8387   44.4720   36.9603 H   0  0  0  0  0  0
   64.2049   46.8892   37.3399 H   0  0  0  0  0  0
   64.5321   48.4269   35.4989 H   0  0  0  0  0  0
   64.5687   47.5693   33.1881 H   0  0  0  0  0  0
  1  2  2  0  0  0
  1 14  1  0  0  0
  1 17  1  0  0  0
  2  3  1  0  0  0
  2 28  1  0  0  0
  3  4  2  0  0  0
  3  5  1  0  0  0
  4  6  1  0  0  0
  4 29  1  0  0  0
  5 30  1  0  0  0
  5 31  1  0  0  0
  5 32  1  0  0  0
  6  7  2  0  0  0
  6 33  1  0  0  0
  7  8  1  0  0  0
  7 34  1  0  0  0
  8  9  2  0  0  0
  8 10  1  0  0  0
  9 11  1  0  0  0
  9 35  1  0  0  0
 10 36  1  0  0  0
 10 37  1  0  0  0
 10 38  1  0  0  0
 11 12  1  0  0  0
 11 13  2  0  0  0
 12 39  1  0  0  0
 14 15  1  0  0  0
 14 40  1  0  0  0
 14 41  1  0  0  0
 15 16  1  0  0  0
 15 42  1  0  0  0
 15 43  1  0  0  0
 16 18  1  0  0  0
 16 44  1  0  0  0
 16 45  1  0  0  0
 17 18  2  0  0  0
 17 19  1  0  0  0
 18 22  1  0  0  0
 19 20  1  0  0  0
 19 21  1  0  0  0
 19 46  1  0  0  0
 20 47  1  0  0  0
 20 48  1  0  0  0
 20 49  1  0  0  0
 21 50  1  0  0  0
 21 51  1  0  0  0
 21 52  1  0  0  0
 22 23  2  0  0  0
 22 27  1  0  0  0
 23 24  1  0  0  0
 23 53  1  0  0  0
 24 25  2  0  0  0
 24 54  1  0  0  0
 25 26  1  0  0  0
 25 55  1  0  0  0
 26 27  2  0  0  0
 26 56  1  0  0  0
 27 57  1  0  0  0
M  END
> <s_m_entry_id>
31158

> <s_m_entry_name>
dock_pv.371

> <s_m_Source_Path>
/home/csk/Desktop/cluster/DUD-E-result/rxra

> <s_m_Source_File>
dock_pv.maegz

> <i_m_Source_File_Index>
371

> <chembl_id>
CHEMBL3622721

> <chembl_pref_name>
None

> <i_lp_mmshare_version>
53161

> <r_lp_tautomer_probability>
1

> <s_lp_Force_Field>
OPLS_2005

> <r_lp_Energy>
44.052208

> <b_lp_Chiralities_Consistent>
1

> <s_lp_Variant>
CHEMBL2061_lig503-1

> <s_i_glide_gridfile>
glide-grid_1mv9

> <i_i_glide_lignum>
596

> <i_i_glide_rotatable_bonds>
7

> <r_i_docking_score>
-9.09060602819883

> <r_i_glide_ligand_efficiency>
-0.336689112155512

> <r_i_glide_ligand_efficiency_sa>
-1.01006733535686

> <r_i_glide_ligand_efficiency_ln>
-2.11614321301131

> <r_i_glide_gscore>
-9.09060602819883

> <r_i_glide_lipo>
-5.76809098554697

> <r_i_glide_hbond>
-0.0448831947741994

> <r_i_glide_metal>
0

> <r_i_glide_rewards>
-1.8155317389299

> <r_i_glide_evdw>
-34.3034782409668

> <r_i_glide_ecoul>
-3.18381142616272

> <r_i_glide_erotb>
0.730645517024998

> <r_i_glide_esite>
0

> <r_i_glide_emodel>
-47.9908564776362

> <r_i_glide_energy>
-37.4872896671295

> <r_i_glide_einternal>
9.22552394866943

> <i_i_glide_confnum>
49

> <i_i_glide_posenum>
27

> <r_i_glide_eff_state_penalty>
0

> <s_user_duplicate_titles>
CHEMBL2061_lig503

> <i_f3d_flags>
0

> <s_m_subgroup_title>
dock_pv

> <s_m_subgroupid>
dock_pv

> <b_m_subgroup_collapsed>
1

$$$$
CHEMBL2061_lig552 
                    3D
 Schrodinger Suite 2021-1.
 36 38  0  0  1  0            999 V2000
   60.9771   46.4946   30.2604 C   0  0  0  0  0  0
   61.6687   47.0985   29.2107 C   0  0  0  0  0  0
   60.9729   47.2753   28.0199 C   0  0  0  0  0  0
   59.6805   46.8801   27.8689 N   0  0  0  0  0  0
   59.0950   46.3031   28.9491 C   0  0  0  0  0  0
   59.6956   46.0769   30.1396 N   0  0  0  0  0  0
   61.5087   46.4189   31.5422 N   0  0  0  0  0  0
   62.8246   46.3426   32.0107 C   0  0  0  0  0  0
   63.8837   45.8960   31.2084 C   0  0  0  0  0  0
   65.1663   45.7661   31.7414 C   0  0  0  0  0  0
   65.3963   46.0764   33.0821 C   0  0  0  0  0  0
   57.3903   45.8809   28.8078 S   0  0  0  0  0  0
   56.8863   44.9028   30.2481 C   0  0  0  0  0  0
   55.3689   44.8789   30.3890 C   0  0  0  0  0  0
   54.7420   44.2770   29.3393 O   0  0  0  0  0  0
   54.7822   45.3825   31.3389 O   0  0  0  0  0  0
   61.7812   48.0769   26.7341 Cl  0  0  0  0  0  0
   63.0589   46.6367   33.3543 C   0  0  0  0  0  0
   64.3415   46.5093   33.8883 C   0  0  0  0  0  0
   64.3533   46.9872   35.3219 C   0  0  0  0  0  0
   62.8766   47.0865   35.6886 C   0  0  0  0  0  0
   62.1115   47.2250   34.3822 C   0  0  0  0  0  0
   66.9773   45.8959   33.7389 Cl  0  0  0  0  0  0
   62.6709   47.4785   29.3255 H   0  0  0  0  0  0
   60.8076   46.3282   32.2629 H   0  0  0  0  0  0
   63.7165   45.6153   30.1797 H   0  0  0  0  0  0
   65.9786   45.4203   31.1180 H   0  0  0  0  0  0
   57.3333   45.3159   31.1534 H   0  0  0  0  0  0
   57.2595   43.8837   30.1385 H   0  0  0  0  0  0
   55.3304   43.9236   28.6652 H   0  0  0  0  0  0
   64.9005   46.3374   36.0044 H   0  0  0  0  0  0
   64.8074   47.9783   35.3538 H   0  0  0  0  0  0
   62.5765   46.1415   36.1390 H   0  0  0  0  0  0
   62.6621   47.8834   36.4044 H   0  0  0  0  0  0
   61.9285   48.2785   34.1664 H   0  0  0  0  0  0
   61.1464   46.7208   34.4335 H   0  0  0  0  0  0
  1  2  2  0  0  0
  1  6  1  0  0  0
  1  7  1  0  0  0
  2  3  1  0  0  0
  2 24  1  0  0  0
  3  4  2  0  0  0
  3 17  1  0  0  0
  4  5  1  0  0  0
  5  6  2  0  0  0
  5 12  1  0  0  0
  7  8  1  0  0  0
  7 25  1  0  0  0
  8  9  2  0  0  0
  8 18  1  0  0  0
  9 10  1  0  0  0
  9 26  1  0  0  0
 10 11  2  0  0  0
 10 27  1  0  0  0
 11 19  1  0  0  0
 11 23  1  0  0  0
 12 13  1  0  0  0
 13 14  1  0  0  0
 13 28  1  0  0  0
 13 29  1  0  0  0
 14 15  1  0  0  0
 14 16  2  0  0  0
 15 30  1  0  0  0
 18 19  2  0  0  0
 18 22  1  0  0  0
 19 20  1  0  0  0
 20 21  1  0  0  0
 20 31  1  0  0  0
 20 32  1  0  0  0
 21 22  1  0  0  0
 21 33  1  0  0  0
 21 34  1  0  0  0
 22 35  1  0  0  0
 22 36  1  0  0  0
M  END
> <s_m_entry_id>
31159

> <s_m_entry_name>
dock_pv.372

> <s_m_Source_Path>
/home/csk/Desktop/cluster/DUD-E-result/rxra

> <s_m_Source_File>
dock_pv.maegz

> <i_m_Source_File_Index>
372

> <chembl_id>
CHEMBL4458208

> <chembl_pref_name>
None

> <i_lp_mmshare_version>
53161

> <r_lp_tautomer_probability>
0.999999998296584

> <s_lp_Force_Field>
OPLS_2005

> <r_lp_Energy>
14.973232

> <b_lp_Chiralities_Consistent>
1

> <s_lp_Variant>
CHEMBL2061_lig552 -1

> <s_i_glide_gridfile>
glide-grid_1mv9

> <i_i_glide_lignum>
652

> <i_i_glide_rotatable_bonds>
6

> <r_i_docking_score>
-9.08810160378048

> <r_i_glide_ligand_efficiency>
-0.395134852338282

> <r_i_glide_ligand_efficiency_sa>
-1.1237109579789

> <r_i_glide_ligand_efficiency_ln>
-2.19758537414339

> <r_i_glide_gscore>
-9.08810160378048

> <r_i_glide_lipo>
-4.52091018696181

> <r_i_glide_hbond>
-0.0576470865731265

> <r_i_glide_metal>
0

> <r_i_glide_rewards>
-2.23349920390333

> <r_i_glide_evdw>
-44.2466812133789

> <r_i_glide_ecoul>
-5.11516904830933

> <r_i_glide_erotb>
0.703564291573131

> <r_i_glide_esite>
0

> <r_i_glide_emodel>
-74.5372302980916

> <r_i_glide_energy>
-49.3618502616882

> <r_i_glide_einternal>
5.4111499786377

> <i_i_glide_confnum>
63

> <i_i_glide_posenum>
63

> <r_i_glide_eff_state_penalty>
0

> <s_user_duplicate_titles>
CHEMBL2061_lig552 

> <i_f3d_flags>
0

> <s_m_subgroup_title>
dock_pv

> <s_m_subgroupid>
dock_pv

> <b_m_subgroup_collapsed>
1

$$$$
CHEMBL2061_lig538 
                    3D
 Schrodinger Suite 2021-1.
 33 34  0  0  1  0            999 V2000
   58.9725   45.6888   29.7389 C   0  0  0  0  0  0
   58.2733   46.0770   28.5954 C   0  0  0  0  0  0
   56.8815   46.0682   28.5829 C   0  0  0  0  0  0
   56.1723   45.6680   29.7205 C   0  0  0  0  0  0
   56.8725   45.2530   30.8534 C   0  0  0  0  0  0
   58.2629   45.2770   30.8684 C   0  0  0  0  0  0
   54.6718   45.6773   29.7429 C   0  0  0  0  0  0
   54.1204   46.6971   29.0213 O   0  0  0  0  0  0
   54.0091   44.9105   30.4425 O   0  0  0  0  0  0
   60.4988   45.6766   29.7255 C   0  0  0  0  0  0
   61.0336   46.1869   30.9466 O   0  0  0  0  0  0
   62.4024   46.1268   31.1679 C   0  0  0  0  0  0
   62.8707   46.4975   32.4420 C   0  0  0  0  0  0
   64.2488   46.4254   32.7130 C   0  0  0  0  0  0
   65.1498   46.0070   31.7374 C   0  0  0  0  0  0
   64.6895   45.6472   30.4770 C   0  0  0  0  0  0
   63.3272   45.7038   30.1933 C   0  0  0  0  0  0
   61.9286   46.9099   33.3708 O   0  0  0  0  0  0
   62.3201   47.2754   34.6969 C   0  0  0  0  0  0
   61.2167   47.6165   35.3610 F   0  0  0  0  0  0
   62.8772   46.2526   35.3465 F   0  0  0  0  0  0
   63.1316   48.3341   34.7031 F   0  0  0  0  0  0
   58.8080   46.3804   27.7076 H   0  0  0  0  0  0
   56.3695   46.3514   27.6761 H   0  0  0  0  0  0
   56.3417   44.9435   31.7376 H   0  0  0  0  0  0
   58.7794   45.0010   31.7731 H   0  0  0  0  0  0
   54.8155   47.2406   28.6442 H   0  0  0  0  0  0
   60.8152   44.6461   29.5737 H   0  0  0  0  0  0
   60.8692   46.2745   28.8904 H   0  0  0  0  0  0
   64.6505   46.6961   33.6769 H   0  0  0  0  0  0
   66.2072   45.9673   31.9573 H   0  0  0  0  0  0
   65.3894   45.3280   29.7196 H   0  0  0  0  0  0
   63.0103   45.4123   29.2034 H   0  0  0  0  0  0
  1  2  2  0  0  0
  1  6  1  0  0  0
  1 10  1  0  0  0
  2  3  1  0  0  0
  2 23  1  0  0  0
  3  4  2  0  0  0
  3 24  1  0  0  0
  4  5  1  0  0  0
  4  7  1  0  0  0
  5  6  2  0  0  0
  5 25  1  0  0  0
  6 26  1  0  0  0
  7  8  1  0  0  0
  7  9  2  0  0  0
  8 27  1  0  0  0
 10 11  1  0  0  0
 10 28  1  0  0  0
 10 29  1  0  0  0
 11 12  1  0  0  0
 12 13  2  0  0  0
 12 17  1  0  0  0
 13 14  1  0  0  0
 13 18  1  0  0  0
 14 15  2  0  0  0
 14 30  1  0  0  0
 15 16  1  0  0  0
 15 31  1  0  0  0
 16 17  2  0  0  0
 16 32  1  0  0  0
 17 33  1  0  0  0
 18 19  1  0  0  0
 19 20  1  0  0  0
 19 21  1  0  0  0
 19 22  1  0  0  0
M  END
> <s_m_entry_id>
31160

> <s_m_entry_name>
dock_pv.373

> <s_m_Source_Path>
/home/csk/Desktop/cluster/DUD-E-result/rxra

> <s_m_Source_File>
dock_pv.maegz

> <i_m_Source_File_Index>
373

> <chembl_id>
CHEMBL4513660

> <chembl_pref_name>
None

> <i_lp_mmshare_version>
53161

> <r_lp_tautomer_probability>
1

> <s_lp_Force_Field>
OPLS_2005

> <r_lp_Energy>
18.366142

> <b_lp_Chiralities_Consistent>
1

> <s_lp_Variant>
CHEMBL2061_lig538 -1

> <s_i_glide_gridfile>
glide-grid_1mv9

> <i_i_glide_lignum>
638

> <i_i_glide_rotatable_bonds>
7

> <r_i_docking_score>
-9.07844850786982

> <r_i_glide_ligand_efficiency>
-0.412656750357719

> <r_i_glide_ligand_efficiency_sa>
-1.1562804433714

> <r_i_glide_ligand_efficiency_ln>
-2.21910395977861

> <r_i_glide_gscore>
-9.07844850786982

> <r_i_glide_lipo>
-3.98814632164349

> <r_i_glide_hbond>
-0.379134274074482

> <r_i_glide_metal>
0

> <r_i_glide_rewards>
-3.22327326842622

> <r_i_glide_evdw>
-37.6088790893555

> <r_i_glide_ecoul>
-3.72760939598083

> <r_i_glide_erotb>
0.951690720139273

> <r_i_glide_esite>
0

> <r_i_glide_emodel>
-62.3295679530434

> <r_i_glide_energy>
-41.3364884853363

> <r_i_glide_einternal>
4.13272380828857

> <i_i_glide_confnum>
30

> <i_i_glide_posenum>
63

> <r_i_glide_eff_state_penalty>
0

> <s_user_duplicate_titles>
CHEMBL2061_lig538 

> <i_f3d_flags>
0

> <s_m_subgroup_title>
dock_pv

> <s_m_subgroupid>
dock_pv

> <b_m_subgroup_collapsed>
1

$$$$
CHEMBL2061_lig56
                    3D
 Schrodinger Suite 2021-1.
 42 44  0  0  1  0            999 V2000
   62.8121   45.4673   28.4183 C   0  0  0  0  0  0
   56.1387   44.4771   30.5384 N   0  0  0  0  0  0
   57.4488   45.7151   29.1907 N   0  0  0  0  0  0
   61.2686   46.0390   27.7384 S   0  0  0  0  0  0
   57.3674   44.7478   30.1674 C   0  0  0  0  0  0
   63.7752   46.4198   28.7469 C   0  0  0  0  0  0
   62.9945   44.1430   28.8435 C   0  0  0  0  0  0
   55.3806   45.2505   29.7866 C   0  0  0  0  0  0
   56.1389   46.0370   28.9380 C   0  0  0  0  0  0
   58.6096   46.2749   28.4965 C   0  0  0  0  0  0
   59.9993   45.8779   29.0515 C   0  0  2  0  0  0
   61.9455   47.6137   35.0723 C   0  0  0  0  0  0
   63.6080   48.0398   28.1389 Cl  0  0  0  0  0  0
   62.0080   42.8788   28.2771 Cl  0  0  0  0  0  0
   61.6907   46.5327   32.5550 C   0  0  0  0  0  0
   61.9303   48.4767   36.5390 Cl  0  0  0  0  0  0
   60.3013   46.5900   30.3735 C   0  0  0  0  0  0
   61.5290   46.0786   31.1200 C   0  0  0  0  0  0
   62.8483   47.9819   34.0936 C   0  0  0  0  0  0
   61.0130   46.6100   34.8531 C   0  0  0  0  0  0
   62.7400   47.4038   32.8424 C   0  0  0  0  0  0
   60.8411   46.0951   33.5740 C   0  0  0  0  0  0
   64.8728   44.7914   30.1945 C   0  0  0  0  0  0
   64.7573   46.0795   29.6908 C   0  0  0  0  0  0
   64.0072   43.8089   29.7391 C   0  0  0  0  0  0
   58.2558   44.2728   30.5549 H   0  0  0  0  0  0
   54.3039   45.2255   29.8468 H   0  0  0  0  0  0
   55.8724   46.7651   28.1867 H   0  0  0  0  0  0
   58.5115   47.3591   28.5390 H   0  0  0  0  0  0
   58.5230   45.9782   27.4521 H   0  0  0  0  0  0
   59.9906   44.8428   29.3390 H   0  0  0  0  0  0
   60.4368   47.6468   30.1391 H   0  0  0  0  0  0
   59.4398   46.4764   31.0319 H   0  0  0  0  0  0
   61.6730   45.0154   30.9681 H   0  0  0  0  0  0
   62.3512   46.5491   30.6258 H   0  0  0  0  0  0
   63.6025   48.7310   34.2861 H   0  0  0  0  0  0
   60.4080   46.2740   35.6720 H   0  0  0  0  0  0
   63.4435   47.6775   32.0726 H   0  0  0  0  0  0
   60.0563   45.3785   33.3820 H   0  0  0  0  0  0
   65.6353   44.5558   30.9224 H   0  0  0  0  0  0
   65.3876   46.8453   30.1153 H   0  0  0  0  0  0
   64.1169   42.7904   30.0838 H   0  0  0  0  0  0
  1  4  1  0  0  0
  1  6  1  0  0  0
  1  7  2  0  0  0
  2  5  2  0  0  0
  2  8  1  0  0  0
  3 10  1  0  0  0
  3  5  1  0  0  0
  3  9  1  0  0  0
  4 11  1  0  0  0
  5 26  1  0  0  0
  6 13  1  0  0  0
  6 24  2  0  0  0
  7 14  1  0  0  0
  7 25  1  0  0  0
  8  9  2  0  0  0
  8 27  1  0  0  0
  9 28  1  0  0  0
 10 11  1  0  0  0
 10 29  1  0  0  0
 10 30  1  0  0  0
 11 17  1  0  0  0
 11 31  1  0  0  0
 12 20  1  0  0  0
 12 16  1  0  0  0
 12 19  2  0  0  0
 15 18  1  0  0  0
 15 21  2  0  0  0
 15 22  1  0  0  0
 17 18  1  0  0  0
 17 32  1  0  0  0
 17 33  1  0  0  0
 18 34  1  0  0  0
 18 35  1  0  0  0
 19 21  1  0  0  0
 19 36  1  0  0  0
 20 22  2  0  0  0
 20 37  1  0  0  0
 21 38  1  0  0  0
 22 39  1  0  0  0
 23 25  2  0  0  0
 23 24  1  0  0  0
 23 40  1  0  0  0
 24 41  1  0  0  0
 25 42  1  0  0  0
M  END
> <s_m_entry_id>
31161

> <s_m_entry_name>
dock_pv.374

> <s_m_Source_Path>
/home/csk/Desktop/cluster/DUD-E-result/rxra

> <s_m_Source_File>
dock_pv.maegz

> <i_m_Source_File_Index>
374

> <chembl_id>
CHEMBL1295

> <chembl_pref_name>
BUTOCONAZOLE

> <i_lp_mmshare_version>
53161

> <r_lp_tautomer_probability>
1

> <s_lp_Force_Field>
OPLS_2005

> <r_lp_Energy>
15.596716

> <b_lp_Chiralities_Consistent>
1

> <s_lp_Variant>
CHEMBL2061_lig56-2

> <s_i_glide_gridfile>
glide-grid_1mv9

> <i_i_glide_lignum>
79

> <i_i_glide_rotatable_bonds>
7

> <r_i_docking_score>
-9.07560339753259

> <r_i_glide_ligand_efficiency>
-0.363024135901304

> <r_i_glide_ligand_efficiency_sa>
-1.06148901163588

> <r_i_glide_ligand_efficiency_ln>
-2.1511899791021

> <r_i_glide_gscore>
-9.07560339753259

> <r_i_glide_lipo>
-5.49630978026021

> <r_i_glide_hbond>
0

> <r_i_glide_metal>
0

> <r_i_glide_rewards>
-2.38685206954421

> <r_i_glide_evdw>
-30.6649208068848

> <r_i_glide_ecoul>
-0.828202724456787

> <r_i_glide_erotb>
0.465034901284585

> <r_i_glide_esite>
0

> <r_i_glide_emodel>
-33.8703409718104

> <r_i_glide_energy>
-31.4931235313416

> <r_i_glide_einternal>
5.54838228225708

> <i_i_glide_confnum>
40

> <i_i_glide_posenum>
217

> <r_i_glide_eff_state_penalty>
0

> <s_user_duplicate_titles>
CHEMBL2061_lig56

> <i_f3d_flags>
0

> <s_m_subgroup_title>
dock_pv

> <s_m_subgroupid>
dock_pv

> <b_m_subgroup_collapsed>
1

$$$$
CHEMBL2061_lig27
                    3D
 Schrodinger Suite 2021-1.
 53 53  0  0  1  0            999 V2000
   63.2646   46.3959   33.2298 C   0  0  0  0  0  0
   63.2031   46.1210   31.7986 C   0  0  0  0  0  0
   62.5716   47.4353   33.7535 C   0  0  0  0  0  0
   64.1191   45.4839   34.1330 C   0  0  2  0  0  0
   62.0674   46.0939   31.0750 C   0  0  0  0  0  0
   55.9530   46.1254   28.8990 C   0  0  0  0  0  0
   54.5816   46.2213   29.3390 C   0  0  0  0  0  0
   59.4901   45.6769   29.6416 C   0  0  0  0  0  0
   57.0123   45.6797   29.6193 C   0  0  0  0  0  0
   61.9877   45.8806   29.6273 C   0  0  0  0  0  0
   58.3220   45.7566   28.9772 C   0  0  0  0  0  0
   60.7957   45.7331   29.0019 C   0  0  0  0  0  0
   54.0100   45.4748   30.1323 O   0  0  0  0  0  0
   53.9589   47.2767   28.7423 O   0  0  0  0  0  0
   62.5980   47.8836   35.2113 C   0  0  2  0  0  0
   63.7893   45.6826   35.6344 C   0  0  0  0  0  0
   63.7062   47.1617   35.9948 C   0  0  0  0  0  0
   56.9129   45.1082   31.0351 C   0  0  0  0  0  0
   63.2593   45.8503   28.7852 C   0  0  0  0  0  0
   61.2081   47.7552   35.8536 C   0  0  0  0  0  0
   65.6543   45.6016   33.8567 C   0  0  0  0  0  0
   66.1625   46.9671   33.3385 C   0  0  0  0  0  0
   66.1278   44.4756   32.9411 C   0  0  0  0  0  0
   64.1374   45.9453   31.2907 H   0  0  0  0  0  0
   61.9917   48.0419   33.0725 H   0  0  0  0  0  0
   63.8026   44.4621   33.9135 H   0  0  0  0  0  0
   61.1578   46.2618   31.6297 H   0  0  0  0  0  0
   56.1110   46.4770   27.8897 H   0  0  0  0  0  0
   59.4493   45.5541   30.7113 H   0  0  0  0  0  0
   58.3656   45.8945   27.9055 H   0  0  0  0  0  0
   60.8078   45.6311   27.9256 H   0  0  0  0  0  0
   54.5675   47.7851   28.2020 H   0  0  0  0  0  0
   62.8798   48.9267   35.1990 H   0  0  0  0  0  0
   62.8414   45.2016   35.8753 H   0  0  0  0  0  0
   64.5222   45.1823   36.2677 H   0  0  0  0  0  0
   64.6494   47.6401   35.7550 H   0  0  0  0  0  0
   63.6090   47.2932   37.0672 H   0  0  0  0  0  0
   57.5117   44.1972   31.0804 H   0  0  0  0  0  0
   57.3410   45.7899   31.7706 H   0  0  0  0  0  0
   55.9205   44.7963   31.3400 H   0  0  0  0  0  0
   63.8395   46.7560   28.9648 H   0  0  0  0  0  0
   63.8951   45.0199   29.0929 H   0  0  0  0  0  0
   63.0712   45.7797   27.7129 H   0  0  0  0  0  0
   60.4713   48.3727   35.3403 H   0  0  0  0  0  0
   60.8520   46.7246   35.8293 H   0  0  0  0  0  0
   61.2217   48.0777   36.8951 H   0  0  0  0  0  0
   66.1796   45.4314   34.7982 H   0  0  0  0  0  0
   65.8203   47.1694   32.3243 H   0  0  0  0  0  0
   65.8358   47.7978   33.9584 H   0  0  0  0  0  0
   67.2510   46.9960   33.3183 H   0  0  0  0  0  0
   65.7299   44.5574   31.9308 H   0  0  0  0  0  0
   67.2080   44.4777   32.8764 H   0  0  0  0  0  0
   65.8403   43.5011   33.3398 H   0  0  0  0  0  0
  1  2  1  0  0  0
  1  3  2  0  0  0
  1  4  1  0  0  0
  2  5  2  0  0  0
  2 24  1  0  0  0
  3 15  1  0  0  0
  3 25  1  0  0  0
  4 16  1  0  0  0
  4 21  1  0  0  0
  4 26  1  0  0  0
  5 10  1  0  0  0
  5 27  1  0  0  0
  6  9  2  0  0  0
  6  7  1  0  0  0
  6 28  1  0  0  0
  7 13  2  0  0  0
  7 14  1  0  0  0
  8 12  1  0  0  0
  8 11  2  0  0  0
  8 29  1  0  0  0
  9 11  1  0  0  0
  9 18  1  0  0  0
 10 12  2  0  0  0
 10 19  1  0  0  0
 11 30  1  0  0  0
 12 31  1  0  0  0
 14 32  1  0  0  0
 15 17  1  0  0  0
 15 20  1  0  0  0
 15 33  1  0  0  0
 16 17  1  0  0  0
 16 34  1  0  0  0
 16 35  1  0  0  0
 17 36  1  0  0  0
 17 37  1  0  0  0
 18 38  1  0  0  0
 18 39  1  0  0  0
 18 40  1  0  0  0
 19 41  1  0  0  0
 19 42  1  0  0  0
 19 43  1  0  0  0
 20 44  1  0  0  0
 20 45  1  0  0  0
 20 46  1  0  0  0
 21 22  1  0  0  0
 21 23  1  0  0  0
 21 47  1  0  0  0
 22 48  1  0  0  0
 22 49  1  0  0  0
 22 50  1  0  0  0
 23 51  1  0  0  0
 23 52  1  0  0  0
 23 53  1  0  0  0
M  END
> <s_m_entry_id>
31162

> <s_m_entry_name>
dock_pv.375

> <s_m_Source_Path>
/home/csk/Desktop/cluster/DUD-E-result/rxra

> <s_m_Source_File>
dock_pv.maegz

> <i_m_Source_File_Index>
375

> <chembl_id>
CHEMBL1773353

> <chembl_pref_name>
None

> <i_lp_mmshare_version>
53161

> <r_lp_tautomer_probability>
1

> <s_lp_Force_Field>
OPLS_2005

> <r_lp_Energy>
25.576713

> <b_lp_Chiralities_Consistent>
1

> <s_lp_Variant>
CHEMBL2061_lig27-1

> <s_i_glide_gridfile>
glide-grid_1mv9

> <i_i_glide_lignum>
31

> <i_i_glide_rotatable_bonds>
7

> <r_i_docking_score>
-9.05322150586065

> <r_i_glide_ligand_efficiency>
-0.393618326341767

> <r_i_glide_ligand_efficiency_sa>
-1.11939815977783

> <r_i_glide_ligand_efficiency_ln>
-2.18915105019113

> <r_i_glide_gscore>
-9.05322150586065

> <r_i_glide_lipo>
-5.404168346454

> <r_i_glide_hbond>
-0.16

> <r_i_glide_metal>
0

> <r_i_glide_rewards>
-1.92217593848215

> <r_i_glide_evdw>
-37.6611518859863

> <r_i_glide_ecoul>
-4.05615663528442

> <r_i_glide_erotb>
0.939904928264508

> <r_i_glide_esite>
-0.0153010595970234

> <r_i_glide_emodel>
-62.0166411261525

> <r_i_glide_energy>
-41.7173085212708

> <r_i_glide_einternal>
5.83775520324707

> <i_i_glide_confnum>
157

> <i_i_glide_posenum>
313

> <r_i_glide_eff_state_penalty>
0

> <s_user_duplicate_titles>
CHEMBL2061_lig27

> <i_f3d_flags>
0

> <s_m_subgroup_title>
dock_pv

> <s_m_subgroupid>
dock_pv

> <b_m_subgroup_collapsed>
1

$$$$
CHEMBL2061_lig476
                    3D
 Schrodinger Suite 2021-1.
 58 60  0  0  1  0            999 V2000
   64.4571   47.3648   34.5513 C   0  0  0  0  0  0
   64.9480   46.2015   35.1298 C   0  0  0  0  0  0
   64.0718   45.3706   35.8117 C   0  0  0  0  0  0
   62.7282   45.6770   35.9056 C   0  0  0  0  0  0
   62.2257   46.8318   35.3390 C   0  0  0  0  0  0
   63.0945   47.6623   34.6446 C   0  0  0  0  0  0
   63.6945   45.3569   30.6094 C   0  0  0  0  0  0
   62.8507   46.4361   30.9335 C   0  0  0  0  0  0
   61.6874   46.6403   30.1987 C   0  0  0  0  0  0
   61.3262   45.7762   29.1965 C   0  0  0  0  0  0
   62.1370   44.6840   28.8813 C   0  0  0  0  0  0
   63.3164   44.4766   29.5865 C   0  0  0  0  0  0
   65.0011   45.1124   31.3676 C   0  0  0  0  0  0
   66.1617   44.7196   30.4314 C   0  0  0  0  0  0
   63.1685   47.2770   31.9677 O   0  0  0  0  0  0
   60.1505   46.0770   28.5143 N   0  0  0  0  0  0
   58.8317   45.8926   29.0003 C   0  0  0  0  0  0
   60.4083   46.3860   27.1133 C   0  0  0  0  0  0
   60.7630   47.8587   26.8967 C   0  0  0  0  0  0
   57.8055   46.0770   28.1390 N   0  0  0  0  0  0
   56.5361   45.8768   28.5390 C   0  0  0  0  0  0
   56.2182   45.4598   29.8262 C   0  0  0  0  0  0
   57.2690   45.2134   30.7172 C   0  0  0  0  0  0
   58.5834   45.4475   30.3053 C   0  0  0  0  0  0
   54.7914   45.2766   30.2129 C   0  0  0  0  0  0
   54.4080   44.3709   30.9390 O   0  0  0  0  0  0
   53.9695   46.2375   29.7086 O   0  0  0  0  0  0
   64.8047   44.0776   32.4894 C   0  0  0  0  0  0
   62.1672   48.2025   32.4272 C   0  0  0  0  0  0
   62.5127   48.7641   33.8007 C   0  0  0  0  0  0
   65.1194   47.9980   33.9791 H   0  0  0  0  0  0
   65.9953   45.9486   35.0491 H   0  0  0  0  0  0
   64.4081   44.4770   36.2892 H   0  0  0  0  0  0
   62.0809   45.0354   36.4886 H   0  0  0  0  0  0
   61.1692   47.0494   35.3989 H   0  0  0  0  0  0
   61.0389   47.4830   30.3751 H   0  0  0  0  0  0
   61.8594   43.9984   28.0950 H   0  0  0  0  0  0
   63.9301   43.6243   29.3351 H   0  0  0  0  0  0
   65.2928   46.0546   31.8348 H   0  0  0  0  0  0
   66.1438   45.2770   29.4990 H   0  0  0  0  0  0
   67.1312   44.8770   30.9013 H   0  0  0  0  0  0
   66.1011   43.6747   30.1390 H   0  0  0  0  0  0
   61.2218   45.7696   26.7331 H   0  0  0  0  0  0
   59.5517   46.0770   26.5388 H   0  0  0  0  0  0
   60.8078   48.0770   25.8314 H   0  0  0  0  0  0
   60.0216   48.5108   27.3554 H   0  0  0  0  0  0
   61.7336   48.1031   27.3296 H   0  0  0  0  0  0
   55.7850   46.0381   27.7780 H   0  0  0  0  0  0
   57.0798   44.8773   31.7260 H   0  0  0  0  0  0
   59.3958   45.2770   30.9887 H   0  0  0  0  0  0
   54.4738   46.8932   29.2210 H   0  0  0  0  0  0
   63.9789   44.3598   33.1416 H   0  0  0  0  0  0
   64.5781   43.0881   32.0903 H   0  0  0  0  0  0
   65.6964   43.9924   33.1111 H   0  0  0  0  0  0
   62.0080   49.0135   31.7178 H   0  0  0  0  0  0
   61.2152   47.6773   32.5406 H   0  0  0  0  0  0
   63.2080   49.5969   33.7390 H   0  0  0  0  0  0
   61.6080   49.1673   34.2461 H   0  0  0  0  0  0
  1  6  1  0  0  0
  1  2  2  0  0  0
  1 31  1  0  0  0
  2  3  1  0  0  0
  2 32  1  0  0  0
  3  4  2  0  0  0
  3 33  1  0  0  0
  4  5  1  0  0  0
  4 34  1  0  0  0
  5  6  2  0  0  0
  5 35  1  0  0  0
  6 30  1  0  0  0
  7  8  2  0  0  0
  7 12  1  0  0  0
  7 13  1  0  0  0
  8 15  1  0  0  0
  8  9  1  0  0  0
  9 10  2  0  0  0
  9 36  1  0  0  0
 10 16  1  0  0  0
 10 11  1  0  0  0
 11 12  2  0  0  0
 11 37  1  0  0  0
 12 38  1  0  0  0
 13 14  1  0  0  0
 13 28  1  0  0  0
 13 39  1  0  0  0
 14 40  1  0  0  0
 14 41  1  0  0  0
 14 42  1  0  0  0
 15 29  1  0  0  0
 16 17  1  0  0  0
 16 18  1  0  0  0
 17 20  2  0  0  0
 17 24  1  0  0  0
 18 19  1  0  0  0
 18 43  1  0  0  0
 18 44  1  0  0  0
 19 45  1  0  0  0
 19 46  1  0  0  0
 19 47  1  0  0  0
 20 21  1  0  0  0
 21 22  2  0  0  0
 21 48  1  0  0  0
 22 23  1  0  0  0
 22 25  1  0  0  0
 23 24  2  0  0  0
 23 49  1  0  0  0
 24 50  1  0  0  0
 25 26  2  0  0  0
 25 27  1  0  0  0
 27 51  1  0  0  0
 28 52  1  0  0  0
 28 53  1  0  0  0
 28 54  1  0  0  0
 29 30  1  0  0  0
 29 55  1  0  0  0
 29 56  1  0  0  0
 30 57  1  0  0  0
 30 58  1  0  0  0
M  END
> <s_m_entry_id>
31163

> <s_m_entry_name>
dock_pv.376

> <s_m_Source_Path>
/home/csk/Desktop/cluster/DUD-E-result/rxra

> <s_m_Source_File>
dock_pv.maegz

> <i_m_Source_File_Index>
376

> <chembl_id>
CHEMBL1688393

> <chembl_pref_name>
None

> <i_lp_mmshare_version>
53161

> <r_lp_tautomer_probability>
1

> <s_lp_Force_Field>
OPLS_2005

> <r_lp_Energy>
25.521889

> <b_lp_Chiralities_Consistent>
1

> <s_lp_Variant>
CHEMBL2061_lig476-1

> <s_i_glide_gridfile>
glide-grid_1mv9

> <i_i_glide_lignum>
565

> <i_i_glide_rotatable_bonds>
10

> <r_i_docking_score>
-9.04286237699132

> <r_i_glide_ligand_efficiency>
-0.301428745899711

> <r_i_glide_ligand_efficiency_sa>
-0.936609196426623

> <r_i_glide_ligand_efficiency_ln>
-2.05463686192965

> <r_i_glide_gscore>
-9.04286237699132

> <r_i_glide_lipo>
-6.08370819132919

> <r_i_glide_hbond>
-0.32

> <r_i_glide_metal>
0

> <r_i_glide_rewards>
-0.762361796583539

> <r_i_glide_evdw>
-37.8512268066406

> <r_i_glide_ecoul>
-4.69711112976074

> <r_i_glide_erotb>
0.720335620717547

> <r_i_glide_esite>
0

> <r_i_glide_emodel>
-46.2901644695744

> <r_i_glide_energy>
-42.5483379364014

> <r_i_glide_einternal>
12.1200084686279

> <i_i_glide_confnum>
1

> <i_i_glide_posenum>
361

> <r_i_glide_eff_state_penalty>
0

> <s_user_duplicate_titles>
CHEMBL2061_lig476

> <i_f3d_flags>
0

> <s_m_subgroup_title>
dock_pv

> <s_m_subgroupid>
dock_pv

> <b_m_subgroup_collapsed>
1

$$$$
CHEMBL2061_lig500
                    3D
 Schrodinger Suite 2021-1.
 54 55  0  0  1  0            999 V2000
   63.7980   45.8130   31.8097 C   0  0  0  0  0  0
   63.6727   45.0581   30.6269 C   0  0  0  0  0  0
   62.5986   45.3038   29.7590 C   0  0  0  0  0  0
   61.6363   46.2748   30.0511 C   0  0  0  0  0  0
   61.7671   47.0149   31.2274 C   0  0  0  0  0  0
   62.8272   46.7849   32.0982 C   0  0  0  0  0  0
   60.5420   46.5072   29.1858 N   0  0  0  0  0  0
   59.2124   46.0772   29.4700 C   0  0  0  0  0  0
   60.9054   46.7705   27.7743 C   0  0  0  0  0  0
   62.0365   47.7997   27.5700 C   0  0  0  0  0  0
   58.8498   45.6768   30.7637 C   0  0  0  0  0  0
   57.5441   45.2770   31.0355 C   0  0  0  0  0  0
   56.5948   45.2656   30.0129 C   0  0  0  0  0  0
   57.0070   45.6784   28.7449 C   0  0  0  0  0  0
   58.2762   46.0770   28.4781 N   0  0  0  0  0  0
   55.1645   44.9242   30.3011 C   0  0  0  0  0  0
   54.5395   44.1903   29.3395 O   0  0  0  0  0  0
   54.6121   45.2769   31.3379 O   0  0  0  0  0  0
   64.8916   45.5690   32.6196 O   0  0  0  0  0  0
   65.0314   46.1841   33.8997 C   0  0  0  0  0  0
   64.1882   45.4634   34.9773 C   0  0  1  0  0  0
   64.4063   43.9384   34.9371 C   0  0  0  0  0  0
   64.4650   46.0431   36.3768 C   0  0  0  0  0  0
   64.6775   43.9588   30.2498 C   0  0  0  0  0  0
   64.5450   42.6876   31.1059 C   0  0  0  0  0  0
   66.1299   44.4770   30.1390 C   0  0  0  0  0  0
   64.0052   47.2838   36.5220 F   0  0  0  0  0  0
   62.4965   44.7196   28.8561 H   0  0  0  0  0  0
   61.0479   47.7794   31.4720 H   0  0  0  0  0  0
   62.8822   47.3905   32.9884 H   0  0  0  0  0  0
   61.1756   45.8287   27.2952 H   0  0  0  0  0  0
   60.0458   47.1465   27.2188 H   0  0  0  0  0  0
   62.1844   48.0054   26.5104 H   0  0  0  0  0  0
   61.7968   48.7469   28.0542 H   0  0  0  0  0  0
   62.9905   47.4493   27.9637 H   0  0  0  0  0  0
   59.5567   45.6776   31.5772 H   0  0  0  0  0  0
   57.2800   45.0122   32.0472 H   0  0  0  0  0  0
   56.3191   45.7334   27.9120 H   0  0  0  0  0  0
   55.1260   43.8411   28.6595 H   0  0  0  0  0  0
   64.8375   47.2570   33.8663 H   0  0  0  0  0  0
   66.0873   46.0973   34.1590 H   0  0  0  0  0  0
   63.1341   45.6405   34.7600 H   0  0  0  0  0  0
   65.4657   43.6776   34.9391 H   0  0  0  0  0  0
   63.9228   43.4360   35.7735 H   0  0  0  0  0  0
   63.9637   43.5124   34.0393 H   0  0  0  0  0  0
   65.5313   46.0769   36.5920 H   0  0  0  0  0  0
   64.0078   45.4428   37.1621 H   0  0  0  0  0  0
   64.4078   43.6290   29.2510 H   0  0  0  0  0  0
   63.5407   42.2739   31.0764 H   0  0  0  0  0  0
   65.2080   41.9038   30.7334 H   0  0  0  0  0  0
   64.8079   42.8675   32.1451 H   0  0  0  0  0  0
   66.1642   45.2770   29.4072 H   0  0  0  0  0  0
   66.5503   44.8493   31.0710 H   0  0  0  0  0  0
   66.8082   43.7144   29.7532 H   0  0  0  0  0  0
  1  2  2  0  0  0
  1  6  1  0  0  0
  1 19  1  0  0  0
  2  3  1  0  0  0
  2 24  1  0  0  0
  3  4  2  0  0  0
  3 28  1  0  0  0
  4  5  1  0  0  0
  4  7  1  0  0  0
  5  6  2  0  0  0
  5 29  1  0  0  0
  6 30  1  0  0  0
  7  8  1  0  0  0
  7  9  1  0  0  0
  8 11  2  0  0  0
  8 15  1  0  0  0
  9 10  1  0  0  0
  9 31  1  0  0  0
  9 32  1  0  0  0
 10 33  1  0  0  0
 10 34  1  0  0  0
 10 35  1  0  0  0
 11 12  1  0  0  0
 11 36  1  0  0  0
 12 13  2  0  0  0
 12 37  1  0  0  0
 13 14  1  0  0  0
 13 16  1  0  0  0
 14 15  2  0  0  0
 14 38  1  0  0  0
 16 17  1  0  0  0
 16 18  2  0  0  0
 17 39  1  0  0  0
 19 20  1  0  0  0
 20 21  1  0  0  0
 20 40  1  0  0  0
 20 41  1  0  0  0
 21 22  1  0  0  0
 21 23  1  0  0  0
 21 42  1  0  0  0
 22 43  1  0  0  0
 22 44  1  0  0  0
 22 45  1  0  0  0
 23 27  1  0  0  0
 23 46  1  0  0  0
 23 47  1  0  0  0
 24 25  1  0  0  0
 24 26  1  0  0  0
 24 48  1  0  0  0
 25 49  1  0  0  0
 25 50  1  0  0  0
 25 51  1  0  0  0
 26 52  1  0  0  0
 26 53  1  0  0  0
 26 54  1  0  0  0
M  END
> <s_m_entry_id>
31164

> <s_m_entry_name>
dock_pv.377

> <s_m_Source_Path>
/home/csk/Desktop/cluster/DUD-E-result/rxra

> <s_m_Source_File>
dock_pv.maegz

> <i_m_Source_File_Index>
377

> <chembl_id>
CHEMBL3425828

> <chembl_pref_name>
None

> <i_lp_mmshare_version>
53161

> <r_lp_tautomer_probability>
1

> <s_lp_Force_Field>
OPLS_2005

> <r_lp_Energy>
25.959193

> <b_lp_Chiralities_Consistent>
1

> <s_lp_Variant>
CHEMBL2061_lig500-2

> <s_i_glide_gridfile>
glide-grid_1mv9

> <i_i_glide_lignum>
592

> <i_i_glide_rotatable_bonds>
10

> <r_i_docking_score>
-9.04236162781718

> <r_i_glide_ligand_efficiency>
-0.334902282511747

> <r_i_glide_ligand_efficiency_sa>
-1.00470684643146

> <r_i_glide_ligand_efficiency_ln>
-2.10491271197356

> <r_i_glide_gscore>
-9.04236162781718

> <r_i_glide_lipo>
-5.19800721027748

> <r_i_glide_hbond>
-0.0857355308096051

> <r_i_glide_metal>
0

> <r_i_glide_rewards>
-1.39615019979119

> <r_i_glide_evdw>
-44.617374420166

> <r_i_glide_ecoul>
-6.39357995986938

> <r_i_glide_erotb>
0.827437028049809

> <r_i_glide_esite>
0

> <r_i_glide_emodel>
-70.5022797794848

> <r_i_glide_energy>
-51.0109543800354

> <r_i_glide_einternal>
14.3666944503784

> <i_i_glide_confnum>
16

> <i_i_glide_posenum>
249

> <r_i_glide_eff_state_penalty>
0

> <s_user_duplicate_titles>
CHEMBL2061_lig500

> <i_f3d_flags>
0

> <s_m_subgroup_title>
dock_pv

> <s_m_subgroupid>
dock_pv

> <b_m_subgroup_collapsed>
1

$$$$
CHEMBL2061_lig25
                    3D
 Schrodinger Suite 2021-1.
 51 51  0  0  1  0            999 V2000
   63.3487   46.7631   32.4084 C   0  0  0  0  0  0
   63.2059   46.7117   30.9505 C   0  0  0  0  0  0
   62.6671   47.6937   33.1267 C   0  0  0  0  0  0
   64.3447   45.9335   33.1168 C   0  0  0  0  0  0
   62.0816   46.9728   30.2456 C   0  0  0  0  0  0
   56.6478   45.8280   29.3414 C   0  0  0  0  0  0
   55.2621   45.6788   29.7298 C   0  0  0  0  0  0
   59.4560   46.8427   28.7472 C   0  0  0  0  0  0
   57.7534   45.6296   30.1118 C   0  0  0  0  0  0
   61.9808   46.9690   28.7825 C   0  0  0  0  0  0
   59.0766   45.8119   29.5291 C   0  0  0  0  0  0
   60.7800   46.9580   28.1532 C   0  0  0  0  0  0
   54.3670   46.4277   29.3405 O   0  0  0  0  0  0
   55.0388   44.6002   30.5327 O   0  0  0  0  0  0
   62.8904   48.0199   34.6111 C   0  0  2  0  0  0
   65.0441   46.6701   34.2667 C   0  0  0  0  0  0
   63.9472   47.0888   35.2584 C   0  0  0  0  0  0
   57.7197   45.2771   31.5931 C   0  0  0  0  0  0
   63.2395   46.9861   27.9195 C   0  0  0  0  0  0
   61.5699   48.0477   35.3986 C   0  0  0  0  0  0
   64.6748   44.6488   32.7877 C   0  0  0  0  0  0
   65.6875   43.8368   33.5881 C   0  0  0  0  0  0
   64.0686   43.8232   31.6532 C   0  0  0  0  0  0
   64.1042   46.4636   30.4039 H   0  0  0  0  0  0
   61.9892   48.3439   32.5932 H   0  0  0  0  0  0
   61.1880   47.2005   30.8080 H   0  0  0  0  0  0
   56.7563   46.1358   28.3114 H   0  0  0  0  0  0
   58.7474   47.6296   28.5395 H   0  0  0  0  0  0
   59.8101   45.0465   29.7442 H   0  0  0  0  0  0
   60.7858   47.0097   27.0736 H   0  0  0  0  0  0
   55.8609   44.1253   30.6733 H   0  0  0  0  0  0
   63.2996   49.0311   34.6337 H   0  0  0  0  0  0
   65.8090   46.0886   34.7788 H   0  0  0  0  0  0
   65.5578   47.5582   33.8927 H   0  0  0  0  0  0
   63.4657   46.1959   35.6628 H   0  0  0  0  0  0
   64.4032   47.5903   36.1132 H   0  0  0  0  0  0
   58.4693   45.8740   32.1151 H   0  0  0  0  0  0
   56.7812   45.5193   32.0913 H   0  0  0  0  0  0
   58.0065   44.2348   31.7387 H   0  0  0  0  0  0
   63.8693   46.1284   28.1584 H   0  0  0  0  0  0
   63.0328   46.9656   26.8487 H   0  0  0  0  0  0
   63.8382   47.8695   28.1361 H   0  0  0  0  0  0
   60.9369   48.8719   35.0754 H   0  0  0  0  0  0
   61.0104   47.1194   35.2798 H   0  0  0  0  0  0
   61.7505   48.1912   36.4647 H   0  0  0  0  0  0
   65.6082   42.7704   33.3754 H   0  0  0  0  0  0
   66.6992   44.1553   33.3389 H   0  0  0  0  0  0
   65.5379   43.9414   34.6626 H   0  0  0  0  0  0
   63.7275   42.8553   32.0251 H   0  0  0  0  0  0
   63.2092   44.2760   31.1744 H   0  0  0  0  0  0
   64.8150   43.6461   30.8794 H   0  0  0  0  0  0
  1  2  1  0  0  0
  1  3  2  0  0  0
  1  4  1  0  0  0
  2  5  2  0  0  0
  2 24  1  0  0  0
  3 15  1  0  0  0
  3 25  1  0  0  0
  4 16  1  0  0  0
  4 21  2  0  0  0
  5 10  1  0  0  0
  5 26  1  0  0  0
  6  9  2  0  0  0
  6  7  1  0  0  0
  6 27  1  0  0  0
  7 13  2  0  0  0
  7 14  1  0  0  0
  8 12  1  0  0  0
  8 11  2  0  0  0
  8 28  1  0  0  0
  9 11  1  0  0  0
  9 18  1  0  0  0
 10 12  2  0  0  0
 10 19  1  0  0  0
 11 29  1  0  0  0
 12 30  1  0  0  0
 14 31  1  0  0  0
 15 17  1  0  0  0
 15 20  1  0  0  0
 15 32  1  0  0  0
 16 17  1  0  0  0
 16 33  1  0  0  0
 16 34  1  0  0  0
 17 35  1  0  0  0
 17 36  1  0  0  0
 18 37  1  0  0  0
 18 38  1  0  0  0
 18 39  1  0  0  0
 19 40  1  0  0  0
 19 41  1  0  0  0
 19 42  1  0  0  0
 20 43  1  0  0  0
 20 44  1  0  0  0
 20 45  1  0  0  0
 21 22  1  0  0  0
 21 23  1  0  0  0
 22 46  1  0  0  0
 22 47  1  0  0  0
 22 48  1  0  0  0
 23 49  1  0  0  0
 23 50  1  0  0  0
 23 51  1  0  0  0
M  END
> <s_m_entry_id>
31165

> <s_m_entry_name>
dock_pv.378

> <s_m_Source_Path>
/home/csk/Desktop/cluster/DUD-E-result/rxra

> <s_m_Source_File>
dock_pv.maegz

> <i_m_Source_File_Index>
378

> <chembl_id>
CHEMBL1773354

> <chembl_pref_name>
None

> <i_lp_mmshare_version>
53161

> <r_lp_tautomer_probability>
1

> <s_lp_Force_Field>
OPLS_2005

> <r_lp_Energy>
37.094584

> <b_lp_Chiralities_Consistent>
1

> <s_lp_Variant>
CHEMBL2061_lig25-1

> <s_i_glide_gridfile>
glide-grid_1mv9

> <i_i_glide_lignum>
29

> <i_i_glide_rotatable_bonds>
6

> <r_i_docking_score>
-9.01998493102736

> <r_i_glide_ligand_efficiency>
-0.392173257870755

> <r_i_glide_ligand_efficiency_sa>
-1.11528857727379

> <r_i_glide_ligand_efficiency_ln>
-2.18111414502384

> <r_i_glide_gscore>
-9.01998493102736

> <r_i_glide_lipo>
-5.48872783450543

> <r_i_glide_hbond>
0

> <r_i_glide_metal>
0

> <r_i_glide_rewards>
-2.1452415996974

> <r_i_glide_evdw>
-39.8501472473145

> <r_i_glide_ecoul>
-2.29400539398193

> <r_i_glide_erotb>
0.950592674638487

> <r_i_glide_esite>
0

> <r_i_glide_emodel>
-56.6470559444187

> <r_i_glide_energy>
-42.1441526412964

> <r_i_glide_einternal>
10.7897968292236

> <i_i_glide_confnum>
49

> <i_i_glide_posenum>
128

> <r_i_glide_eff_state_penalty>
0

> <s_user_duplicate_titles>
CHEMBL2061_lig25

> <i_f3d_flags>
0

> <s_m_subgroup_title>
dock_pv

> <s_m_subgroupid>
dock_pv

> <b_m_subgroup_collapsed>
1

$$$$
CHEMBL2061_lig3
                    3D
 Schrodinger Suite 2021-1.
 52 52  0  0  1  0            999 V2000
   62.7452   46.4263   35.3689 C   0  0  0  0  0  0
   64.2167   46.6893   35.7400 C   0  0  0  0  0  0
   65.1422   46.0440   34.6933 C   0  0  0  0  0  0
   64.8422   46.5333   33.2567 C   0  0  2  0  0  0
   63.3399   46.2882   32.9013 C   0  0  1  0  0  0
   62.3506   46.9313   33.9478 C   0  0  0  0  0  0
   62.4082   48.4774   33.9268 C   0  0  0  0  0  0
   60.9043   46.4382   33.6768 C   0  0  0  0  0  0
   63.0271   46.7363   31.4708 C   0  0  0  0  0  0
   62.5413   45.9329   30.5076 C   0  0  0  0  0  0
   62.2313   46.3780   29.1561 C   0  0  0  0  0  0
   60.9740   46.2865   28.6670 C   0  0  0  0  0  0
   63.3491   46.8810   28.2597 C   0  0  0  0  0  0
   59.8148   45.8115   29.4065 C   0  0  0  0  0  0
   58.5570   45.8763   28.9301 C   0  0  0  0  0  0
   57.3698   45.4207   29.6488 C   0  0  0  0  0  0
   56.1770   45.8697   29.1803 C   0  0  0  0  0  0
   57.5324   44.4703   30.8367 C   0  0  0  0  0  0
   54.8609   45.6512   29.7397 C   0  0  0  0  0  0
   54.0075   46.6346   29.3384 O   0  0  0  0  0  0
   54.5131   44.7359   30.4830 O   0  0  0  0  0  0
   65.8128   45.8739   32.2545 C   0  0  0  0  0  0
   62.0911   46.8761   36.1176 H   0  0  0  0  0  0
   62.5723   45.3538   35.4506 H   0  0  0  0  0  0
   64.4322   46.2761   36.7266 H   0  0  0  0  0  0
   64.4081   47.7597   35.8150 H   0  0  0  0  0  0
   65.0417   44.9580   34.7364 H   0  0  0  0  0  0
   66.1871   46.2302   34.9398 H   0  0  0  0  0  0
   65.0283   47.6069   33.2371 H   0  0  0  0  0  0
   63.2080   45.2093   32.9607 H   0  0  0  0  0  0
   61.7292   48.8770   34.6777 H   0  0  0  0  0  0
   63.3973   48.8796   34.1390 H   0  0  0  0  0  0
   62.0887   48.8852   32.9678 H   0  0  0  0  0  0
   60.2034   46.8591   34.3992 H   0  0  0  0  0  0
   60.5528   46.7356   32.6887 H   0  0  0  0  0  0
   60.8077   45.3554   33.7422 H   0  0  0  0  0  0
   63.2082   47.7757   31.2448 H   0  0  0  0  0  0
   62.3720   44.8930   30.7432 H   0  0  0  0  0  0
   60.8105   46.6018   27.6457 H   0  0  0  0  0  0
   64.2404   46.2695   28.4067 H   0  0  0  0  0  0
   63.1012   46.8096   27.1993 H   0  0  0  0  0  0
   63.6076   47.9065   28.5147 H   0  0  0  0  0  0
   59.9757   45.3970   30.3906 H   0  0  0  0  0  0
   58.4247   46.3104   27.9480 H   0  0  0  0  0  0
   56.1725   46.4948   28.2998 H   0  0  0  0  0  0
   58.3978   43.8188   30.6823 H   0  0  0  0  0  0
   57.6790   45.0230   31.7648 H   0  0  0  0  0  0
   56.6978   43.7812   30.9389 H   0  0  0  0  0  0
   54.4608   47.2824   28.7943 H   0  0  0  0  0  0
   65.6472   44.7985   32.1844 H   0  0  0  0  0  0
   65.7099   46.2928   31.2528 H   0  0  0  0  0  0
   66.8449   46.0307   32.5601 H   0  0  0  0  0  0
  1  2  1  0  0  0
  1  6  1  0  0  0
  1 23  1  0  0  0
  1 24  1  0  0  0
  2  3  1  0  0  0
  2 25  1  0  0  0
  2 26  1  0  0  0
  3  4  1  0  0  0
  3 27  1  0  0  0
  3 28  1  0  0  0
  4  5  1  0  0  0
  4 22  1  0  0  0
  4 29  1  0  0  0
  5  6  1  0  0  0
  5  9  1  0  0  0
  5 30  1  0  0  0
  6  7  1  0  0  0
  6  8  1  0  0  0
  7 31  1  0  0  0
  7 32  1  0  0  0
  7 33  1  0  0  0
  8 34  1  0  0  0
  8 35  1  0  0  0
  8 36  1  0  0  0
  9 10  2  0  0  0
  9 37  1  0  0  0
 10 11  1  0  0  0
 10 38  1  0  0  0
 11 12  2  0  0  0
 11 13  1  0  0  0
 12 14  1  0  0  0
 12 39  1  0  0  0
 13 40  1  0  0  0
 13 41  1  0  0  0
 13 42  1  0  0  0
 14 15  2  0  0  0
 14 43  1  0  0  0
 15 16  1  0  0  0
 15 44  1  0  0  0
 16 17  2  0  0  0
 16 18  1  0  0  0
 17 19  1  0  0  0
 17 45  1  0  0  0
 18 46  1  0  0  0
 18 47  1  0  0  0
 18 48  1  0  0  0
 19 20  1  0  0  0
 19 21  2  0  0  0
 20 49  1  0  0  0
 22 50  1  0  0  0
 22 51  1  0  0  0
 22 52  1  0  0  0
M  END
> <s_m_entry_id>
31166

> <s_m_entry_name>
dock_pv.379

> <s_m_Source_Path>
/home/csk/Desktop/cluster/DUD-E-result/rxra

> <s_m_Source_File>
dock_pv.maegz

> <i_m_Source_File_Index>
379

> <chembl_id>
CHEMBL451158

> <chembl_pref_name>
None

> <i_lp_mmshare_version>
53161

> <r_lp_tautomer_probability>
1

> <s_lp_Force_Field>
OPLS_2005

> <r_lp_Energy>
24.481394

> <b_lp_Chiralities_Consistent>
1

> <s_lp_Variant>
CHEMBL2061_lig3-4

> <s_i_glide_gridfile>
glide-grid_1mv9

> <i_i_glide_lignum>
6

> <i_i_glide_rotatable_bonds>
6

> <r_i_docking_score>
-9.01815539631211

> <r_i_glide_ligand_efficiency>
-0.409916154377823

> <r_i_glide_ligand_efficiency_sa>
-1.14860118565421

> <r_i_glide_ligand_efficiency_ln>
-2.20436612406922

> <r_i_glide_gscore>
-9.01815539631211

> <r_i_glide_lipo>
-5.02394559375819

> <r_i_glide_hbond>
-0.106658669976672

> <r_i_glide_metal>
0

> <r_i_glide_rewards>
-2.42417606908

> <r_i_glide_evdw>
-37.2756309509277

> <r_i_glide_ecoul>
-4.0399169921875

> <r_i_glide_erotb>
1.00639403287727

> <r_i_glide_esite>
0

> <r_i_glide_emodel>
-59.9077234317237

> <r_i_glide_energy>
-41.3155479431152

> <r_i_glide_einternal>
7.91640520095825

> <i_i_glide_confnum>
157

> <i_i_glide_posenum>
94

> <r_i_glide_eff_state_penalty>
0

> <s_user_duplicate_titles>
CHEMBL2061_lig3

> <i_f3d_flags>
0

> <s_m_subgroup_title>
dock_pv

> <s_m_subgroupid>
dock_pv

> <b_m_subgroup_collapsed>
1

$$$$
CHEMBL2061_lig517
                    3D
 Schrodinger Suite 2021-1.
 40 41  0  0  1  0            999 V2000
   62.6741   46.4747   30.3503 C   0  0  0  0  0  0
   63.6454   46.4787   31.3367 C   0  0  0  0  0  0
   63.2835   46.4525   32.6879 C   0  0  0  0  0  0
   61.9331   46.4772   33.0449 C   0  0  0  0  0  0
   60.9574   46.4771   32.0551 C   0  0  0  0  0  0
   61.3289   46.4509   30.7095 C   0  0  0  0  0  0
   64.3393   46.3352   33.7135 C   0  0  0  0  0  0
   65.2837   45.3605   33.6339 C   0  0  0  0  0  0
   65.2403   44.2260   32.6193 C   0  0  0  0  0  0
   66.4934   45.2512   34.5391 C   0  0  0  0  0  0
   60.3231   46.3852   29.6303 C   0  0  0  0  0  0
   59.0381   46.0771   29.9409 O   0  0  0  0  0  0
   58.3941   46.1702   28.7516 C   0  0  0  0  0  0
   59.1742   46.4766   27.7392 N   0  0  0  0  0  0
   60.3704   46.5923   28.2648 C   0  0  0  0  0  0
   56.8777   46.1163   28.7254 C   0  0  0  0  0  0
   56.2129   45.1072   29.6970 C   0  0  0  0  0  0
   54.6947   45.2813   29.9057 C   0  0  0  0  0  0
   54.1800   46.4155   29.3398 O   0  0  0  0  0  0
   54.0134   44.4776   30.5386 O   0  0  0  0  0  0
   64.3081   47.4040   34.8007 C   0  0  0  0  0  0
   62.9760   46.4646   29.3134 H   0  0  0  0  0  0
   64.6865   46.4790   31.0475 H   0  0  0  0  0  0
   61.6335   46.4492   34.0822 H   0  0  0  0  0  0
   59.9153   46.4658   32.3387 H   0  0  0  0  0  0
   65.5602   43.2896   33.0778 H   0  0  0  0  0  0
   65.9108   44.4770   31.7960 H   0  0  0  0  0  0
   64.2465   44.0464   32.2092 H   0  0  0  0  0  0
   67.4096   45.2047   33.9497 H   0  0  0  0  0  0
   66.6021   46.0769   35.2344 H   0  0  0  0  0  0
   66.4071   44.3349   35.1169 H   0  0  0  0  0  0
   61.2373   46.8522   27.6751 H   0  0  0  0  0  0
   56.5323   47.1268   28.9390 H   0  0  0  0  0  0
   56.5481   45.8833   27.7137 H   0  0  0  0  0  0
   56.4490   44.0802   29.4154 H   0  0  0  0  0  0
   56.6441   45.2485   30.6889 H   0  0  0  0  0  0
   54.8500   46.9094   28.8639 H   0  0  0  0  0  0
   63.2911   47.6880   35.0700 H   0  0  0  0  0  0
   64.7913   47.0800   35.7195 H   0  0  0  0  0  0
   64.8083   48.2983   34.4362 H   0  0  0  0  0  0
  1  2  2  0  0  0
  1  6  1  0  0  0
  1 22  1  0  0  0
  2  3  1  0  0  0
  2 23  1  0  0  0
  3  4  2  0  0  0
  3  7  1  0  0  0
  4  5  1  0  0  0
  4 24  1  0  0  0
  5  6  2  0  0  0
  5 25  1  0  0  0
  6 11  1  0  0  0
  7  8  2  0  0  0
  7 21  1  0  0  0
  8  9  1  0  0  0
  8 10  1  0  0  0
  9 26  1  0  0  0
  9 27  1  0  0  0
  9 28  1  0  0  0
 10 29  1  0  0  0
 10 30  1  0  0  0
 10 31  1  0  0  0
 11 12  1  0  0  0
 11 15  2  0  0  0
 12 13  1  0  0  0
 13 14  2  0  0  0
 13 16  1  0  0  0
 14 15  1  0  0  0
 15 32  1  0  0  0
 16 17  1  0  0  0
 16 33  1  0  0  0
 16 34  1  0  0  0
 17 18  1  0  0  0
 17 35  1  0  0  0
 17 36  1  0  0  0
 18 19  1  0  0  0
 18 20  2  0  0  0
 19 37  1  0  0  0
 21 38  1  0  0  0
 21 39  1  0  0  0
 21 40  1  0  0  0
M  END
> <s_m_entry_id>
31167

> <s_m_entry_name>
dock_pv.380

> <s_m_Source_Path>
/home/csk/Desktop/cluster/DUD-E-result/rxra

> <s_m_Source_File>
dock_pv.maegz

> <i_m_Source_File_Index>
380

> <chembl_id>
CHEMBL4163622

> <chembl_pref_name>
None

> <i_lp_mmshare_version>
53161

> <r_lp_tautomer_probability>
1

> <s_lp_Force_Field>
OPLS_2005

> <r_lp_Energy>
13.979812

> <b_lp_Chiralities_Consistent>
1

> <s_lp_Variant>
CHEMBL2061_lig517-1

> <s_i_glide_gridfile>
glide-grid_1mv9

> <i_i_glide_lignum>
617

> <i_i_glide_rotatable_bonds>
6

> <r_i_docking_score>
-9.01448246470584

> <r_i_glide_ligand_efficiency>
-0.429261069747897

> <r_i_glide_ligand_efficiency_sa>
-1.18429874210482

> <r_i_glide_ligand_efficiency_ln>
-2.22881257392156

> <r_i_glide_gscore>
-9.01448246470584

> <r_i_glide_lipo>
-4.68538793800572

> <r_i_glide_hbond>
-0.32

> <r_i_glide_metal>
0

> <r_i_glide_rewards>
-2.68583263490875

> <r_i_glide_evdw>
-34.0402603149414

> <r_i_glide_ecoul>
-4.90252017974854

> <r_i_glide_erotb>
1.11412915091798

> <r_i_glide_esite>
0

> <r_i_glide_emodel>
-56.2484298598553

> <r_i_glide_energy>
-38.9427804946899

> <r_i_glide_einternal>
2.6980288028717

> <i_i_glide_confnum>
8

> <i_i_glide_posenum>
142

> <r_i_glide_eff_state_penalty>
0

> <s_user_duplicate_titles>
CHEMBL2061_lig517

> <i_f3d_flags>
0

> <s_m_subgroup_title>
dock_pv

> <s_m_subgroupid>
dock_pv

> <b_m_subgroup_collapsed>
1

$$$$
CHEMBL2061_lig314
                    3D
 Schrodinger Suite 2021-1.
 47 48  0  0  1  0            999 V2000
   63.5707   46.5601   32.4627 C   0  0  0  0  0  0
   62.5202   46.8830   31.5900 C   0  0  0  0  0  0
   62.5541   46.6126   30.2161 C   0  0  0  0  0  0
   63.4580   46.8712   33.9781 C   0  0  0  0  0  0
   64.6915   45.9095   31.8908 C   0  0  0  0  0  0
   61.3445   46.8187   29.3897 C   0  0  0  0  0  0
   55.8200   46.8551   29.0904 C   0  0  0  0  0  0
   54.4107   46.9709   28.8508 C   0  0  0  0  0  0
   66.0553   45.2781   32.8306 S   0  0  0  0  0  0
   58.8551   46.3944   29.2888 C   0  0  0  0  0  0
   56.4442   45.7531   29.5689 C   0  0  0  0  0  0
   60.1812   46.3275   29.8661 C   0  0  0  0  0  0
   57.8402   45.8094   29.9493 C   0  0  0  0  0  0
   63.7001   46.0336   29.6778 C   0  0  0  0  0  0
   53.5677   46.2379   29.3391 O   0  0  0  0  0  0
   64.7516   45.6784   30.5132 C   0  0  0  0  0  0
   54.0932   48.0779   28.1395 O   0  0  0  0  0  0
   65.7798   45.8646   34.5127 C   0  0  0  0  0  0
   64.8686   47.0901   34.5755 C   0  0  0  0  0  0
   62.6641   48.1773   34.2612 C   0  0  0  0  0  0
   62.7693   45.6778   34.6629 C   0  0  0  0  0  0
   61.5005   47.5910   28.0848 C   0  0  0  0  0  0
   55.7893   44.3968   29.7250 C   0  0  0  0  0  0
   61.6253   47.3312   31.9910 H   0  0  0  0  0  0
   56.3788   47.7599   28.9389 H   0  0  0  0  0  0
   58.6774   46.8954   28.3486 H   0  0  0  0  0  0
   60.2438   45.7989   30.8098 H   0  0  0  0  0  0
   58.0718   45.3118   30.8829 H   0  0  0  0  0  0
   63.7594   45.7986   28.6253 H   0  0  0  0  0  0
   65.6166   45.1921   30.0841 H   0  0  0  0  0  0
   54.8751   48.5922   27.9296 H   0  0  0  0  0  0
   65.3725   45.0321   35.0862 H   0  0  0  0  0  0
   66.7605   46.0742   34.9381 H   0  0  0  0  0  0
   64.7699   47.3668   35.6248 H   0  0  0  0  0  0
   65.3605   47.9346   34.0898 H   0  0  0  0  0  0
   62.7275   48.4668   35.3115 H   0  0  0  0  0  0
   62.9984   49.0267   33.6736 H   0  0  0  0  0  0
   61.6059   48.0522   34.0545 H   0  0  0  0  0  0
   62.8237   45.7493   35.7500 H   0  0  0  0  0  0
   61.7114   45.6717   34.3963 H   0  0  0  0  0  0
   63.2082   44.7243   34.3645 H   0  0  0  0  0  0
   62.0975   47.0201   27.3739 H   0  0  0  0  0  0
   60.5467   47.8052   27.6055 H   0  0  0  0  0  0
   61.9931   48.5466   28.2670 H   0  0  0  0  0  0
   56.5309   43.6951   29.3639 H   0  0  0  0  0  0
   55.5925   44.1535   30.7727 H   0  0  0  0  0  0
   54.9180   44.2228   29.0951 H   0  0  0  0  0  0
  1  2  1  0  0  0
  1  4  1  0  0  0
  1  5  2  0  0  0
  2  3  2  0  0  0
  2 24  1  0  0  0
  3  6  1  0  0  0
  3 14  1  0  0  0
  4 19  1  0  0  0
  4 20  1  0  0  0
  4 21  1  0  0  0
  5  9  1  0  0  0
  5 16  1  0  0  0
  6 12  2  0  0  0
  6 22  1  0  0  0
  7 11  2  0  0  0
  7  8  1  0  0  0
  7 25  1  0  0  0
  8 15  2  0  0  0
  8 17  1  0  0  0
  9 18  1  0  0  0
 10 12  1  0  0  0
 10 13  2  0  0  0
 10 26  1  0  0  0
 11 13  1  0  0  0
 11 23  1  0  0  0
 12 27  1  0  0  0
 13 28  1  0  0  0
 14 16  2  0  0  0
 14 29  1  0  0  0
 16 30  1  0  0  0
 17 31  1  0  0  0
 18 19  1  0  0  0
 18 32  1  0  0  0
 18 33  1  0  0  0
 19 34  1  0  0  0
 19 35  1  0  0  0
 20 36  1  0  0  0
 20 37  1  0  0  0
 20 38  1  0  0  0
 21 39  1  0  0  0
 21 40  1  0  0  0
 21 41  1  0  0  0
 22 42  1  0  0  0
 22 43  1  0  0  0
 22 44  1  0  0  0
 23 45  1  0  0  0
 23 46  1  0  0  0
 23 47  1  0  0  0
M  END
> <s_m_entry_id>
31168

> <s_m_entry_name>
dock_pv.381

> <s_m_Source_Path>
/home/csk/Desktop/cluster/DUD-E-result/rxra

> <s_m_Source_File>
dock_pv.maegz

> <i_m_Source_File_Index>
381

> <chembl_id>
CHEMBL34292

> <chembl_pref_name>
None

> <i_lp_mmshare_version>
53161

> <r_lp_tautomer_probability>
1

> <s_lp_Force_Field>
OPLS_2005

> <r_lp_Energy>
26.120709

> <b_lp_Chiralities_Consistent>
1

> <s_lp_Variant>
CHEMBL2061_lig314-1

> <s_i_glide_gridfile>
glide-grid_1mv9

> <i_i_glide_lignum>
362

> <i_i_glide_rotatable_bonds>
5

> <r_i_docking_score>
-9.00671493218391

> <r_i_glide_ligand_efficiency>
-0.3915963013993

> <r_i_glide_ligand_efficiency_sa>
-1.11364778981753

> <r_i_glide_ligand_efficiency_ln>
-2.1779053389778

> <r_i_glide_gscore>
-9.00671493218391

> <r_i_glide_lipo>
-5.15814575326178

> <r_i_glide_hbond>
-0.216202672341589

> <r_i_glide_metal>
0

> <r_i_glide_rewards>
-1.87840388312538

> <r_i_glide_evdw>
-36.5170364379883

> <r_i_glide_ecoul>
-4.16289949417114

> <r_i_glide_erotb>
0.696324122569926

> <r_i_glide_esite>
0

> <r_i_glide_emodel>
-54.4387212795585

> <r_i_glide_energy>
-40.6799359321594

> <r_i_glide_einternal>
3.50415587425232

> <i_i_glide_confnum>
31

> <i_i_glide_posenum>
275

> <r_i_glide_eff_state_penalty>
0

> <s_user_duplicate_titles>
CHEMBL2061_lig314

> <i_f3d_flags>
0

> <s_m_subgroup_title>
dock_pv

> <s_m_subgroupid>
dock_pv

> <b_m_subgroup_collapsed>
1

$$$$
CHEMBL2061_lig75
                    3D
 Schrodinger Suite 2021-1.
 36 38  0  0  1  0            999 V2000
   60.9549   46.3990   30.8782 O   0  0  0  0  0  0
   54.0081   44.9069   30.4400 O   0  0  0  0  0  0
   54.1046   46.6777   28.9976 O   0  0  0  0  0  0
   63.8069   46.1684   33.1378 C   0  0  0  0  0  0
   64.8022   45.6408   32.3103 C   0  0  0  0  0  0
   62.2576   46.1936   31.2792 C   0  0  0  0  0  0
   62.5555   46.4833   32.6110 C   0  0  0  0  0  0
   64.5479   45.4405   30.9540 C   0  0  0  0  0  0
   58.9551   45.6855   29.7364 C   0  0  0  0  0  0
   63.2723   45.6912   30.4460 C   0  0  0  0  0  0
   64.3423   46.3943   34.5336 C   0  0  0  0  0  0
   66.0875   45.4551   33.0824 C   0  0  0  0  0  0
   56.1602   45.6771   29.7164 C   0  0  0  0  0  0
   60.4776   45.6859   29.7390 C   0  0  0  0  0  0
   65.6563   45.6129   34.5388 C   0  0  0  0  0  0
   58.2470   45.2784   30.8679 C   0  0  0  0  0  0
   58.2638   46.0771   28.5895 C   0  0  0  0  0  0
   56.8577   45.2755   30.8549 C   0  0  0  0  0  0
   56.8711   46.0660   28.5758 C   0  0  0  0  0  0
   54.6623   45.6776   29.7392 C   0  0  0  0  0  0
   54.7979   47.2102   28.6030 H   0  0  0  0  0  0
   61.7834   46.8989   33.2413 H   0  0  0  0  0  0
   65.3201   45.0661   30.2963 H   0  0  0  0  0  0
   63.0825   45.4913   29.4021 H   0  0  0  0  0  0
   64.5318   47.4552   34.7056 H   0  0  0  0  0  0
   63.6713   46.0414   35.3170 H   0  0  0  0  0  0
   66.5565   44.4838   32.9197 H   0  0  0  0  0  0
   66.8089   46.2281   32.8185 H   0  0  0  0  0  0
   60.8113   44.6469   29.7389 H   0  0  0  0  0  0
   60.8635   46.1589   28.8343 H   0  0  0  0  0  0
   65.4767   44.6231   34.9625 H   0  0  0  0  0  0
   66.4231   46.0770   35.1562 H   0  0  0  0  0  0
   58.7649   45.0065   31.7742 H   0  0  0  0  0  0
   58.8044   46.3804   27.7034 H   0  0  0  0  0  0
   56.3216   44.9730   31.7390 H   0  0  0  0  0  0
   56.3599   46.3458   27.6667 H   0  0  0  0  0  0
  1  6  1  0  0  0
  1 14  1  0  0  0
  2 20  2  0  0  0
  3 20  1  0  0  0
  3 21  1  0  0  0
  4  5  1  0  0  0
  4  7  2  0  0  0
  4 11  1  0  0  0
  5  8  2  0  0  0
  5 12  1  0  0  0
  6  7  1  0  0  0
  6 10  2  0  0  0
  7 22  1  0  0  0
  8 10  1  0  0  0
  8 23  1  0  0  0
  9 14  1  0  0  0
  9 16  2  0  0  0
  9 17  1  0  0  0
 10 24  1  0  0  0
 11 15  1  0  0  0
 11 25  1  0  0  0
 11 26  1  0  0  0
 12 15  1  0  0  0
 12 27  1  0  0  0
 12 28  1  0  0  0
 13 18  2  0  0  0
 13 19  1  0  0  0
 13 20  1  0  0  0
 14 29  1  0  0  0
 14 30  1  0  0  0
 15 31  1  0  0  0
 15 32  1  0  0  0
 16 18  1  0  0  0
 16 33  1  0  0  0
 17 19  2  0  0  0
 17 34  1  0  0  0
 18 35  1  0  0  0
 19 36  1  0  0  0
M  END
> <s_m_entry_id>
31169

> <s_m_entry_name>
dock_pv.382

> <s_m_Source_Path>
/home/csk/Desktop/cluster/DUD-E-result/rxra

> <s_m_Source_File>
dock_pv.maegz

> <i_m_Source_File_Index>
382

> <chembl_id>
CHEMBL1381178

> <chembl_pref_name>
None

> <i_lp_mmshare_version>
53161

> <r_lp_tautomer_probability>
1

> <s_lp_Force_Field>
OPLS_2005

> <r_lp_Energy>
30.136518

> <b_lp_Chiralities_Consistent>
1

> <s_lp_Variant>
CHEMBL2061_lig75-1

> <s_i_glide_gridfile>
glide-grid_1mv9

> <i_i_glide_lignum>
102

> <i_i_glide_rotatable_bonds>
5

> <r_i_docking_score>
-9.00241227588134

> <r_i_glide_ligand_efficiency>
-0.450120613794067

> <r_i_glide_ligand_efficiency_sa>
-1.22181532245505

> <r_i_glide_ligand_efficiency_ln>
-2.25300687322431

> <r_i_glide_gscore>
-9.00241227588134

> <r_i_glide_lipo>
-4.60375193204282

> <r_i_glide_hbond>
-0.379445428777015

> <r_i_glide_metal>
0

> <r_i_glide_rewards>
-2.57378494298305

> <r_i_glide_evdw>
-38.1393585205078

> <r_i_glide_ecoul>
-3.53446531295776

> <r_i_glide_erotb>
0.991707750890599

> <r_i_glide_esite>
0

> <r_i_glide_emodel>
-60.8187856642329

> <r_i_glide_energy>
-41.6738238334656

> <r_i_glide_einternal>
6.02080535888672

> <i_i_glide_confnum>
19

> <i_i_glide_posenum>
156

> <r_i_glide_eff_state_penalty>
0

> <s_user_duplicate_titles>
CHEMBL2061_lig75

> <i_f3d_flags>
0

> <s_m_subgroup_title>
dock_pv

> <s_m_subgroupid>
dock_pv

> <b_m_subgroup_collapsed>
1

$$$$
CHEMBL2061_lig482
                    3D
 Schrodinger Suite 2021-1.
 39 42  0  0  1  0            999 V2000
   64.0147   47.3008   27.2769 C   0  0  0  0  0  0
   62.8360   47.7698   26.7108 C   0  0  0  0  0  0
   61.6108   47.5643   27.3412 C   0  0  0  0  0  0
   63.9899   46.7267   28.5392 C   0  0  0  0  0  0
   62.7879   46.6568   29.2491 C   0  0  0  0  0  0
   61.5799   46.9906   28.6154 C   0  0  0  0  0  0
   60.2368   46.7710   29.3013 C   0  0  0  0  0  0
   60.3288   46.2530   30.5780 N   0  0  0  0  0  0
   59.0708   45.7077   31.1811 C   0  0  0  0  0  0
   59.1612   47.0037   28.7432 O   0  0  0  0  0  0
   63.8021   46.4419   31.6858 C   0  0  0  0  0  0
   62.7383   46.4247   30.6969 C   0  0  0  0  0  0
   61.5265   46.3410   31.2929 C   0  0  0  0  0  0
   63.1100   46.4751   32.9661 C   0  0  0  0  0  0
   61.7328   46.4373   32.7606 C   0  0  0  0  0  0
   60.8906   46.4770   33.8814 C   0  0  0  0  0  0
   63.6688   46.5592   34.2393 C   0  0  0  0  0  0
   62.8250   46.6153   35.3403 C   0  0  0  0  0  0
   61.4428   46.5731   35.1634 C   0  0  0  0  0  0
   65.0110   46.4734   31.4563 O   0  0  0  0  0  0
   58.4187   44.4806   30.4888 C   0  0  0  0  0  0
   57.0882   44.7403   29.7621 C   0  0  0  0  0  0
   56.0670   45.2217   30.6726 N   0  0  0  0  0  0
   64.9534   47.4172   26.7545 H   0  0  0  0  0  0
   62.8647   48.2375   25.7397 H   0  0  0  0  0  0
   60.7012   47.8752   26.8451 H   0  0  0  0  0  0
   64.9249   46.4346   28.9914 H   0  0  0  0  0  0
   59.2281   45.4223   32.2142 H   0  0  0  0  0  0
   58.3120   46.4766   31.2420 H   0  0  0  0  0  0
   59.8159   46.4745   33.7996 H   0  0  0  0  0  0
   64.7399   46.5975   34.3836 H   0  0  0  0  0  0
   63.2512   46.6997   36.3276 H   0  0  0  0  0  0
   60.8079   46.6187   36.0333 H   0  0  0  0  0  0
   59.1205   44.0778   29.7651 H   0  0  0  0  0  0
   58.2679   43.6836   31.2177 H   0  0  0  0  0  0
   57.2110   45.4474   28.9420 H   0  0  0  0  0  0
   56.7343   43.8070   29.3265 H   0  0  0  0  0  0
   55.1947   45.2783   30.1702 H   0  0  0  0  0  0
   55.9378   44.5470   31.4123 H   0  0  0  0  0  0
  1  4  1  0  0  0
  1  2  2  0  0  0
  1 24  1  0  0  0
  2  3  1  0  0  0
  2 25  1  0  0  0
  3  6  2  0  0  0
  3 26  1  0  0  0
  4  5  2  0  0  0
  4 27  1  0  0  0
  5  6  1  0  0  0
  5 12  1  0  0  0
  6  7  1  0  0  0
  7  8  1  0  0  0
  7 10  2  0  0  0
  8 13  1  0  0  0
  8  9  1  0  0  0
  9 21  1  0  0  0
  9 28  1  0  0  0
  9 29  1  0  0  0
 11 12  1  0  0  0
 11 14  1  0  0  0
 11 20  2  0  0  0
 12 13  2  0  0  0
 13 15  1  0  0  0
 14 15  2  0  0  0
 14 17  1  0  0  0
 15 16  1  0  0  0
 16 19  2  0  0  0
 16 30  1  0  0  0
 17 18  2  0  0  0
 17 31  1  0  0  0
 18 19  1  0  0  0
 18 32  1  0  0  0
 19 33  1  0  0  0
 21 22  1  0  0  0
 21 34  1  0  0  0
 21 35  1  0  0  0
 22 23  1  0  0  0
 22 36  1  0  0  0
 22 37  1  0  0  0
 23 38  1  0  0  0
 23 39  1  0  0  0
M  END
> <s_m_entry_id>
31170

> <s_m_entry_name>
dock_pv.383

> <s_m_Source_Path>
/home/csk/Desktop/cluster/DUD-E-result/rxra

> <s_m_Source_File>
dock_pv.maegz

> <i_m_Source_File_Index>
383

> <chembl_id>
CHEMBL213072

> <chembl_pref_name>
None

> <i_lp_mmshare_version>
53161

> <r_lp_tautomer_probability>
1

> <s_lp_Force_Field>
OPLS_2005

> <r_lp_Energy>
46.497007

> <b_lp_Chiralities_Consistent>
1

> <s_lp_Variant>
CHEMBL2061_lig482-1

> <s_i_glide_gridfile>
glide-grid_1mv9

> <i_i_glide_lignum>
571

> <i_i_glide_rotatable_bonds>
3

> <r_i_docking_score>
-8.99906696607559

> <r_i_glide_ligand_efficiency>
-0.391263781133721

> <r_i_glide_ligand_efficiency_sa>
-1.1127021464151

> <r_i_glide_ligand_efficiency_ln>
-2.17605599142489

> <r_i_glide_gscore>
-8.99906696607559

> <r_i_glide_lipo>
-4.77144909480348

> <r_i_glide_hbond>
0

> <r_i_glide_metal>
0

> <r_i_glide_rewards>
-2.78208901706773

> <r_i_glide_evdw>
-32.5003242492676

> <r_i_glide_ecoul>
-0.130698159337044

> <r_i_glide_erotb>
0.199092082159558

> <r_i_glide_esite>
0

> <r_i_glide_emodel>
-41.0346955463169

> <r_i_glide_energy>
-32.6310224086046

> <r_i_glide_einternal>
6.78507900238037

> <i_i_glide_confnum>
1

> <i_i_glide_posenum>
46

> <r_i_glide_eff_state_penalty>
0

> <s_user_duplicate_titles>
CHEMBL2061_lig482

> <i_f3d_flags>
0

> <s_m_subgroup_title>
dock_pv

> <s_m_subgroupid>
dock_pv

> <b_m_subgroup_collapsed>
1

$$$$
CHEMBL2061_lig65
                    3D
 Schrodinger Suite 2021-1.
 61 63  0  0  1  0            999 V2000
   63.4528   47.9675   35.9703 C   0  0  0  0  0  0
   63.9419   46.5324   35.6623 C   0  0  0  0  0  0
   64.6458   45.9418   36.8792 C   0  0  0  0  0  0
   55.3637   45.5732   29.8231 C   0  0  0  0  0  0
   56.1141   45.2137   30.9390 C   0  0  0  0  0  0
   57.5089   45.2728   30.8961 C   0  0  0  0  0  0
   58.1519   45.7146   29.7371 C   0  0  0  0  0  0
   57.3831   46.0770   28.6292 C   0  0  0  0  0  0
   55.9944   46.0103   28.6648 C   0  0  0  0  0  0
   59.5588   45.6770   29.6968 N   0  0  0  0  0  0
   60.4083   46.2602   28.8096 C   0  0  0  0  0  0
   61.8184   45.6237   28.6272 C   0  0  0  0  0  0
   60.1068   47.2323   28.1164 O   0  0  0  0  0  0
   62.9411   46.5816   29.1024 C   0  0  0  0  0  0
   64.3249   45.8658   29.1156 C   0  0  0  0  0  0
   64.2445   44.6314   29.9084 N   0  0  0  0  0  0
   63.3344   43.6326   29.3283 C   0  0  0  0  0  0
   61.9293   44.2566   29.3389 C   0  0  0  0  0  0
   64.7226   44.5077   31.1773 C   0  0  0  0  0  0
   64.4081   43.5499   31.8883 O   0  0  0  0  0  0
   65.7988   45.5278   31.6693 C   0  0  2  0  0  0
   66.5396   45.1419   32.9753 C   0  0  0  0  0  0
   65.6777   45.1522   34.2381 C   0  0  0  0  0  0
   64.8851   46.4915   34.4268 C   0  0  1  0  0  0
   64.1351   46.8370   33.1186 C   0  0  0  0  0  0
   65.1246   46.8770   31.9639 C   0  0  0  0  0  0
   62.7590   45.6047   35.4178 C   0  0  0  0  0  0
   62.8190   47.9947   36.8544 H   0  0  0  0  0  0
   62.8544   48.3860   35.1621 H   0  0  0  0  0  0
   64.2886   48.6465   36.1392 H   0  0  0  0  0  0
   64.8079   44.8781   36.7262 H   0  0  0  0  0  0
   65.5877   46.4206   37.1154 H   0  0  0  0  0  0
   64.0084   45.9948   37.7391 H   0  0  0  0  0  0
   54.2873   45.5066   29.8515 H   0  0  0  0  0  0
   55.6081   44.8776   31.8288 H   0  0  0  0  0  0
   58.0799   44.9717   31.7626 H   0  0  0  0  0  0
   57.8685   46.4027   27.7318 H   0  0  0  0  0  0
   55.4167   46.2854   27.7948 H   0  0  0  0  0  0
   59.9761   45.0330   30.3501 H   0  0  0  0  0  0
   61.9087   45.4544   27.5529 H   0  0  0  0  0  0
   62.7530   46.9092   30.1256 H   0  0  0  0  0  0
   63.0305   47.4423   28.4378 H   0  0  0  0  0  0
   65.2078   46.4770   29.2827 H   0  0  0  0  0  0
   64.5372   45.4946   28.1390 H   0  0  0  0  0  0
   63.6435   43.4377   28.3029 H   0  0  0  0  0  0
   63.3997   42.6607   29.8217 H   0  0  0  0  0  0
   61.2540   43.5017   28.9394 H   0  0  0  0  0  0
   61.7483   44.4773   30.3816 H   0  0  0  0  0  0
   66.5238   45.6065   30.8596 H   0  0  0  0  0  0
   67.3058   45.8964   33.1387 H   0  0  0  0  0  0
   67.1275   44.2383   32.8743 H   0  0  0  0  0  0
   66.3207   44.9567   35.0903 H   0  0  0  0  0  0
   65.0196   44.2892   34.1958 H   0  0  0  0  0  0
   65.6112   47.2975   34.5377 H   0  0  0  0  0  0
   63.3381   46.1273   32.9023 H   0  0  0  0  0  0
   63.6252   47.7940   33.2028 H   0  0  0  0  0  0
   65.8984   47.5898   32.2299 H   0  0  0  0  0  0
   64.6792   47.2770   31.0785 H   0  0  0  0  0  0
   63.2080   44.6595   35.0954 H   0  0  0  0  0  0
   62.1690   45.3872   36.3082 H   0  0  0  0  0  0
   62.0654   45.9634   34.6573 H   0  0  0  0  0  0
  1  2  1  0  0  0
  1 28  1  0  0  0
  1 29  1  0  0  0
  1 30  1  0  0  0
  2  3  1  0  0  0
  2 24  1  0  0  0
  2 27  1  0  0  0
  3 31  1  0  0  0
  3 32  1  0  0  0
  3 33  1  0  0  0
  4  5  2  0  0  0
  4  9  1  0  0  0
  4 34  1  0  0  0
  5  6  1  0  0  0
  5 35  1  0  0  0
  6  7  2  0  0  0
  6 36  1  0  0  0
  7  8  1  0  0  0
  7 10  1  0  0  0
  8  9  2  0  0  0
  8 37  1  0  0  0
  9 38  1  0  0  0
 10 11  1  0  0  0
 10 39  1  0  0  0
 11 12  1  0  0  0
 11 13  2  0  0  0
 12 14  1  0  0  0
 12 18  1  0  0  0
 12 40  1  0  0  0
 14 15  1  0  0  0
 14 41  1  0  0  0
 14 42  1  0  0  0
 15 16  1  0  0  0
 15 43  1  0  0  0
 15 44  1  0  0  0
 16 17  1  0  0  0
 16 19  1  0  0  0
 17 18  1  0  0  0
 17 45  1  0  0  0
 17 46  1  0  0  0
 18 47  1  0  0  0
 18 48  1  0  0  0
 19 20  2  0  0  0
 19 21  1  0  0  0
 21 22  1  0  0  0
 21 26  1  0  0  0
 21 49  1  0  0  0
 22 23  1  0  0  0
 22 50  1  0  0  0
 22 51  1  0  0  0
 23 24  1  0  0  0
 23 52  1  0  0  0
 23 53  1  0  0  0
 24 25  1  0  0  0
 24 54  1  0  0  0
 25 26  1  0  0  0
 25 55  1  0  0  0
 25 56  1  0  0  0
 26 57  1  0  0  0
 26 58  1  0  0  0
 27 59  1  0  0  0
 27 60  1  0  0  0
 27 61  1  0  0  0
M  END
> <s_m_entry_id>
31171

> <s_m_entry_name>
dock_pv.384

> <s_m_Source_Path>
/home/csk/Desktop/cluster/DUD-E-result/rxra

> <s_m_Source_File>
dock_pv.maegz

> <i_m_Source_File_Index>
384

> <chembl_id>
CHEMBL4289931

> <chembl_pref_name>
None

> <i_lp_mmshare_version>
53161

> <r_lp_tautomer_probability>
1

> <s_lp_Force_Field>
OPLS_2005

> <r_lp_Energy>
50.080286

> <b_lp_Chiralities_Consistent>
1

> <s_lp_Variant>
CHEMBL2061_lig65-2

> <s_i_glide_gridfile>
glide-grid_1mv9

> <i_i_glide_lignum>
91

> <i_i_glide_rotatable_bonds>
6

> <r_i_docking_score>
-8.99004297932873

> <r_i_glide_ligand_efficiency>
-0.332964554789953

> <r_i_glide_ligand_efficiency_sa>
-0.998893663272462

> <r_i_glide_ligand_efficiency_ln>
-2.09273379314578

> <r_i_glide_gscore>
-8.99004297932873

> <r_i_glide_lipo>
-5.33201792264311

> <r_i_glide_hbond>
0

> <r_i_glide_metal>
0

> <r_i_glide_rewards>
-2.79592700613135

> <r_i_glide_evdw>
-31.9384803771973

> <r_i_glide_ecoul>
0.214614436030388

> <r_i_glide_erotb>
0.702633802901034

> <r_i_glide_esite>
0

> <r_i_glide_emodel>
-34.1820224396109

> <r_i_glide_energy>
-31.7238659411669

> <r_i_glide_einternal>
14.1094045639038

> <i_i_glide_confnum>
5

> <i_i_glide_posenum>
377

> <r_i_glide_eff_state_penalty>
0

> <s_user_duplicate_titles>
CHEMBL2061_lig65

> <i_f3d_flags>
0

> <s_m_subgroup_title>
dock_pv

> <s_m_subgroupid>
dock_pv

> <b_m_subgroup_collapsed>
1

$$$$
CHEMBL2061_lig52
                    3D
 Schrodinger Suite 2021-1.
 56 58  0  0  1  0            999 V2000
   62.0321   46.2105   31.1139 C   0  0  0  0  0  0
   62.9028   45.9421   30.0602 N   0  0  0  0  0  0
   62.7954   46.4427   32.2504 C   0  0  0  0  0  0
   64.1508   45.6610   30.6041 C   0  0  0  0  0  0
   64.1017   45.9950   31.9769 C   0  0  0  0  0  0
   60.5780   46.2148   30.9904 C   0  0  0  0  0  0
   54.6806   44.8045   30.1395 C   0  0  0  0  0  0
   62.4221   46.9174   33.5877 C   0  0  0  0  0  0
   55.5590   44.7548   28.9061 C   0  0  0  0  0  0
   59.8309   45.4851   30.1373 C   0  0  0  0  0  0
   62.5633   45.8682   28.6235 C   0  0  0  0  0  0
   55.1793   44.0883   31.1737 O   0  0  0  0  0  0
   53.6092   45.3887   30.1390 O   0  0  0  0  0  0
   56.2742   46.0648   28.5090 C   0  0  2  0  0  0
   57.7822   46.1623   28.8399 C   0  0  0  0  0  0
   61.4265   46.2833   34.3075 C   0  0  0  0  0  0
   63.1805   47.9334   34.1699 C   0  0  0  0  0  0
   61.7405   47.8932   36.0679 C   0  0  0  0  0  0
   58.3294   45.3520   30.0311 C   0  0  2  0  0  0
   65.3161   45.1451   30.0426 C   0  0  0  0  0  0
   65.2281   45.8247   32.7904 C   0  0  0  0  0  0
   61.1531   46.7347   35.5823 C   0  0  0  0  0  0
   62.8338   48.4430   35.4113 C   0  0  0  0  0  0
   61.2215   48.4805   37.1649 F   0  0  0  0  0  0
   55.5814   47.2177   28.9322 O   0  0  0  0  0  0
   57.7072   45.6771   31.2526 O   0  0  0  0  0  0
   62.5978   44.4062   28.1318 C   0  0  0  0  0  0
   63.4130   46.8419   27.7841 C   0  0  0  0  0  0
   66.3611   45.2721   32.2356 C   0  0  0  0  0  0
   66.3981   44.9285   30.8888 C   0  0  0  0  0  0
   60.0924   46.8259   31.7350 H   0  0  0  0  0  0
   56.2578   43.9314   28.9746 H   0  0  0  0  0  0
   54.8623   44.4743   28.1204 H   0  0  0  0  0  0
   60.3376   44.8594   29.4363 H   0  0  0  0  0  0
   61.5602   46.2627   28.4777 H   0  0  0  0  0  0
   56.1140   43.9048   31.0500 H   0  0  0  0  0  0
   56.2009   46.1112   27.4297 H   0  0  0  0  0  0
   58.3305   45.8352   27.9541 H   0  0  0  0  0  0
   58.0784   47.2084   28.9466 H   0  0  0  0  0  0
   60.8903   45.4376   33.9060 H   0  0  0  0  0  0
   64.0268   48.3247   33.6362 H   0  0  0  0  0  0
   58.1579   44.2862   29.8831 H   0  0  0  0  0  0
   65.3829   44.8973   29.0000 H   0  0  0  0  0  0
   65.1993   46.0639   33.8426 H   0  0  0  0  0  0
   60.4103   46.2204   36.1635 H   0  0  0  0  0  0
   63.3797   49.2726   35.8370 H   0  0  0  0  0  0
   56.0030   48.0002   28.5682 H   0  0  0  0  0  0
   57.9652   46.5694   31.5039 H   0  0  0  0  0  0
   62.2210   44.3285   27.1117 H   0  0  0  0  0  0
   63.6037   43.9997   28.1424 H   0  0  0  0  0  0
   62.0045   43.7350   28.7511 H   0  0  0  0  0  0
   63.0383   46.8763   26.7570 H   0  0  0  0  0  0
   63.3564   47.8551   28.1783 H   0  0  0  0  0  0
   64.4662   46.5733   27.7432 H   0  0  0  0  0  0
   67.2011   45.0890   32.8847 H   0  0  0  0  0  0
   67.2973   44.4940   30.4854 H   0  0  0  0  0  0
  1  2  1  0  0  0
  1  3  2  0  0  0
  1  6  1  0  0  0
  2  4  1  0  0  0
  2 11  1  0  0  0
  3  5  1  0  0  0
  3  8  1  0  0  0
  4 20  2  0  0  0
  4  5  1  0  0  0
  5 21  2  0  0  0
  6 10  2  0  0  0
  6 31  1  0  0  0
  7  9  1  0  0  0
  7 12  1  0  0  0
  7 13  2  0  0  0
  8 16  2  0  0  0
  8 17  1  0  0  0
  9 14  1  0  0  0
  9 32  1  0  0  0
  9 33  1  0  0  0
 10 19  1  0  0  0
 10 34  1  0  0  0
 11 27  1  0  0  0
 11 28  1  0  0  0
 11 35  1  0  0  0
 12 36  1  0  0  0
 14 15  1  0  0  0
 14 25  1  0  0  0
 14 37  1  0  0  0
 15 19  1  0  0  0
 15 38  1  0  0  0
 15 39  1  0  0  0
 16 22  1  0  0  0
 16 40  1  0  0  0
 17 23  2  0  0  0
 17 41  1  0  0  0
 18 22  2  0  0  0
 18 24  1  0  0  0
 18 23  1  0  0  0
 19 26  1  0  0  0
 19 42  1  0  0  0
 20 30  1  0  0  0
 20 43  1  0  0  0
 21 29  1  0  0  0
 21 44  1  0  0  0
 22 45  1  0  0  0
 23 46  1  0  0  0
 25 47  1  0  0  0
 26 48  1  0  0  0
 27 49  1  0  0  0
 27 50  1  0  0  0
 27 51  1  0  0  0
 28 52  1  0  0  0
 28 53  1  0  0  0
 28 54  1  0  0  0
 29 30  2  0  0  0
 29 55  1  0  0  0
 30 56  1  0  0  0
M  END
> <s_m_entry_id>
31172

> <s_m_entry_name>
dock_pv.385

> <s_m_Source_Path>
/home/csk/Desktop/cluster/DUD-E-result/rxra

> <s_m_Source_File>
dock_pv.maegz

> <i_m_Source_File_Index>
385

> <chembl_id>
CHEMBL2220442

> <chembl_pref_name>
FLUVASTATIN

> <i_lp_mmshare_version>
53161

> <r_lp_tautomer_probability>
1

> <s_lp_Force_Field>
OPLS_2005

> <r_lp_Energy>
28.274901

> <b_lp_Chiralities_Consistent>
1

> <s_lp_Variant>
CHEMBL2061_lig52-3

> <s_i_glide_gridfile>
glide-grid_1mv9

> <i_i_glide_lignum>
72

> <i_i_glide_rotatable_bonds>
11

> <r_i_docking_score>
-8.98631148627554

> <r_i_glide_ligand_efficiency>
-0.299543716209185

> <r_i_glide_ligand_efficiency_sa>
-0.930751970904172

> <r_i_glide_ligand_efficiency_ln>
-2.04178788338772

> <r_i_glide_gscore>
-8.98631148627554

> <r_i_glide_lipo>
-5.38433910559491

> <r_i_glide_hbond>
-0.199434799363606

> <r_i_glide_metal>
0

> <r_i_glide_rewards>
-2.08611568336836

> <r_i_glide_evdw>
-23.3205871582031

> <r_i_glide_ecoul>
-6.4353985786438

> <r_i_glide_erotb>
0.814917246758068

> <r_i_glide_esite>
0

> <r_i_glide_emodel>
-26.4349126425643

> <r_i_glide_energy>
-29.7559857368469

> <r_i_glide_einternal>
9.68287944793701

> <i_i_glide_confnum>
35

> <i_i_glide_posenum>
40

> <r_i_glide_eff_state_penalty>
0

> <s_user_duplicate_titles>
CHEMBL2061_lig52

> <i_f3d_flags>
0

> <s_m_subgroup_title>
dock_pv

> <s_m_subgroupid>
dock_pv

> <b_m_subgroup_collapsed>
1

$$$$
CHEMBL2061_lig352
                    3D
 Schrodinger Suite 2021-1.
 60 61  0  0  1  0            999 V2000
   61.4146   47.0130   28.5292 C   0  0  0  0  0  0
   62.1420   46.5418   29.8078 C   0  0  0  0  0  0
   62.5791   46.5536   32.2297 C   0  0  0  0  0  0
   63.8160   45.0634   30.7623 C   0  0  0  0  0  0
   61.2782   46.0682   27.3390 C   0  0  0  0  0  0
   62.1948   47.2513   27.2390 C   0  0  0  0  0  0
   61.8687   47.0159   31.1057 C   0  0  0  0  0  0
   63.1371   45.5862   29.6683 C   0  0  0  0  0  0
   63.5901   45.6173   32.0216 C   0  0  0  0  0  0
   56.1632   45.9674   29.3396 C   0  0  0  0  0  0
   54.8078   45.6509   29.7304 C   0  0  0  0  0  0
   62.1942   46.9967   33.6627 C   0  0  0  0  0  0
   64.7126   43.8387   30.5859 C   0  0  0  0  0  0
   57.3170   45.3738   29.7461 C   0  0  0  0  0  0
   58.8237   47.2229   29.0286 C   0  0  0  0  0  0
   58.5978   45.9303   29.3208 C   0  0  0  0  0  0
   54.4157   44.6484   30.3244 O   0  0  0  0  0  0
   60.1485   47.8654   28.6786 C   0  0  0  0  0  0
   53.9635   46.6469   29.3389 O   0  0  0  0  0  0
   60.7374   46.5520   33.9465 C   0  0  0  0  0  0
   62.3436   48.5263   33.8050 C   0  0  0  0  0  0
   63.0649   46.3685   34.7880 C   0  0  0  0  0  0
   64.6876   42.9637   31.8781 C   0  0  0  0  0  0
   66.1115   44.3624   30.1407 C   0  0  0  0  0  0
   64.1470   42.8770   29.5183 C   0  0  0  0  0  0
   57.3885   44.2015   30.7124 C   0  0  0  0  0  0
   61.6923   45.0613   27.3838 H   0  0  0  0  0  0
   60.3527   46.0785   26.7621 H   0  0  0  0  0  0
   61.9152   48.0773   26.5845 H   0  0  0  0  0  0
   63.2738   47.0925   27.2385 H   0  0  0  0  0  0
   61.0929   47.7381   31.2797 H   0  0  0  0  0  0
   63.3805   45.2364   28.6821 H   0  0  0  0  0  0
   64.1498   45.2457   32.8605 H   0  0  0  0  0  0
   56.2248   46.7884   28.6425 H   0  0  0  0  0  0
   58.0095   47.9282   29.0728 H   0  0  0  0  0  0
   59.4491   45.2736   29.2793 H   0  0  0  0  0  0
   60.0080   48.5257   27.8225 H   0  0  0  0  0  0
   60.3538   48.4770   29.5278 H   0  0  0  0  0  0
   54.4378   47.3502   28.8907 H   0  0  0  0  0  0
   60.6527   45.4659   33.9932 H   0  0  0  0  0  0
   60.3835   46.9377   34.9030 H   0  0  0  0  0  0
   60.0367   46.8769   33.1805 H   0  0  0  0  0  0
   63.3826   48.8148   33.9638 H   0  0  0  0  0  0
   62.0011   49.0826   32.9338 H   0  0  0  0  0  0
   61.7860   48.8769   34.6713 H   0  0  0  0  0  0
   64.1182   46.6340   34.6850 H   0  0  0  0  0  0
   62.7500   46.7139   35.7736 H   0  0  0  0  0  0
   62.9983   45.2802   34.8006 H   0  0  0  0  0  0
   63.6618   42.7883   32.2117 H   0  0  0  0  0  0
   65.0979   41.9691   31.7086 H   0  0  0  0  0  0
   65.2098   43.4104   32.7206 H   0  0  0  0  0  0
   66.0124   45.1072   29.3491 H   0  0  0  0  0  0
   66.6274   44.8572   30.9646 H   0  0  0  0  0  0
   66.7798   43.5937   29.7410 H   0  0  0  0  0  0
   64.0057   43.3160   28.5390 H   0  0  0  0  0  0
   64.8682   42.0781   29.3738 H   0  0  0  0  0  0
   63.1867   42.4512   29.8076 H   0  0  0  0  0  0
   58.2028   44.3675   31.4173 H   0  0  0  0  0  0
   56.5092   44.0899   31.3355 H   0  0  0  0  0  0
   57.6081   43.2781   30.1770 H   0  0  0  0  0  0
  1  2  1  0  0  0
  1  5  1  0  0  0
  1  6  1  0  0  0
  1 18  1  0  0  0
  2  7  1  0  0  0
  2  8  2  0  0  0
  3  7  2  0  0  0
  3 12  1  0  0  0
  3  9  1  0  0  0
  4  8  1  0  0  0
  4  9  2  0  0  0
  4 13  1  0  0  0
  5  6  1  0  0  0
  5 27  1  0  0  0
  5 28  1  0  0  0
  6 29  1  0  0  0
  6 30  1  0  0  0
  7 31  1  0  0  0
  8 32  1  0  0  0
  9 33  1  0  0  0
 10 14  2  0  0  0
 10 11  1  0  0  0
 10 34  1  0  0  0
 11 17  2  0  0  0
 11 19  1  0  0  0
 12 20  1  0  0  0
 12 21  1  0  0  0
 12 22  1  0  0  0
 13 23  1  0  0  0
 13 24  1  0  0  0
 13 25  1  0  0  0
 14 16  1  0  0  0
 14 26  1  0  0  0
 15 18  1  0  0  0
 15 16  2  0  0  0
 15 35  1  0  0  0
 16 36  1  0  0  0
 18 37  1  0  0  0
 18 38  1  0  0  0
 19 39  1  0  0  0
 20 40  1  0  0  0
 20 41  1  0  0  0
 20 42  1  0  0  0
 21 43  1  0  0  0
 21 44  1  0  0  0
 21 45  1  0  0  0
 22 46  1  0  0  0
 22 47  1  0  0  0
 22 48  1  0  0  0
 23 49  1  0  0  0
 23 50  1  0  0  0
 23 51  1  0  0  0
 24 52  1  0  0  0
 24 53  1  0  0  0
 24 54  1  0  0  0
 25 55  1  0  0  0
 25 56  1  0  0  0
 25 57  1  0  0  0
 26 58  1  0  0  0
 26 59  1  0  0  0
 26 60  1  0  0  0
M  END
> <s_m_entry_id>
31173

> <s_m_entry_name>
dock_pv.386

> <s_m_Source_Path>
/home/csk/Desktop/cluster/DUD-E-result/rxra

> <s_m_Source_File>
dock_pv.maegz

> <i_m_Source_File_Index>
386

> <chembl_id>
CHEMBL89581

> <chembl_pref_name>
None

> <i_lp_mmshare_version>
53161

> <r_lp_tautomer_probability>
1

> <s_lp_Force_Field>
OPLS_2005

> <r_lp_Energy>
31.493921

> <b_lp_Chiralities_Consistent>
1

> <s_lp_Variant>
CHEMBL2061_lig352-1

> <s_i_glide_gridfile>
glide-grid_1mv9

> <i_i_glide_lignum>
412

> <i_i_glide_rotatable_bonds>
8

> <r_i_docking_score>
-8.97600867844344

> <r_i_glide_ligand_efficiency>
-0.345231103017056

> <r_i_glide_ligand_efficiency_sa>
-1.02274578426923

> <r_i_glide_ligand_efficiency_ln>
-2.1079861854457

> <r_i_glide_gscore>
-8.97600867844344

> <r_i_glide_lipo>
-5.27004166345001

> <r_i_glide_hbond>
-0.147333045036753

> <r_i_glide_metal>
0

> <r_i_glide_rewards>
-1.97304733536076

> <r_i_glide_evdw>
-35.1182327270508

> <r_i_glide_ecoul>
-3.93252754211426

> <r_i_glide_erotb>
0.760204133073753

> <r_i_glide_esite>
0

> <r_i_glide_emodel>
-40.2014086225094

> <r_i_glide_energy>
-39.050760269165

> <r_i_glide_einternal>
8.03920745849609

> <i_i_glide_confnum>
140

> <i_i_glide_posenum>
13

> <r_i_glide_eff_state_penalty>
0

> <s_user_duplicate_titles>
CHEMBL2061_lig352,142997

> <i_f3d_flags>
0

> <s_m_subgroup_title>
dock_pv

> <s_m_subgroupid>
dock_pv

> <b_m_subgroup_collapsed>
1

$$$$
CHEMBL2061_lig521 
                    3D
 Schrodinger Suite 2021-1.
 55 56  0  0  1  0            999 V2000
   63.6708   46.1656   32.4909 C   0  0  0  0  0  0
   63.5827   45.6557   31.1916 C   0  0  0  0  0  0
   62.3441   45.6846   30.5438 C   0  0  0  0  0  0
   61.1967   46.1542   31.1747 C   0  0  0  0  0  0
   61.3128   46.6121   32.4982 C   0  0  0  0  0  0
   62.5456   46.6363   33.1761 C   0  0  0  0  0  0
   59.8784   46.0473   30.4794 C   0  0  0  0  0  0
   58.7382   45.6770   31.1950 C   0  0  0  0  0  0
   57.4842   45.5666   30.5942 C   0  0  0  0  0  0
   57.3459   45.7746   29.2114 C   0  0  0  0  0  0
   58.4953   46.1053   28.4844 C   0  0  0  0  0  0
   59.7362   46.2593   29.1044 C   0  0  0  0  0  0
   56.0187   45.5896   28.4544 C   0  0  0  0  0  0
   54.8514   46.4769   28.9168 C   0  0  0  0  0  0
   54.0033   45.7942   29.7390 O   0  0  0  0  0  0
   54.6961   47.6422   28.5666 O   0  0  0  0  0  0
   62.6980   47.1166   34.6459 C   0  0  0  0  0  0
   63.3840   48.4981   34.6519 C   0  0  0  0  0  0
   63.5762   46.1368   35.4752 C   0  0  0  0  0  0
   61.3423   47.2372   35.3874 C   0  0  0  0  0  0
   64.7875   45.0290   30.4726 C   0  0  0  0  0  0
   66.1452   45.3431   31.1535 C   0  0  0  0  0  0
   64.8460   45.5740   29.0268 C   0  0  0  0  0  0
   64.6022   43.4923   30.4726 C   0  0  0  0  0  0
   56.3158   45.2805   31.5110 C   0  0  0  0  0  0
   64.6216   46.1745   32.9956 H   0  0  0  0  0  0
   62.2447   45.2611   29.5571 H   0  0  0  0  0  0
   60.4161   46.9291   33.0025 H   0  0  0  0  0  0
   58.8206   45.5022   32.2580 H   0  0  0  0  0  0
   58.4388   46.2596   27.4191 H   0  0  0  0  0  0
   60.5906   46.5358   28.5040 H   0  0  0  0  0  0
   56.1543   45.7773   27.3890 H   0  0  0  0  0  0
   55.7469   44.5352   28.5203 H   0  0  0  0  0  0
   54.3242   44.8964   29.8475 H   0  0  0  0  0  0
   63.5095   48.8837   35.6649 H   0  0  0  0  0  0
   62.8080   49.2324   34.0881 H   0  0  0  0  0  0
   64.3764   48.4542   34.2015 H   0  0  0  0  0  0
   63.2080   45.1126   35.4202 H   0  0  0  0  0  0
   64.6153   46.1225   35.1471 H   0  0  0  0  0  0
   63.6084   46.4154   36.5291 H   0  0  0  0  0  0
   60.8081   46.2865   35.3959 H   0  0  0  0  0  0
   61.4759   47.5431   36.4260 H   0  0  0  0  0  0
   60.6942   47.9880   34.9390 H   0  0  0  0  0  0
   66.2285   44.8774   32.1364 H   0  0  0  0  0  0
   66.9796   44.9650   30.5603 H   0  0  0  0  0  0
   66.2962   46.4157   31.2823 H   0  0  0  0  0  0
   64.0317   45.2033   28.4051 H   0  0  0  0  0  0
   64.8080   46.6630   29.0009 H   0  0  0  0  0  0
   65.7644   45.2770   28.5391 H   0  0  0  0  0  0
   63.7783   43.1775   29.8306 H   0  0  0  0  0  0
   65.4974   42.9712   30.1389 H   0  0  0  0  0  0
   64.3886   43.1193   31.4758 H   0  0  0  0  0  0
   55.8188   44.3426   31.2650 H   0  0  0  0  0  0
   56.6516   45.2770   32.5390 H   0  0  0  0  0  0
   55.5988   46.0922   31.4948 H   0  0  0  0  0  0
  1  2  2  0  0  0
  1  6  1  0  0  0
  1 26  1  0  0  0
  2  3  1  0  0  0
  2 21  1  0  0  0
  3  4  2  0  0  0
  3 27  1  0  0  0
  4  5  1  0  0  0
  4  7  1  0  0  0
  5  6  2  0  0  0
  5 28  1  0  0  0
  6 17  1  0  0  0
  7  8  2  0  0  0
  7 12  1  0  0  0
  8  9  1  0  0  0
  8 29  1  0  0  0
  9 10  2  0  0  0
  9 25  1  0  0  0
 10 11  1  0  0  0
 10 13  1  0  0  0
 11 12  2  0  0  0
 11 30  1  0  0  0
 12 31  1  0  0  0
 13 14  1  0  0  0
 13 32  1  0  0  0
 13 33  1  0  0  0
 14 15  1  0  0  0
 14 16  2  0  0  0
 15 34  1  0  0  0
 17 18  1  0  0  0
 17 19  1  0  0  0
 17 20  1  0  0  0
 18 35  1  0  0  0
 18 36  1  0  0  0
 18 37  1  0  0  0
 19 38  1  0  0  0
 19 39  1  0  0  0
 19 40  1  0  0  0
 20 41  1  0  0  0
 20 42  1  0  0  0
 20 43  1  0  0  0
 21 22  1  0  0  0
 21 23  1  0  0  0
 21 24  1  0  0  0
 22 44  1  0  0  0
 22 45  1  0  0  0
 22 46  1  0  0  0
 23 47  1  0  0  0
 23 48  1  0  0  0
 23 49  1  0  0  0
 24 50  1  0  0  0
 24 51  1  0  0  0
 24 52  1  0  0  0
 25 53  1  0  0  0
 25 54  1  0  0  0
 25 55  1  0  0  0
M  END
> <s_m_entry_id>
31174

> <s_m_entry_name>
dock_pv.387

> <s_m_Source_Path>
/home/csk/Desktop/cluster/DUD-E-result/rxra

> <s_m_Source_File>
dock_pv.maegz

> <i_m_Source_File_Index>
387

> <chembl_id>
CHEMBL4454733

> <chembl_pref_name>
None

> <i_lp_mmshare_version>
53161

> <r_lp_tautomer_probability>
1

> <s_lp_Force_Field>
OPLS_2005

> <r_lp_Energy>
23.417016

> <b_lp_Chiralities_Consistent>
1

> <s_lp_Variant>
CHEMBL2061_lig521 -1

> <s_i_glide_gridfile>
glide-grid_1mv9

> <i_i_glide_lignum>
621

> <i_i_glide_rotatable_bonds>
6

> <r_i_docking_score>
-8.96709505645688

> <r_i_glide_ligand_efficiency>
-0.358683802258275

> <r_i_glide_ligand_efficiency_sa>
-1.04879779908752

> <r_i_glide_ligand_efficiency_ln>
-2.12547025053458

> <r_i_glide_gscore>
-8.96709505645688

> <r_i_glide_lipo>
-5.37934289042444

> <r_i_glide_hbond>
0

> <r_i_glide_metal>
0

> <r_i_glide_rewards>
-2.24103194711658

> <r_i_glide_evdw>
-36.4146003723145

> <r_i_glide_ecoul>
-0.14139612019062

> <r_i_glide_erotb>
0.495219217728453

> <r_i_glide_esite>
0

> <r_i_glide_emodel>
-42.7893644190895

> <r_i_glide_energy>
-36.5559964925051

> <r_i_glide_einternal>
9.6641788482666

> <i_i_glide_confnum>
19

> <i_i_glide_posenum>
227

> <r_i_glide_eff_state_penalty>
0

> <s_user_duplicate_titles>
CHEMBL2061_lig521 

> <i_f3d_flags>
0

> <s_m_subgroup_title>
dock_pv

> <s_m_subgroupid>
dock_pv

> <b_m_subgroup_collapsed>
1

$$$$
CHEMBL2061_lig24
                    3D
 Schrodinger Suite 2021-1.
 51 51  0  0  1  0            999 V2000
   63.1591   46.0235   33.1478 C   0  0  0  0  0  0
   63.0050   45.6766   31.7310 C   0  0  0  0  0  0
   62.0827   46.4478   33.8632 C   0  0  0  0  0  0
   64.4454   45.7981   33.8544 C   0  0  0  0  0  0
   62.0332   46.1019   30.9006 C   0  0  0  0  0  0
   55.9039   46.1970   28.8861 C   0  0  0  0  0  0
   54.5377   46.2592   29.3389 C   0  0  0  0  0  0
   59.4610   45.7127   29.5592 C   0  0  0  0  0  0
   56.9809   45.8312   29.6246 C   0  0  0  0  0  0
   61.9473   45.7795   29.4801 C   0  0  0  0  0  0
   58.2730   45.8400   28.9412 C   0  0  0  0  0  0
   60.7439   45.6771   28.8740 C   0  0  0  0  0  0
   54.0080   45.4914   30.1390 O   0  0  0  0  0  0
   53.8691   47.2783   28.7304 O   0  0  0  0  0  0
   62.0891   46.8065   35.3482 C   0  0  1  0  0  0
   64.3255   45.6348   35.3747 C   0  0  0  0  0  0
   63.5430   46.8564   35.8606 C   0  0  0  0  0  0
   56.9111   45.4449   31.1084 C   0  0  0  0  0  0
   63.2176   45.6153   28.6568 C   0  0  0  0  0  0
   61.3498   48.1258   35.5702 C   0  0  0  0  0  0
   65.6662   45.7336   33.2516 C   0  0  0  0  0  0
   66.9281   45.2547   33.9598 C   0  0  0  0  0  0
   65.9703   46.1533   31.8196 C   0  0  0  0  0  0
   63.7312   44.9960   31.3131 H   0  0  0  0  0  0
   61.1274   46.5351   33.3691 H   0  0  0  0  0  0
   61.2709   46.7565   31.2936 H   0  0  0  0  0  0
   56.0311   46.4766   27.8498 H   0  0  0  0  0  0
   59.4727   45.6101   30.6326 H   0  0  0  0  0  0
   58.2864   45.9541   27.8656 H   0  0  0  0  0  0
   60.7331   45.5267   27.8041 H   0  0  0  0  0  0
   54.4537   47.7979   28.1746 H   0  0  0  0  0  0
   61.5502   46.0249   35.8857 H   0  0  0  0  0  0
   63.8319   44.7025   35.6539 H   0  0  0  0  0  0
   65.2709   45.6795   35.9067 H   0  0  0  0  0  0
   63.6082   46.9236   36.9390 H   0  0  0  0  0  0
   64.0264   47.7742   35.5164 H   0  0  0  0  0  0
   57.2383   44.4130   31.2346 H   0  0  0  0  0  0
   57.6144   46.0497   31.6797 H   0  0  0  0  0  0
   55.9463   45.5836   31.5918 H   0  0  0  0  0  0
   63.8888   46.4503   28.8608 H   0  0  0  0  0  0
   63.7564   44.7140   28.9503 H   0  0  0  0  0  0
   63.0326   45.6084   27.5821 H   0  0  0  0  0  0
   60.2902   48.0425   35.3389 H   0  0  0  0  0  0
   61.4416   48.4788   36.5981 H   0  0  0  0  0  0
   61.7631   48.8769   34.9050 H   0  0  0  0  0  0
   67.4278   44.5206   33.3390 H   0  0  0  0  0  0
   67.6080   46.0841   34.1380 H   0  0  0  0  0  0
   66.7629   44.7386   34.9001 H   0  0  0  0  0  0
   66.8080   46.8353   31.8555 H   0  0  0  0  0  0
   66.2220   45.3003   31.1886 H   0  0  0  0  0  0
   65.1917   46.7399   31.3399 H   0  0  0  0  0  0
  1  2  1  0  0  0
  1  3  2  0  0  0
  1  4  1  0  0  0
  2  5  2  0  0  0
  2 24  1  0  0  0
  3 15  1  0  0  0
  3 25  1  0  0  0
  4 16  1  0  0  0
  4 21  2  0  0  0
  5 10  1  0  0  0
  5 26  1  0  0  0
  6  9  2  0  0  0
  6  7  1  0  0  0
  6 27  1  0  0  0
  7 13  2  0  0  0
  7 14  1  0  0  0
  8 12  1  0  0  0
  8 11  2  0  0  0
  8 28  1  0  0  0
  9 11  1  0  0  0
  9 18  1  0  0  0
 10 12  2  0  0  0
 10 19  1  0  0  0
 11 29  1  0  0  0
 12 30  1  0  0  0
 14 31  1  0  0  0
 15 17  1  0  0  0
 15 20  1  0  0  0
 15 32  1  0  0  0
 16 17  1  0  0  0
 16 33  1  0  0  0
 16 34  1  0  0  0
 17 35  1  0  0  0
 17 36  1  0  0  0
 18 37  1  0  0  0
 18 38  1  0  0  0
 18 39  1  0  0  0
 19 40  1  0  0  0
 19 41  1  0  0  0
 19 42  1  0  0  0
 20 43  1  0  0  0
 20 44  1  0  0  0
 20 45  1  0  0  0
 21 22  1  0  0  0
 21 23  1  0  0  0
 22 46  1  0  0  0
 22 47  1  0  0  0
 22 48  1  0  0  0
 23 49  1  0  0  0
 23 50  1  0  0  0
 23 51  1  0  0  0
M  END
> <s_m_entry_id>
31175

> <s_m_entry_name>
dock_pv.388

> <s_m_Source_Path>
/home/csk/Desktop/cluster/DUD-E-result/rxra

> <s_m_Source_File>
dock_pv.maegz

> <i_m_Source_File_Index>
388

> <chembl_id>
CHEMBL1773355

> <chembl_pref_name>
None

> <i_lp_mmshare_version>
53161

> <r_lp_tautomer_probability>
1

> <s_lp_Force_Field>
OPLS_2005

> <r_lp_Energy>
37.094236

> <b_lp_Chiralities_Consistent>
1

> <s_lp_Variant>
CHEMBL2061_lig24-1

> <s_i_glide_gridfile>
glide-grid_1mv9

> <i_i_glide_lignum>
28

> <i_i_glide_rotatable_bonds>
6

> <r_i_docking_score>
-8.96327395525917

> <r_i_glide_ligand_efficiency>
-0.389707563272138

> <r_i_glide_ligand_efficiency_sa>
-1.10827646982972

> <r_i_glide_ligand_efficiency_ln>
-2.1674009168564

> <r_i_glide_gscore>
-8.96327395525917

> <r_i_glide_lipo>
-5.41535762250532

> <r_i_glide_hbond>
-0.16

> <r_i_glide_metal>
0

> <r_i_glide_rewards>
-1.91699308792422

> <r_i_glide_evdw>
-35.1216011047363

> <r_i_glide_ecoul>
-4.29409837722778

> <r_i_glide_erotb>
0.950592674638487

> <r_i_glide_esite>
-0.0213211076471299

> <r_i_glide_emodel>
-57.9476183509839

> <r_i_glide_energy>
-39.4156994819641

> <r_i_glide_einternal>
3.2521071434021

> <i_i_glide_confnum>
1

> <i_i_glide_posenum>
358

> <r_i_glide_eff_state_penalty>
0

> <s_user_duplicate_titles>
CHEMBL2061_lig24

> <i_f3d_flags>
0

> <s_m_subgroup_title>
dock_pv

> <s_m_subgroupid>
dock_pv

> <b_m_subgroup_collapsed>
1

$$$$
CHEMBL2061_lig574
                    3D
 Schrodinger Suite 2021-1.
 28 30  0  0  1  0            999 V2000
   55.3324   45.1181   29.4130 N   0  0  0  0  0  0
   57.5431   45.6857   29.3460 C   0  0  0  0  0  0
   55.6110   44.6369   30.6043 C   0  0  0  0  0  0
   56.2677   45.6770   28.6680 C   0  0  0  0  0  0
   57.3548   44.9358   30.9390 S   0  0  0  0  0  0
   58.6385   46.1912   28.7344 C   0  0  0  0  0  0
   61.6260   46.4776   30.6970 C   0  0  0  0  0  0
   60.3022   46.1997   30.5265 O   0  0  0  0  0  0
   60.0050   46.3277   29.2033 C   0  0  0  0  0  0
   62.1953   46.7234   29.4570 C   0  0  0  0  0  0
   61.1699   46.6433   28.5198 C   0  0  0  0  0  0
   62.1775   46.4785   32.0829 C   0  0  0  0  0  0
   54.8093   44.0770   31.3280 O   0  0  0  0  0  0
   56.0065   46.0775   27.5540 O   0  0  0  0  0  0
   63.5650   46.4774   32.2681 C   0  0  0  0  0  0
   64.1117   46.4778   33.5507 C   0  0  0  0  0  0
   66.0037   46.4765   33.7653 Br  0  0  0  0  0  0
   61.3422   46.4770   33.2077 C   0  0  0  0  0  0
   61.8875   46.4842   34.4935 C   0  0  0  0  0  0
   63.2729   46.4838   34.6654 C   0  0  0  0  0  0
   54.4032   45.0198   29.0397 H   0  0  0  0  0  0
   58.5393   46.5611   27.7243 H   0  0  0  0  0  0
   63.2293   46.9627   29.2583 H   0  0  0  0  0  0
   61.2635   46.8103   27.4565 H   0  0  0  0  0  0
   64.2317   46.4733   31.4185 H   0  0  0  0  0  0
   60.2677   46.4768   33.0886 H   0  0  0  0  0  0
   61.2360   46.4867   35.3553 H   0  0  0  0  0  0
   63.6960   46.4875   35.6594 H   0  0  0  0  0  0
  1  3  1  0  0  0
  1  4  1  0  0  0
  1 21  1  0  0  0
  2  4  1  0  0  0
  2  6  2  0  0  0
  2  5  1  0  0  0
  3  5  1  0  0  0
  3 13  2  0  0  0
  4 14  2  0  0  0
  6  9  1  0  0  0
  6 22  1  0  0  0
  7  8  1  0  0  0
  7 12  1  0  0  0
  7 10  2  0  0  0
  8  9  1  0  0  0
  9 11  2  0  0  0
 10 11  1  0  0  0
 10 23  1  0  0  0
 11 24  1  0  0  0
 12 15  1  0  0  0
 12 18  2  0  0  0
 15 16  2  0  0  0
 15 25  1  0  0  0
 16 17  1  0  0  0
 16 20  1  0  0  0
 18 19  1  0  0  0
 18 26  1  0  0  0
 19 20  2  0  0  0
 19 27  1  0  0  0
 20 28  1  0  0  0
M  END
> <s_m_entry_id>
31176

> <s_m_entry_name>
dock_pv.389

> <s_m_Source_Path>
/home/csk/Desktop/cluster/DUD-E-result/rxra

> <s_m_Source_File>
dock_pv.maegz

> <i_m_Source_File_Index>
389

> <chembl_id>
CHEMBL293917

> <chembl_pref_name>
None

> <i_lp_mmshare_version>
53161

> <r_lp_tautomer_probability>
1

> <s_lp_Force_Field>
OPLS_2005

> <r_lp_Energy>
7.812132

> <b_lp_Chiralities_Consistent>
1

> <s_lp_Variant>
CHEMBL2061_lig574-1

> <s_i_glide_gridfile>
glide-grid_1mv9

> <i_i_glide_lignum>
705

> <i_i_glide_rotatable_bonds>
2

> <r_i_docking_score>
-8.96275981116274

> <r_i_glide_ligand_efficiency>
-0.448137990558137

> <r_i_glide_ligand_efficiency_sa>
-1.21643365502175

> <r_i_glide_ligand_efficiency_ln>
-2.24308316913106

> <r_i_glide_gscore>
-8.96275981116274

> <r_i_glide_lipo>
-4.09640965279935

> <r_i_glide_hbond>
-0.230021287558146

> <r_i_glide_metal>
0

> <r_i_glide_rewards>
-2.91646990193824

> <r_i_glide_evdw>
-34.1298370361328

> <r_i_glide_ecoul>
-2.16120672225952

> <r_i_glide_erotb>
0.310813891278572

> <r_i_glide_esite>
0

> <r_i_glide_emodel>
-53.32820063947

> <r_i_glide_energy>
-36.2910437583923

> <r_i_glide_einternal>
0.871390461921692

> <i_i_glide_confnum>
4

> <i_i_glide_posenum>
243

> <r_i_glide_eff_state_penalty>
0

> <s_user_duplicate_titles>
CHEMBL2061_lig574

> <i_f3d_flags>
0

> <s_m_subgroup_title>
dock_pv

> <s_m_subgroupid>
dock_pv

> <b_m_subgroup_collapsed>
1

$$$$
CHEMBL2061_lig519
                    3D
 Schrodinger Suite 2021-1.
 48 50  0  0  1  0            999 V2000
   64.0078   47.7184   36.5395 F   0  0  0  0  0  0
   63.5817   47.1855   35.4108 C   0  0  0  0  0  0
   62.8705   46.1041   35.7353 F   0  0  0  0  0  0
   62.0716   47.6947   33.4241 C   0  0  0  0  0  0
   62.7120   48.2411   34.7089 C   0  0  0  0  0  0
   64.8058   46.7951   34.5571 C   0  0  0  0  0  0
   63.1128   46.8809   32.6454 C   0  0  0  0  0  0
   64.3668   46.5256   33.1257 C   0  0  0  0  0  0
   65.0197   45.8412   32.1055 C   0  0  0  0  0  0
   64.1716   45.8122   31.0021 C   0  0  0  0  0  0
   62.9871   46.4464   31.3369 N   0  0  0  0  0  0
   61.7893   46.4697   30.5856 C   0  0  0  0  0  0
   61.7211   46.7612   29.2159 C   0  0  0  0  0  0
   60.5064   46.5912   28.5394 C   0  0  0  0  0  0
   59.3737   46.1316   29.2282 C   0  0  0  0  0  0
   59.4534   45.8983   30.5898 C   0  0  0  0  0  0
   60.6401   46.0771   31.2549 C   0  0  0  0  0  0
   64.4052   45.1580   29.6579 C   0  0  0  0  0  0
   66.4079   45.2762   32.2054 C   0  0  0  0  0  0
   58.0454   45.9277   28.5244 C   0  0  0  0  0  0
   57.0789   44.8807   29.1320 C   0  0  0  0  0  0
   55.6496   45.0287   28.5825 C   0  0  0  0  0  0
   54.8065   45.9797   29.4218 C   0  0  0  0  0  0
   54.4030   45.6793   30.5415 O   0  0  0  0  0  0
   54.5320   47.1486   28.7787 O   0  0  0  0  0  0
   61.6706   48.5037   32.8131 H   0  0  0  0  0  0
   61.2345   47.0815   33.7503 H   0  0  0  0  0  0
   63.3271   49.1076   34.4599 H   0  0  0  0  0  0
   61.9417   48.5982   35.3948 H   0  0  0  0  0  0
   65.3217   45.9391   34.9936 H   0  0  0  0  0  0
   65.5286   47.6110   34.5384 H   0  0  0  0  0  0
   62.5976   47.0824   28.6731 H   0  0  0  0  0  0
   60.4530   46.7992   27.4804 H   0  0  0  0  0  0
   58.6198   45.5825   31.1915 H   0  0  0  0  0  0
   60.6571   45.7861   32.2917 H   0  0  0  0  0  0
   65.2338   44.4597   29.7394 H   0  0  0  0  0  0
   63.5470   44.5826   29.3075 H   0  0  0  0  0  0
   64.6649   45.8820   28.8854 H   0  0  0  0  0  0
   67.0825   46.0367   32.5948 H   0  0  0  0  0  0
   66.4528   44.4626   32.9280 H   0  0  0  0  0  0
   66.8121   44.9271   31.2543 H   0  0  0  0  0  0
   58.2479   45.6786   27.4842 H   0  0  0  0  0  0
   57.5417   46.8798   28.5458 H   0  0  0  0  0  0
   57.0159   44.9228   30.2164 H   0  0  0  0  0  0
   57.4738   43.8891   28.9418 H   0  0  0  0  0  0
   55.1303   44.0773   28.6614 H   0  0  0  0  0  0
   55.6529   45.3052   27.5309 H   0  0  0  0  0  0
   54.9753   47.2023   27.9313 H   0  0  0  0  0  0
  1  2  1  0  0  0
  2  3  1  0  0  0
  2  5  1  0  0  0
  2  6  1  0  0  0
  4  7  1  0  0  0
  4  5  1  0  0  0
  4 26  1  0  0  0
  4 27  1  0  0  0
  5 28  1  0  0  0
  5 29  1  0  0  0
  6  8  1  0  0  0
  6 30  1  0  0  0
  6 31  1  0  0  0
  7  8  2  0  0  0
  7 11  1  0  0  0
  8  9  1  0  0  0
  9 10  2  0  0  0
  9 19  1  0  0  0
 10 11  1  0  0  0
 10 18  1  0  0  0
 11 12  1  0  0  0
 12 13  2  0  0  0
 12 17  1  0  0  0
 13 14  1  0  0  0
 13 32  1  0  0  0
 14 15  2  0  0  0
 14 33  1  0  0  0
 15 16  1  0  0  0
 15 20  1  0  0  0
 16 17  2  0  0  0
 16 34  1  0  0  0
 17 35  1  0  0  0
 18 36  1  0  0  0
 18 37  1  0  0  0
 18 38  1  0  0  0
 19 39  1  0  0  0
 19 40  1  0  0  0
 19 41  1  0  0  0
 20 21  1  0  0  0
 20 42  1  0  0  0
 20 43  1  0  0  0
 21 22  1  0  0  0
 21 44  1  0  0  0
 21 45  1  0  0  0
 22 23  1  0  0  0
 22 46  1  0  0  0
 22 47  1  0  0  0
 23 24  2  0  0  0
 23 25  1  0  0  0
 25 48  1  0  0  0
M  END
> <s_m_entry_id>
31177

> <s_m_entry_name>
dock_pv.390

> <s_m_Source_Path>
/home/csk/Desktop/cluster/DUD-E-result/rxra

> <s_m_Source_File>
dock_pv.maegz

> <i_m_Source_File_Index>
390

> <chembl_id>
CHEMBL4173918

> <chembl_pref_name>
None

> <i_lp_mmshare_version>
53161

> <r_lp_tautomer_probability>
1

> <s_lp_Force_Field>
OPLS_2005

> <r_lp_Energy>
15.370756

> <b_lp_Chiralities_Consistent>
1

> <s_lp_Variant>
CHEMBL2061_lig519-1

> <s_i_glide_gridfile>
glide-grid_1mv9

> <i_i_glide_lignum>
619

> <i_i_glide_rotatable_bonds>
6

> <r_i_docking_score>
-8.96125773791943

> <r_i_glide_ligand_efficiency>
-0.358450309516777

> <r_i_glide_ligand_efficiency_sa>
-1.04811506217036

> <r_i_glide_ligand_efficiency_ln>
-2.12408663111088

> <r_i_glide_gscore>
-8.96125773791943

> <r_i_glide_lipo>
-4.63156421634318

> <r_i_glide_hbond>
-0.16

> <r_i_glide_metal>
0

> <r_i_glide_rewards>
-2.74223965158273

> <r_i_glide_evdw>
-33.7793922424316

> <r_i_glide_ecoul>
-3.51094102859497

> <r_i_glide_erotb>
0.788156896417307

> <r_i_glide_esite>
0

> <r_i_glide_emodel>
-46.4005438668503

> <r_i_glide_energy>
-37.2903332710266

> <r_i_glide_einternal>
6.47507047653198

> <i_i_glide_confnum>
123

> <i_i_glide_posenum>
192

> <r_i_glide_eff_state_penalty>
0

> <s_user_duplicate_titles>
CHEMBL2061_lig519

> <i_f3d_flags>
0

> <s_m_subgroup_title>
dock_pv

> <s_m_subgroupid>
dock_pv

> <b_m_subgroup_collapsed>
1

$$$$
CHEMBL2061_lig534 
                    3D
 Schrodinger Suite 2021-1.
 41 42  0  0  1  0            999 V2000
   59.1639   46.1192   29.3082 C   0  0  0  0  0  0
   58.1774   46.0771   28.3320 C   0  0  0  0  0  0
   56.8830   45.6771   28.6367 C   0  0  0  0  0  0
   56.5741   45.2680   29.9339 C   0  0  0  0  0  0
   57.5732   45.2752   30.9162 C   0  0  0  0  0  0
   58.8679   45.6769   30.5967 C   0  0  0  0  0  0
   55.1646   44.9019   30.2843 C   0  0  0  0  0  0
   54.5224   44.1482   29.3477 O   0  0  0  0  0  0
   54.6391   45.2709   31.3296 O   0  0  0  0  0  0
   60.5190   46.7211   28.9527 C   0  0  0  0  0  0
   61.5590   45.7687   29.1123 O   0  0  0  0  0  0
   62.3717   45.7738   30.2293 C   0  0  0  0  0  0
   63.4146   44.8457   30.2445 C   0  0  0  0  0  0
   64.2784   44.7669   31.3338 C   0  0  0  0  0  0
   64.1085   45.5859   32.4604 C   0  0  0  0  0  0
   63.0658   46.5241   32.4358 C   0  0  0  0  0  0
   62.2138   46.6241   31.3363 C   0  0  0  0  0  0
   65.0651   45.4358   33.6668 C   0  0  0  0  0  0
   65.1367   43.9529   34.1157 C   0  0  0  0  0  0
   64.6345   46.2590   34.9091 C   0  0  0  0  0  0
   66.4683   45.9082   33.2404 C   0  0  0  0  0  0
   63.6079   43.7271   28.9405 Cl  0  0  0  0  0  0
   58.4082   46.4220   27.3391 H   0  0  0  0  0  0
   56.1343   45.7060   27.8590 H   0  0  0  0  0  0
   57.3563   44.9872   31.9343 H   0  0  0  0  0  0
   59.6192   45.6934   31.3703 H   0  0  0  0  0  0
   55.1154   43.8344   28.6563 H   0  0  0  0  0  0
   60.6762   47.6703   29.4618 H   0  0  0  0  0  0
   60.5311   46.9852   27.8944 H   0  0  0  0  0  0
   65.0751   44.0414   31.3003 H   0  0  0  0  0  0
   62.8942   47.1926   33.2656 H   0  0  0  0  0  0
   61.4225   47.3547   31.3832 H   0  0  0  0  0  0
   65.8354   43.8287   34.9411 H   0  0  0  0  0  0
   65.4884   43.2802   33.3352 H   0  0  0  0  0  0
   64.1650   43.5860   34.4485 H   0  0  0  0  0  0
   64.6619   47.3319   34.7178 H   0  0  0  0  0  0
   63.6251   45.9992   35.2324 H   0  0  0  0  0  0
   65.2981   46.0744   35.7555 H   0  0  0  0  0  0
   66.4741   46.9676   32.9789 H   0  0  0  0  0  0
   67.2061   45.7641   34.0309 H   0  0  0  0  0  0
   66.8079   45.3572   32.3646 H   0  0  0  0  0  0
  1  2  2  0  0  0
  1  6  1  0  0  0
  1 10  1  0  0  0
  2  3  1  0  0  0
  2 23  1  0  0  0
  3  4  2  0  0  0
  3 24  1  0  0  0
  4  5  1  0  0  0
  4  7  1  0  0  0
  5  6  2  0  0  0
  5 25  1  0  0  0
  6 26  1  0  0  0
  7  8  1  0  0  0
  7  9  2  0  0  0
  8 27  1  0  0  0
 10 11  1  0  0  0
 10 28  1  0  0  0
 10 29  1  0  0  0
 11 12  1  0  0  0
 12 13  2  0  0  0
 12 17  1  0  0  0
 13 14  1  0  0  0
 13 22  1  0  0  0
 14 15  2  0  0  0
 14 30  1  0  0  0
 15 16  1  0  0  0
 15 18  1  0  0  0
 16 17  2  0  0  0
 16 31  1  0  0  0
 17 32  1  0  0  0
 18 19  1  0  0  0
 18 20  1  0  0  0
 18 21  1  0  0  0
 19 33  1  0  0  0
 19 34  1  0  0  0
 19 35  1  0  0  0
 20 36  1  0  0  0
 20 37  1  0  0  0
 20 38  1  0  0  0
 21 39  1  0  0  0
 21 40  1  0  0  0
 21 41  1  0  0  0
M  END
> <s_m_entry_id>
31178

> <s_m_entry_name>
dock_pv.391

> <s_m_Source_Path>
/home/csk/Desktop/cluster/DUD-E-result/rxra

> <s_m_Source_File>
dock_pv.maegz

> <i_m_Source_File_Index>
391

> <chembl_id>
CHEMBL4514278

> <chembl_pref_name>
None

> <i_lp_mmshare_version>
53161

> <r_lp_tautomer_probability>
1

> <s_lp_Force_Field>
OPLS_2005

> <r_lp_Energy>
22.200397

> <b_lp_Chiralities_Consistent>
1

> <s_lp_Variant>
CHEMBL2061_lig534 -1

> <s_i_glide_gridfile>
glide-grid_1mv9

> <i_i_glide_lignum>
634

> <i_i_glide_rotatable_bonds>
6

> <r_i_docking_score>
-8.95726173986338

> <r_i_glide_ligand_efficiency>
-0.407148260902881

> <r_i_glide_ligand_efficiency_sa>
-1.14084543928235

> <r_i_glide_ligand_efficiency_ln>
-2.18948149328306

> <r_i_glide_gscore>
-8.95726173986338

> <r_i_glide_lipo>
-5.04176545456692

> <r_i_glide_hbond>
-0.0770922429618866

> <r_i_glide_metal>
0

> <r_i_glide_rewards>
-2.04329050771511

> <r_i_glide_evdw>
-36.7844848632812

> <r_i_glide_ecoul>
-4.59947109222412

> <r_i_glide_erotb>
0.734031372378225

> <r_i_glide_esite>
0

> <r_i_glide_emodel>
-58.860543473991

> <r_i_glide_energy>
-41.3839559555054

> <r_i_glide_einternal>
6.90274667739868

> <i_i_glide_confnum>
9

> <i_i_glide_posenum>
234

> <r_i_glide_eff_state_penalty>
0

> <s_user_duplicate_titles>
CHEMBL2061_lig534 

> <i_f3d_flags>
0

> <s_m_subgroup_title>
dock_pv

> <s_m_subgroupid>
dock_pv

> <b_m_subgroup_collapsed>
1

$$$$
CHEMBL2061_lig500
                    3D
 Schrodinger Suite 2021-1.
 54 55  0  0  1  0            999 V2000
   63.8027   46.2417   32.0277 C   0  0  0  0  0  0
   63.7532   45.2880   30.9956 C   0  0  0  0  0  0
   62.7165   45.3450   30.0549 C   0  0  0  0  0  0
   61.7289   46.3290   30.1278 C   0  0  0  0  0  0
   61.7895   47.2770   31.1449 C   0  0  0  0  0  0
   62.8080   47.2322   32.0856 C   0  0  0  0  0  0
   60.6767   46.3640   29.1944 N   0  0  0  0  0  0
   59.3170   46.0570   29.4826 C   0  0  0  0  0  0
   61.1482   46.4829   27.8028 C   0  0  0  0  0  0
   60.6739   47.7565   27.1093 C   0  0  0  0  0  0
   58.9422   45.6770   30.7790 C   0  0  0  0  0  0
   57.6344   45.2787   31.0460 C   0  0  0  0  0  0
   56.6897   45.2737   30.0184 C   0  0  0  0  0  0
   57.1118   45.6867   28.7528 C   0  0  0  0  0  0
   58.3869   46.0770   28.4874 N   0  0  0  0  0  0
   55.2564   44.9364   30.3014 C   0  0  0  0  0  0
   54.6264   44.2142   29.3390 O   0  0  0  0  0  0
   54.7030   45.2770   31.3390 O   0  0  0  0  0  0
   64.8556   46.1633   32.9251 O   0  0  0  0  0  0
   64.8904   46.9943   34.0834 C   0  0  0  0  0  0
   63.7884   46.6459   35.1159 C   0  0  2  0  0  0
   63.6108   47.7791   36.1390 C   0  0  0  0  0  0
   64.0288   45.2830   35.7942 C   0  0  0  0  0  0
   64.8459   44.2165   30.8957 C   0  0  0  0  0  0
   66.1155   44.8225   30.2696 C   0  0  0  0  0  0
   64.4139   42.9052   30.1986 C   0  0  0  0  0  0
   64.1218   44.2644   34.9391 F   0  0  0  0  0  0
   62.6549   44.6244   29.2552 H   0  0  0  0  0  0
   61.0613   48.0673   31.2011 H   0  0  0  0  0  0
   62.8201   48.0015   32.8416 H   0  0  0  0  0  0
   62.2382   46.4638   27.7378 H   0  0  0  0  0  0
   60.8079   45.6233   27.2312 H   0  0  0  0  0  0
   61.1510   47.8813   26.1390 H   0  0  0  0  0  0
   59.6080   47.6770   26.9390 H   0  0  0  0  0  0
   60.8750   48.6490   27.7031 H   0  0  0  0  0  0
   59.6534   45.6770   31.5892 H   0  0  0  0  0  0
   57.3673   45.0111   32.0566 H   0  0  0  0  0  0
   56.4248   45.7491   27.9201 H   0  0  0  0  0  0
   55.2080   43.8643   28.6553 H   0  0  0  0  0  0
   64.8471   48.0408   33.7816 H   0  0  0  0  0  0
   65.8731   46.8730   34.5389 H   0  0  0  0  0  0
   62.8347   46.5596   34.5986 H   0  0  0  0  0  0
   64.4080   47.7793   36.8826 H   0  0  0  0  0  0
   63.5975   48.7611   35.6636 H   0  0  0  0  0  0
   62.6617   47.6770   36.6601 H   0  0  0  0  0  0
   63.2184   45.0351   36.4806 H   0  0  0  0  0  0
   64.9531   45.2917   36.3714 H   0  0  0  0  0  0
   65.0875   43.9204   31.9187 H   0  0  0  0  0  0
   66.5226   45.6096   30.9049 H   0  0  0  0  0  0
   66.8995   44.0770   30.1390 H   0  0  0  0  0  0
   65.9075   45.2699   29.2969 H   0  0  0  0  0  0
   63.6080   42.4233   30.7491 H   0  0  0  0  0  0
   64.0762   43.0479   29.1730 H   0  0  0  0  0  0
   65.2321   42.1877   30.1599 H   0  0  0  0  0  0
  1  2  2  0  0  0
  1  6  1  0  0  0
  1 19  1  0  0  0
  2  3  1  0  0  0
  2 24  1  0  0  0
  3  4  2  0  0  0
  3 28  1  0  0  0
  4  5  1  0  0  0
  4  7  1  0  0  0
  5  6  2  0  0  0
  5 29  1  0  0  0
  6 30  1  0  0  0
  7  8  1  0  0  0
  7  9  1  0  0  0
  8 11  2  0  0  0
  8 15  1  0  0  0
  9 10  1  0  0  0
  9 31  1  0  0  0
  9 32  1  0  0  0
 10 33  1  0  0  0
 10 34  1  0  0  0
 10 35  1  0  0  0
 11 12  1  0  0  0
 11 36  1  0  0  0
 12 13  2  0  0  0
 12 37  1  0  0  0
 13 14  1  0  0  0
 13 16  1  0  0  0
 14 15  2  0  0  0
 14 38  1  0  0  0
 16 17  1  0  0  0
 16 18  2  0  0  0
 17 39  1  0  0  0
 19 20  1  0  0  0
 20 21  1  0  0  0
 20 40  1  0  0  0
 20 41  1  0  0  0
 21 22  1  0  0  0
 21 23  1  0  0  0
 21 42  1  0  0  0
 22 43  1  0  0  0
 22 44  1  0  0  0
 22 45  1  0  0  0
 23 27  1  0  0  0
 23 46  1  0  0  0
 23 47  1  0  0  0
 24 25  1  0  0  0
 24 26  1  0  0  0
 24 48  1  0  0  0
 25 49  1  0  0  0
 25 50  1  0  0  0
 25 51  1  0  0  0
 26 52  1  0  0  0
 26 53  1  0  0  0
 26 54  1  0  0  0
M  END
> <s_m_entry_id>
31180

> <s_m_entry_name>
dock_pv.393

> <s_m_Source_Path>
/home/csk/Desktop/cluster/DUD-E-result/rxra

> <s_m_Source_File>
dock_pv.maegz

> <i_m_Source_File_Index>
393

> <chembl_id>
CHEMBL3425828

> <chembl_pref_name>
None

> <i_lp_mmshare_version>
53161

> <r_lp_tautomer_probability>
1

> <s_lp_Force_Field>
OPLS_2005

> <r_lp_Energy>
26.592398

> <b_lp_Chiralities_Consistent>
1

> <s_lp_Variant>
CHEMBL2061_lig500-1

> <s_i_glide_gridfile>
glide-grid_1mv9

> <i_i_glide_lignum>
591

> <i_i_glide_rotatable_bonds>
10

> <r_i_docking_score>
-8.94393770909616

> <r_i_glide_ligand_efficiency>
-0.331256952188747

> <r_i_glide_ligand_efficiency_sa>
-0.993770855474471

> <r_i_glide_ligand_efficiency_ln>
-2.08200124634042

> <r_i_glide_gscore>
-8.94393770909616

> <r_i_glide_lipo>
-5.34837929763559

> <r_i_glide_hbond>
-0.0599373146228896

> <r_i_glide_metal>
0

> <r_i_glide_rewards>
-1.20892966877176

> <r_i_glide_evdw>
-45.3376693725586

> <r_i_glide_ecoul>
-5.91496658325195

> <r_i_glide_erotb>
0.827437028049809

> <r_i_glide_esite>
0

> <r_i_glide_emodel>
-69.9283462399953

> <r_i_glide_energy>
-51.2526359558105

> <r_i_glide_einternal>
11.70530128479

> <i_i_glide_confnum>
69

> <i_i_glide_posenum>
130

> <r_i_glide_eff_state_penalty>
0

> <s_user_duplicate_titles>
CHEMBL2061_lig500

> <i_f3d_flags>
0

> <s_m_subgroup_title>
dock_pv

> <s_m_subgroupid>
dock_pv

> <b_m_subgroup_collapsed>
1

$$$$
CHEMBL2061_lig52
                    3D
 Schrodinger Suite 2021-1.
 56 58  0  0  1  0            999 V2000
   62.0572   46.2445   31.1521 C   0  0  0  0  0  0
   62.9350   45.9731   30.1029 N   0  0  0  0  0  0
   62.8145   46.4900   32.2946 C   0  0  0  0  0  0
   64.1713   45.6776   30.6570 C   0  0  0  0  0  0
   64.1197   46.0256   32.0279 C   0  0  0  0  0  0
   60.6091   46.2593   30.9915 C   0  0  0  0  0  0
   55.2079   46.0068   28.7833 C   0  0  0  0  0  0
   62.4409   46.9871   33.6314 C   0  0  0  0  0  0
   55.3818   44.7292   29.5765 C   0  0  0  0  0  0
   59.8716   45.5529   30.1113 C   0  0  0  0  0  0
   62.6211   45.9233   28.6565 C   0  0  0  0  0  0
   54.2941   46.8769   29.2902 O   0  0  0  0  0  0
   55.8010   46.1719   27.7390 O   0  0  0  0  0  0
   56.0215   44.8669   30.9662 C   0  0  1  0  0  0
   57.5259   45.2638   31.1438 C   0  0  0  0  0  0
   61.4447   46.3366   34.3379 C   0  0  0  0  0  0
   63.1776   48.0117   34.2382 C   0  0  0  0  0  0
   61.7344   47.9083   36.1382 C   0  0  0  0  0  0
   58.3783   45.5695   29.8927 C   0  0  1  0  0  0
   65.3295   45.1448   30.0981 C   0  0  0  0  0  0
   65.2448   45.8505   32.8410 C   0  0  0  0  0  0
   61.1582   46.7578   35.6206 C   0  0  0  0  0  0
   62.8237   48.4769   35.4966 C   0  0  0  0  0  0
   61.2082   48.4773   37.2433 F   0  0  0  0  0  0
   55.2080   45.6766   31.7856 O   0  0  0  0  0  0
   58.1074   46.8276   29.3389 O   0  0  0  0  0  0
   62.6189   44.4689   28.1390 C   0  0  0  0  0  0
   63.5354   46.8737   27.8520 C   0  0  0  0  0  0
   66.3719   45.2768   32.2891 C   0  0  0  0  0  0
   66.4080   44.9263   30.9424 C   0  0  0  0  0  0
   60.1093   46.8768   31.7164 H   0  0  0  0  0  0
   54.4114   44.2371   29.6412 H   0  0  0  0  0  0
   56.0027   44.0770   28.9696 H   0  0  0  0  0  0
   60.3668   44.8771   29.4454 H   0  0  0  0  0  0
   61.6320   46.3473   28.5005 H   0  0  0  0  0  0
   54.3294   47.6668   28.7465 H   0  0  0  0  0  0
   55.9219   43.8504   31.3390 H   0  0  0  0  0  0
   57.6371   46.0770   31.8611 H   0  0  0  0  0  0
   58.0076   44.4228   31.6463 H   0  0  0  0  0  0
   60.9120   45.4988   33.9143 H   0  0  0  0  0  0
   64.0139   48.4679   33.7390 H   0  0  0  0  0  0
   58.1661   44.8239   29.1274 H   0  0  0  0  0  0
   65.3951   44.8920   29.0568 H   0  0  0  0  0  0
   65.2181   46.1018   33.8909 H   0  0  0  0  0  0
   60.4085   46.2278   36.1793 H   0  0  0  0  0  0
   63.3592   49.2944   35.9507 H   0  0  0  0  0  0
   55.6586   45.8095   32.6245 H   0  0  0  0  0  0
   58.2581   47.4907   30.0142 H   0  0  0  0  0  0
   62.2402   44.4229   27.1179 H   0  0  0  0  0  0
   63.6093   44.0310   28.1393 H   0  0  0  0  0  0
   62.0086   43.8002   28.7440 H   0  0  0  0  0  0
   63.2784   46.8552   26.7925 H   0  0  0  0  0  0
   63.4201   47.9046   28.1880 H   0  0  0  0  0  0
   64.5918   46.6263   27.9313 H   0  0  0  0  0  0
   67.2080   45.0837   32.9390 H   0  0  0  0  0  0
   67.3024   44.4775   30.5380 H   0  0  0  0  0  0
  1  2  1  0  0  0
  1  3  2  0  0  0
  1  6  1  0  0  0
  2  4  1  0  0  0
  2 11  1  0  0  0
  3  5  1  0  0  0
  3  8  1  0  0  0
  4 20  2  0  0  0
  4  5  1  0  0  0
  5 21  2  0  0  0
  6 10  2  0  0  0
  6 31  1  0  0  0
  7  9  1  0  0  0
  7 12  1  0  0  0
  7 13  2  0  0  0
  8 16  2  0  0  0
  8 17  1  0  0  0
  9 14  1  0  0  0
  9 32  1  0  0  0
  9 33  1  0  0  0
 10 19  1  0  0  0
 10 34  1  0  0  0
 11 27  1  0  0  0
 11 28  1  0  0  0
 11 35  1  0  0  0
 12 36  1  0  0  0
 14 15  1  0  0  0
 14 25  1  0  0  0
 14 37  1  0  0  0
 15 19  1  0  0  0
 15 38  1  0  0  0
 15 39  1  0  0  0
 16 22  1  0  0  0
 16 40  1  0  0  0
 17 23  2  0  0  0
 17 41  1  0  0  0
 18 22  2  0  0  0
 18 24  1  0  0  0
 18 23  1  0  0  0
 19 26  1  0  0  0
 19 42  1  0  0  0
 20 30  1  0  0  0
 20 43  1  0  0  0
 21 29  1  0  0  0
 21 44  1  0  0  0
 22 45  1  0  0  0
 23 46  1  0  0  0
 25 47  1  0  0  0
 26 48  1  0  0  0
 27 49  1  0  0  0
 27 50  1  0  0  0
 27 51  1  0  0  0
 28 52  1  0  0  0
 28 53  1  0  0  0
 28 54  1  0  0  0
 29 30  2  0  0  0
 29 55  1  0  0  0
 30 56  1  0  0  0
M  END
> <s_m_entry_id>
31181

> <s_m_entry_name>
dock_pv.394

> <s_m_Source_Path>
/home/csk/Desktop/cluster/DUD-E-result/rxra

> <s_m_Source_File>
dock_pv.maegz

> <i_m_Source_File_Index>
394

> <chembl_id>
CHEMBL2220442

> <chembl_pref_name>
FLUVASTATIN

> <i_lp_mmshare_version>
53161

> <r_lp_tautomer_probability>
1

> <s_lp_Force_Field>
OPLS_2005

> <r_lp_Energy>
25.195226

> <b_lp_Chiralities_Consistent>
1

> <s_lp_Variant>
CHEMBL2061_lig52-2

> <s_i_glide_gridfile>
glide-grid_1mv9

> <i_i_glide_lignum>
71

> <i_i_glide_rotatable_bonds>
11

> <r_i_docking_score>
-8.93971659652373

> <r_i_glide_ligand_efficiency>
-0.297990553217458

> <r_i_glide_ligand_efficiency_sa>
-0.925925932374705

> <r_i_glide_ligand_efficiency_ln>
-2.03120101674412

> <r_i_glide_gscore>
-8.93971659652373

> <r_i_glide_lipo>
-5.62457545437047

> <r_i_glide_hbond>
0

> <r_i_glide_metal>
0

> <r_i_glide_rewards>
-2.27306709786519

> <r_i_glide_evdw>
-28.9275512695312

> <r_i_glide_ecoul>
-2.73742485046387

> <r_i_glide_erotb>
0.814917246758068

> <r_i_glide_esite>
0

> <r_i_glide_emodel>
-43.7333515332044

> <r_i_glide_energy>
-31.6649761199951

> <r_i_glide_einternal>
13.7307624816895

> <i_i_glide_confnum>
185

> <i_i_glide_posenum>
288

> <r_i_glide_eff_state_penalty>
0

> <s_user_duplicate_titles>
CHEMBL2061_lig52

> <i_f3d_flags>
0

> <s_m_subgroup_title>
dock_pv

> <s_m_subgroupid>
dock_pv

> <b_m_subgroup_collapsed>
1

$$$$
CHEMBL2061_lig518
                    3D
 Schrodinger Suite 2021-1.
 42 44  0  0  1  0            999 V2000
   64.3756   47.6693   34.9966 F   0  0  0  0  0  0
   63.6043   46.9817   34.1559 C   0  0  0  0  0  0
   63.1245   45.9242   34.8111 F   0  0  0  0  0  0
   61.4939   47.2725   32.6861 C   0  0  0  0  0  0
   62.4342   47.8957   33.7323 C   0  0  0  0  0  0
   64.4697   46.4789   32.9744 C   0  0  0  0  0  0
   62.2589   46.4507   31.6760 C   0  0  0  0  0  0
   63.6100   46.1367   31.7598 C   0  0  0  0  0  0
   63.9282   45.4160   30.6077 C   0  0  0  0  0  0
   62.7559   45.2768   29.8622 C   0  0  0  0  0  0
   61.7207   45.9441   30.5067 N   0  0  0  0  0  0
   60.3612   46.0189   30.0804 C   0  0  0  0  0  0
   60.0641   46.4100   28.7757 C   0  0  0  0  0  0
   58.7435   46.4100   28.3415 C   0  0  0  0  0  0
   57.6909   46.0248   29.1785 C   0  0  0  0  0  0
   57.9890   45.6767   30.4969 C   0  0  0  0  0  0
   59.3015   45.6879   30.9388 C   0  0  0  0  0  0
   62.5439   44.5007   28.5727 C   0  0  0  0  0  0
   65.2919   44.8772   30.2522 C   0  0  0  0  0  0
   56.2490   46.1007   28.6432 C   0  0  0  0  0  0
   55.1253   45.4929   29.4914 C   0  0  0  0  0  0
   54.0707   46.0771   29.7390 O   0  0  0  0  0  0
   55.4193   44.2300   29.8898 O   0  0  0  0  0  0
   60.9574   48.0481   32.1391 H   0  0  0  0  0  0
   60.7690   46.6577   33.2190 H   0  0  0  0  0  0
   62.8100   48.8365   33.3368 H   0  0  0  0  0  0
   61.8581   48.1768   34.6147 H   0  0  0  0  0  0
   65.0797   45.6299   33.2839 H   0  0  0  0  0  0
   65.1758   47.2589   32.6900 H   0  0  0  0  0  0
   60.8468   46.7089   28.0938 H   0  0  0  0  0  0
   58.5410   46.7272   27.3391 H   0  0  0  0  0  0
   57.2171   45.4475   31.2152 H   0  0  0  0  0  0
   59.4495   45.5091   31.9886 H   0  0  0  0  0  0
   63.3428   43.7760   28.4102 H   0  0  0  0  0  0
   61.6159   43.9266   28.5888 H   0  0  0  0  0  0
   62.5214   45.1487   27.6945 H   0  0  0  0  0  0
   66.0620   45.1210   30.9834 H   0  0  0  0  0  0
   65.2725   43.7928   30.1394 H   0  0  0  0  0  0
   65.6197   45.2766   29.2912 H   0  0  0  0  0  0
   56.1960   45.6778   27.6403 H   0  0  0  0  0  0
   56.0074   47.1571   28.5389 H   0  0  0  0  0  0
   56.2783   43.9581   29.5590 H   0  0  0  0  0  0
  1  2  1  0  0  0
  2  3  1  0  0  0
  2  5  1  0  0  0
  2  6  1  0  0  0
  4  7  1  0  0  0
  4  5  1  0  0  0
  4 24  1  0  0  0
  4 25  1  0  0  0
  5 26  1  0  0  0
  5 27  1  0  0  0
  6  8  1  0  0  0
  6 28  1  0  0  0
  6 29  1  0  0  0
  7  8  2  0  0  0
  7 11  1  0  0  0
  8  9  1  0  0  0
  9 10  2  0  0  0
  9 19  1  0  0  0
 10 11  1  0  0  0
 10 18  1  0  0  0
 11 12  1  0  0  0
 12 13  2  0  0  0
 12 17  1  0  0  0
 13 14  1  0  0  0
 13 30  1  0  0  0
 14 15  2  0  0  0
 14 31  1  0  0  0
 15 16  1  0  0  0
 15 20  1  0  0  0
 16 17  2  0  0  0
 16 32  1  0  0  0
 17 33  1  0  0  0
 18 34  1  0  0  0
 18 35  1  0  0  0
 18 36  1  0  0  0
 19 37  1  0  0  0
 19 38  1  0  0  0
 19 39  1  0  0  0
 20 21  1  0  0  0
 20 40  1  0  0  0
 20 41  1  0  0  0
 21 22  2  0  0  0
 21 23  1  0  0  0
 23 42  1  0  0  0
M  END
> <s_m_entry_id>
31182

> <s_m_entry_name>
dock_pv.395

> <s_m_Source_Path>
/home/csk/Desktop/cluster/DUD-E-result/rxra

> <s_m_Source_File>
dock_pv.maegz

> <i_m_Source_File_Index>
395

> <chembl_id>
CHEMBL4171515

> <chembl_pref_name>
None

> <i_lp_mmshare_version>
53161

> <r_lp_tautomer_probability>
1

> <s_lp_Force_Field>
OPLS_2005

> <r_lp_Energy>
16.804638

> <b_lp_Chiralities_Consistent>
1

> <s_lp_Variant>
CHEMBL2061_lig518-1

> <s_i_glide_gridfile>
glide-grid_1mv9

> <i_i_glide_lignum>
618

> <i_i_glide_rotatable_bonds>
4

> <r_i_docking_score>
-8.93296747984481

> <r_i_glide_ligand_efficiency>
-0.388389890428035

> <r_i_glide_ligand_efficiency_sa>
-1.10452918354204

> <r_i_glide_ligand_efficiency_ln>
-2.16007253629728

> <r_i_glide_gscore>
-8.93296747984481

> <r_i_glide_lipo>
-4.27416056116649

> <r_i_glide_hbond>
-0.129397872213999

> <r_i_glide_metal>
0

> <r_i_glide_rewards>
-2.9622661789534

> <r_i_glide_evdw>
-31.4056854248047

> <r_i_glide_ecoul>
-3.63805937767029

> <r_i_glide_erotb>
0.548850310379866

> <r_i_glide_esite>
0

> <r_i_glide_emodel>
-49.2367580767794

> <r_i_glide_energy>
-35.043744802475

> <r_i_glide_einternal>
4.36232137680054

> <i_i_glide_confnum>
44

> <i_i_glide_posenum>
31

> <r_i_glide_eff_state_penalty>
0

> <s_user_duplicate_titles>
CHEMBL2061_lig518

> <i_f3d_flags>
0

> <s_m_subgroup_title>
dock_pv

> <s_m_subgroupid>
dock_pv

> <b_m_subgroup_collapsed>
1

$$$$
CHEMBL2061_lig467
                    3D
 Schrodinger Suite 2021-1.
 51 52  0  0  1  0            999 V2000
   64.4201   45.5192   31.8483 C   0  0  0  0  0  0
   63.2825   46.2546   32.2307 C   0  0  0  0  0  0
   62.2646   46.4766   31.2839 C   0  0  0  0  0  0
   62.3266   45.9371   29.9926 C   0  0  0  0  0  0
   63.4566   45.1793   29.6526 C   0  0  0  0  0  0
   64.4930   44.9872   30.5588 C   0  0  0  0  0  0
   65.5874   45.2588   32.8126 C   0  0  0  0  0  0
   65.2056   44.2838   33.9436 C   0  0  0  0  0  0
   66.2369   46.5527   33.3403 C   0  0  0  0  0  0
   63.2307   46.7196   33.5348 O   0  0  0  0  0  0
   61.2723   46.1386   29.0590 N   0  0  0  0  0  0
   59.8670   46.0774   29.3080 C   0  0  0  0  0  0
   61.7315   46.5461   27.7138 C   0  0  0  0  0  0
   61.8047   48.0691   27.5555 C   0  0  0  0  0  0
   59.4525   45.6770   30.5388 N   0  0  0  0  0  0
   58.1346   45.4569   30.7821 C   0  0  0  0  0  0
   57.1380   45.6459   29.8201 C   0  0  0  0  0  0
   57.5579   46.0769   28.5549 C   0  0  0  0  0  0
   58.9099   46.3211   28.3097 C   0  0  0  0  0  0
   55.6791   45.4514   30.1687 C   0  0  0  0  0  0
   55.2980   45.1650   31.3012 O   0  0  0  0  0  0
   54.8081   45.6712   29.1457 O   0  0  0  0  0  0
   62.0788   47.3832   34.0480 C   0  0  0  0  0  0
   62.5112   48.0263   35.3725 C   0  0  0  0  0  0
   60.9038   46.4073   34.2600 C   0  0  0  0  0  0
   61.4028   47.0698   31.5415 H   0  0  0  0  0  0
   63.5392   44.7052   28.6866 H   0  0  0  0  0  0
   65.3491   44.4029   30.2550 H   0  0  0  0  0  0
   66.3748   44.7673   32.2386 H   0  0  0  0  0  0
   64.7920   43.3572   33.5437 H   0  0  0  0  0  0
   64.4652   44.7145   34.6183 H   0  0  0  0  0  0
   66.0769   44.0184   34.5425 H   0  0  0  0  0  0
   66.3940   47.2738   32.5389 H   0  0  0  0  0  0
   65.6317   47.0371   34.1058 H   0  0  0  0  0  0
   67.2089   46.3409   33.7843 H   0  0  0  0  0  0
   62.7206   46.1619   27.4722 H   0  0  0  0  0  0
   61.1026   46.1127   26.9386 H   0  0  0  0  0  0
   62.1880   48.3363   26.5694 H   0  0  0  0  0  0
   60.8312   48.5433   27.6800 H   0  0  0  0  0  0
   62.4876   48.4892   28.2959 H   0  0  0  0  0  0
   57.8922   45.1461   31.7897 H   0  0  0  0  0  0
   56.8632   46.2327   27.7421 H   0  0  0  0  0  0
   59.1871   46.6647   27.3298 H   0  0  0  0  0  0
   55.2546   45.7963   28.3091 H   0  0  0  0  0  0
   61.7925   48.1894   33.3740 H   0  0  0  0  0  0
   61.6682   48.4991   35.8761 H   0  0  0  0  0  0
   62.9277   47.2845   36.0546 H   0  0  0  0  0  0
   63.2773   48.7856   35.2095 H   0  0  0  0  0  0
   60.0055   46.9454   34.5566 H   0  0  0  0  0  0
   60.6507   45.8475   33.3613 H   0  0  0  0  0  0
   61.1298   45.6863   35.0442 H   0  0  0  0  0  0
  1  6  1  0  0  0
  1  2  2  0  0  0
  1  7  1  0  0  0
  2 10  1  0  0  0
  2  3  1  0  0  0
  3  4  2  0  0  0
  3 26  1  0  0  0
  4  5  1  0  0  0
  4 11  1  0  0  0
  5  6  2  0  0  0
  5 27  1  0  0  0
  6 28  1  0  0  0
  7  8  1  0  0  0
  7  9  1  0  0  0
  7 29  1  0  0  0
  8 30  1  0  0  0
  8 31  1  0  0  0
  8 32  1  0  0  0
  9 33  1  0  0  0
  9 34  1  0  0  0
  9 35  1  0  0  0
 10 23  1  0  0  0
 11 13  1  0  0  0
 11 12  1  0  0  0
 12 15  2  0  0  0
 12 19  1  0  0  0
 13 14  1  0  0  0
 13 36  1  0  0  0
 13 37  1  0  0  0
 14 38  1  0  0  0
 14 39  1  0  0  0
 14 40  1  0  0  0
 15 16  1  0  0  0
 16 17  2  0  0  0
 16 41  1  0  0  0
 17 18  1  0  0  0
 17 20  1  0  0  0
 18 19  2  0  0  0
 18 42  1  0  0  0
 19 43  1  0  0  0
 20 21  2  0  0  0
 20 22  1  0  0  0
 22 44  1  0  0  0
 23 24  1  0  0  0
 23 25  1  0  0  0
 23 45  1  0  0  0
 24 46  1  0  0  0
 24 47  1  0  0  0
 24 48  1  0  0  0
 25 49  1  0  0  0
 25 50  1  0  0  0
 25 51  1  0  0  0
M  END
> <s_m_entry_id>
31183

> <s_m_entry_name>
dock_pv.396

> <s_m_Source_Path>
/home/csk/Desktop/cluster/DUD-E-result/rxra

> <s_m_Source_File>
dock_pv.maegz

> <i_m_Source_File_Index>
396

> <chembl_id>
CHEMBL1688382

> <chembl_pref_name>
None

> <i_lp_mmshare_version>
53161

> <r_lp_tautomer_probability>
1

> <s_lp_Force_Field>
OPLS_2005

> <r_lp_Energy>
20.010398

> <b_lp_Chiralities_Consistent>
1

> <s_lp_Variant>
CHEMBL2061_lig467-1

> <s_i_glide_gridfile>
glide-grid_1mv9

> <i_i_glide_lignum>
556

> <i_i_glide_rotatable_bonds>
8

> <r_i_docking_score>
-8.93101519279426

> <r_i_glide_ligand_efficiency>
-0.35724060771177

> <r_i_glide_ligand_efficiency_sa>
-1.04457787263837

> <r_i_glide_ligand_efficiency_ln>
-2.11691824162027

> <r_i_glide_gscore>
-8.93101519279426

> <r_i_glide_lipo>
-5.69468948169293

> <r_i_glide_hbond>
0

> <r_i_glide_metal>
0

> <r_i_glide_rewards>
-1.37235831038332

> <r_i_glide_evdw>
-46.3745994567871

> <r_i_glide_ecoul>
-1.28059804439545

> <r_i_glide_erotb>
0.646852278780668

> <r_i_glide_esite>
0

> <r_i_glide_emodel>
-67.720465385817

> <r_i_glide_energy>
-47.6551975011826

> <r_i_glide_einternal>
7.80864572525024

> <i_i_glide_confnum>
19

> <i_i_glide_posenum>
43

> <r_i_glide_eff_state_penalty>
0

> <s_user_duplicate_titles>
CHEMBL2061_lig467

> <i_f3d_flags>
0

> <s_m_subgroup_title>
dock_pv

> <s_m_subgroupid>
dock_pv

> <b_m_subgroup_collapsed>
1

$$$$
CHEMBL2061_lig134
                    3D
 Schrodinger Suite 2021-1.
 64 64  0  0  1  0            999 V2000
   62.2955   46.6736   31.8708 C   0  0  0  0  0  0
   63.7279   45.1204   30.6552 C   0  0  0  0  0  0
   63.3016   45.6935   31.8728 C   0  0  0  0  0  0
   62.3927   46.7691   29.4285 C   0  0  0  0  0  0
   61.9303   47.2712   30.6549 C   0  0  0  0  0  0
   63.2945   45.7127   29.4649 C   0  0  0  0  0  0
   61.6446   47.0509   33.1553 C   0  0  0  0  0  0
   56.7258   45.5363   31.3708 C   0  0  0  0  0  0
   64.5877   43.8372   30.5393 C   0  0  0  0  0  0
   55.4521   45.2227   30.7716 C   0  0  0  0  0  0
   61.8700   47.2184   28.0396 C   0  0  0  0  0  0
   59.3753   45.8571   32.9214 C   0  0  0  0  0  0
   57.9765   45.2688   30.9244 C   0  0  0  0  0  0
   60.4187   46.6420   33.5765 C   0  0  0  0  0  0
   59.0931   45.8899   31.6049 C   0  0  0  0  0  0
   54.4084   45.6623   31.2270 O   0  0  0  0  0  0
   63.8007   45.2778   33.0882 O   0  0  0  0  0  0
   55.4928   44.4774   29.6381 O   0  0  0  0  0  0
   62.4454   47.9697   34.0633 C   0  0  0  0  0  0
   64.5652   42.9525   31.8200 C   0  0  0  0  0  0
   66.0317   44.2636   30.1406 C   0  0  0  0  0  0
   64.0107   42.8818   29.4532 C   0  0  0  0  0  0
   60.9888   48.4683   28.1094 C   0  0  0  0  0  0
   61.0105   46.0837   27.4351 C   0  0  0  0  0  0
   63.0462   47.5606   27.0858 C   0  0  0  0  0  0
   58.3040   44.3898   29.7393 C   0  0  0  0  0  0
   65.0175   45.9108   33.4793 C   0  0  0  0  0  0
   65.3476   45.4903   34.9152 C   0  0  0  0  0  0
   61.2095   48.0729   30.6792 H   0  0  0  0  0  0
   63.6446   45.3308   28.5224 H   0  0  0  0  0  0
   56.6087   46.1102   32.2783 H   0  0  0  0  0  0
   58.7606   45.2321   33.5524 H   0  0  0  0  0  0
   60.1328   46.9827   34.5600 H   0  0  0  0  0  0
   59.7086   46.4694   30.9539 H   0  0  0  0  0  0
   56.3941   44.2687   29.3911 H   0  0  0  0  0  0
   63.1948   48.5256   33.5100 H   0  0  0  0  0  0
   61.8020   48.6865   34.5733 H   0  0  0  0  0  0
   62.9623   47.3835   34.8218 H   0  0  0  0  0  0
   63.5784   42.8711   32.2565 H   0  0  0  0  0  0
   64.8636   41.9252   31.6201 H   0  0  0  0  0  0
   65.2085   43.3266   32.6103 H   0  0  0  0  0  0
   66.0325   45.0488   29.3834 H   0  0  0  0  0  0
   66.5892   44.6426   30.9928 H   0  0  0  0  0  0
   66.6367   43.4469   29.7392 H   0  0  0  0  0  0
   63.8530   43.3215   28.4768 H   0  0  0  0  0  0
   64.7309   42.0774   29.2933 H   0  0  0  0  0  0
   63.0525   42.4508   29.7414 H   0  0  0  0  0  0
   61.6081   49.2767   28.4745 H   0  0  0  0  0  0
   60.6106   48.7670   27.1308 H   0  0  0  0  0  0
   60.1221   48.3315   28.7578 H   0  0  0  0  0  0
   61.6123   45.2133   27.1737 H   0  0  0  0  0  0
   60.2574   45.7507   28.1481 H   0  0  0  0  0  0
   60.4748   46.3994   26.5389 H   0  0  0  0  0  0
   63.6063   46.6770   26.7834 H   0  0  0  0  0  0
   62.6982   48.0308   26.1637 H   0  0  0  0  0  0
   63.7481   48.2569   27.5489 H   0  0  0  0  0  0
   59.3496   44.0854   29.7688 H   0  0  0  0  0  0
   57.7390   43.4601   29.7755 H   0  0  0  0  0  0
   58.0760   44.8997   28.8016 H   0  0  0  0  0  0
   65.8346   45.6274   32.8168 H   0  0  0  0  0  0
   64.9392   46.9970   33.4221 H   0  0  0  0  0  0
   66.2199   46.0248   35.2899 H   0  0  0  0  0  0
   64.5194   45.7017   35.5936 H   0  0  0  0  0  0
   65.5571   44.4212   34.9668 H   0  0  0  0  0  0
  1  3  1  0  0  0
  1  5  2  0  0  0
  1  7  1  0  0  0
  2  3  2  0  0  0
  2  9  1  0  0  0
  2  6  1  0  0  0
  3 17  1  0  0  0
  4  5  1  0  0  0
  4  6  2  0  0  0
  4 11  1  0  0  0
  5 29  1  0  0  0
  6 30  1  0  0  0
  7 14  2  0  0  0
  7 19  1  0  0  0
  8 13  2  0  0  0
  8 10  1  0  0  0
  8 31  1  0  0  0
  9 20  1  0  0  0
  9 21  1  0  0  0
  9 22  1  0  0  0
 10 16  2  0  0  0
 10 18  1  0  0  0
 11 23  1  0  0  0
 11 24  1  0  0  0
 11 25  1  0  0  0
 12 14  1  0  0  0
 12 15  2  0  0  0
 12 32  1  0  0  0
 13 15  1  0  0  0
 13 26  1  0  0  0
 14 33  1  0  0  0
 15 34  1  0  0  0
 17 27  1  0  0  0
 18 35  1  0  0  0
 19 36  1  0  0  0
 19 37  1  0  0  0
 19 38  1  0  0  0
 20 39  1  0  0  0
 20 40  1  0  0  0
 20 41  1  0  0  0
 21 42  1  0  0  0
 21 43  1  0  0  0
 21 44  1  0  0  0
 22 45  1  0  0  0
 22 46  1  0  0  0
 22 47  1  0  0  0
 23 48  1  0  0  0
 23 49  1  0  0  0
 23 50  1  0  0  0
 24 51  1  0  0  0
 24 52  1  0  0  0
 24 53  1  0  0  0
 25 54  1  0  0  0
 25 55  1  0  0  0
 25 56  1  0  0  0
 26 57  1  0  0  0
 26 58  1  0  0  0
 26 59  1  0  0  0
 27 28  1  0  0  0
 27 60  1  0  0  0
 27 61  1  0  0  0
 28 62  1  0  0  0
 28 63  1  0  0  0
 28 64  1  0  0  0
M  END
> <s_m_entry_id>
31185

> <s_m_entry_name>
dock_pv.398

> <s_m_Source_Path>
/home/csk/Desktop/cluster/DUD-E-result/rxra

> <s_m_Source_File>
dock_pv.maegz

> <i_m_Source_File_Index>
398

> <chembl_id>
CHEMBL92050

> <chembl_pref_name>
None

> <i_lp_mmshare_version>
53161

> <r_lp_tautomer_probability>
1

> <s_lp_Force_Field>
OPLS_2005

> <r_lp_Energy>
37.029313

> <b_lp_Chiralities_Consistent>
1

> <s_lp_Variant>
CHEMBL2061_lig134-1

> <s_i_glide_gridfile>
glide-grid_1mv9

> <i_i_glide_lignum>
173

> <i_i_glide_rotatable_bonds>
9

> <r_i_docking_score>
-8.90483190828537

> <r_i_glide_ligand_efficiency>
-0.318029711010192

> <r_i_glide_ligand_efficiency_sa>
-0.965725512109687

> <r_i_glide_ligand_efficiency_ln>
-2.05549666165812

> <r_i_glide_gscore>
-8.90483190828537

> <r_i_glide_lipo>
-5.34632831942578

> <r_i_glide_hbond>
-0.16

> <r_i_glide_metal>
0

> <r_i_glide_rewards>
-1.80180175789355

> <r_i_glide_evdw>
-29.716682434082

> <r_i_glide_ecoul>
-5.12190437316895

> <r_i_glide_erotb>
0.657417946713408

> <r_i_glide_esite>
0

> <r_i_glide_emodel>
-63.2462157294367

> <r_i_glide_energy>
-34.838586807251

> <r_i_glide_einternal>
11.5625190734863

> <i_i_glide_confnum>
133

> <i_i_glide_posenum>
7

> <r_i_glide_eff_state_penalty>
0

> <s_user_duplicate_titles>
CHEMBL2061_lig134,147275

> <i_f3d_flags>
0

> <s_m_subgroup_title>
dock_pv

> <s_m_subgroupid>
dock_pv

> <b_m_subgroup_collapsed>
1

$$$$
CHEMBL2061_lig243
                    3D
 Schrodinger Suite 2021-1.
 54 56  0  0  1  0            999 V2000
   60.3866   46.9989   28.3902 N   0  0  0  0  0  0
   61.5596   46.3140   28.5121 C   0  0  0  0  0  0
   61.3923   45.2693   29.2917 N   0  0  0  0  0  0
   60.0781   45.2818   29.7388 N   0  0  0  0  0  0
   59.4695   46.2322   29.0689 C   0  0  0  0  0  0
   60.1927   48.2570   27.7107 C   0  0  0  0  0  0
   62.8558   46.7886   27.8446 C   0  0  0  0  0  0
   57.7300   46.4424   28.9396 S   0  0  0  0  0  0
   57.1660   44.7474   29.2360 C   0  0  0  0  0  0
   56.7298   44.4630   30.6731 C   0  0  0  0  0  0
   55.2872   44.8936   30.9410 C   0  0  0  0  0  0
   55.2115   45.6769   32.0447 O   0  0  0  0  0  0
   54.3215   44.5425   30.2681 O   0  0  0  0  0  0
   64.0152   46.0811   28.2641 O   0  0  0  0  0  0
   64.2524   46.0193   29.6091 C   0  0  0  0  0  0
   63.6070   46.6742   30.6366 C   0  0  0  0  0  0
   65.4002   44.8746   30.1649 S   0  0  0  0  0  0
   64.9281   45.1657   31.7953 C   0  0  0  0  0  0
   63.9233   46.1338   31.8616 C   0  0  0  0  0  0
   63.2484   46.5736   33.1188 C   0  0  0  0  0  0
   63.8019   45.8159   34.3557 C   0  0  1  0  0  0
   65.2843   45.3544   34.1831 C   0  0  0  0  0  0
   65.4517   44.4068   32.9971 C   0  0  0  0  0  0
   63.5217   46.6574   35.6341 C   0  0  0  0  0  0
   64.1488   48.0777   35.5535 C   0  0  0  0  0  0
   64.1467   45.9091   36.8285 C   0  0  0  0  0  0
   61.9850   46.8261   35.8148 C   0  0  0  0  0  0
   59.3474   48.7761   28.1553 H   0  0  0  0  0  0
   61.0764   48.8856   27.8067 H   0  0  0  0  0  0
   60.0140   48.0683   26.6528 H   0  0  0  0  0  0
   63.0412   47.8466   28.0368 H   0  0  0  0  0  0
   62.7781   46.7127   26.7606 H   0  0  0  0  0  0
   56.3527   44.5448   28.5391 H   0  0  0  0  0  0
   57.9532   44.0594   28.9464 H   0  0  0  0  0  0
   56.8153   43.4016   30.8872 H   0  0  0  0  0  0
   57.4283   44.9450   31.3595 H   0  0  0  0  0  0
   56.0737   45.8725   32.4178 H   0  0  0  0  0  0
   62.8619   47.4447   30.5103 H   0  0  0  0  0  0
   62.1834   46.3706   33.0069 H   0  0  0  0  0  0
   63.3505   47.6531   33.1887 H   0  0  0  0  0  0
   63.1879   44.9168   34.4318 H   0  0  0  0  0  0
   65.9603   46.2073   34.1099 H   0  0  0  0  0  0
   65.6348   44.7948   35.0464 H   0  0  0  0  0  0
   66.4919   44.0909   32.9310 H   0  0  0  0  0  0
   64.8767   43.4911   33.1439 H   0  0  0  0  0  0
   64.4021   48.4733   36.5382 H   0  0  0  0  0  0
   63.4776   48.8070   35.0982 H   0  0  0  0  0  0
   65.0539   48.0772   34.9438 H   0  0  0  0  0  0
   63.7477   44.9007   36.9512 H   0  0  0  0  0  0
   65.2267   45.8540   36.7715 H   0  0  0  0  0  0
   64.0080   46.4464   37.7388 H   0  0  0  0  0  0
   61.5084   45.9003   36.1360 H   0  0  0  0  0  0
   61.7532   47.5982   36.5447 H   0  0  0  0  0  0
   61.4704   47.1540   34.9134 H   0  0  0  0  0  0
  1  2  1  0  0  0
  1  5  1  0  0  0
  1  6  1  0  0  0
  2  3  2  0  0  0
  2  7  1  0  0  0
  3  4  1  0  0  0
  4  5  2  0  0  0
  5  8  1  0  0  0
  6 28  1  0  0  0
  6 29  1  0  0  0
  6 30  1  0  0  0
  7 14  1  0  0  0
  7 31  1  0  0  0
  7 32  1  0  0  0
  8  9  1  0  0  0
  9 10  1  0  0  0
  9 33  1  0  0  0
  9 34  1  0  0  0
 10 11  1  0  0  0
 10 35  1  0  0  0
 10 36  1  0  0  0
 11 12  1  0  0  0
 11 13  2  0  0  0
 12 37  1  0  0  0
 14 15  1  0  0  0
 15 16  2  0  0  0
 15 17  1  0  0  0
 16 19  1  0  0  0
 16 38  1  0  0  0
 17 18  1  0  0  0
 18 19  2  0  0  0
 18 23  1  0  0  0
 19 20  1  0  0  0
 20 21  1  0  0  0
 20 39  1  0  0  0
 20 40  1  0  0  0
 21 22  1  0  0  0
 21 24  1  0  0  0
 21 41  1  0  0  0
 22 23  1  0  0  0
 22 42  1  0  0  0
 22 43  1  0  0  0
 23 44  1  0  0  0
 23 45  1  0  0  0
 24 25  1  0  0  0
 24 26  1  0  0  0
 24 27  1  0  0  0
 25 46  1  0  0  0
 25 47  1  0  0  0
 25 48  1  0  0  0
 26 49  1  0  0  0
 26 50  1  0  0  0
 26 51  1  0  0  0
 27 52  1  0  0  0
 27 53  1  0  0  0
 27 54  1  0  0  0
M  END
> <s_m_entry_id>
31187

> <s_m_entry_name>
dock_pv.400

> <s_m_Source_Path>
/home/csk/Desktop/cluster/DUD-E-result/rxra

> <s_m_Source_File>
dock_pv.maegz

> <i_m_Source_File_Index>
400

> <chembl_id>
CHEMBL4292370

> <chembl_pref_name>
None

> <i_lp_mmshare_version>
53161

> <r_lp_tautomer_probability>
1

> <s_lp_Force_Field>
OPLS_2005

> <r_lp_Energy>
19.41346

> <b_lp_Chiralities_Consistent>
1

> <s_lp_Variant>
CHEMBL2061_lig243-2

> <s_i_glide_gridfile>
glide-grid_1mv9

> <i_i_glide_lignum>
283

> <i_i_glide_rotatable_bonds>
9

> <r_i_docking_score>
-8.88362139810139

> <r_i_glide_ligand_efficiency>
-0.329023014744496

> <r_i_glide_ligand_efficiency_sa>
-0.987069043149082

> <r_i_glide_ligand_efficiency_ln>
-2.06796060353295

> <r_i_glide_gscore>
-8.88362139810139

> <r_i_glide_lipo>
-4.8349174591695

> <r_i_glide_hbond>
-0.220794294978979

> <r_i_glide_metal>
0

> <r_i_glide_rewards>
-2.49919803435692

> <r_i_glide_evdw>
-32.770824432373

> <r_i_glide_ecoul>
-3.41275572776794

> <r_i_glide_erotb>
0.821742971187848

> <r_i_glide_esite>
0

> <r_i_glide_emodel>
-50.3513190404677

> <r_i_glide_energy>
-36.183580160141

> <r_i_glide_einternal>
8.23428535461426

> <i_i_glide_confnum>
57

> <i_i_glide_posenum>
198

> <r_i_glide_eff_state_penalty>
0

> <s_user_duplicate_titles>
CHEMBL2061_lig243

> <i_f3d_flags>
0

> <s_m_subgroup_title>
dock_pv

> <s_m_subgroupid>
dock_pv

> <b_m_subgroup_collapsed>
1

$$$$
CHEMBL2061_lig530 
                    3D
 Schrodinger Suite 2021-1.
 40 41  0  0  1  0            999 V2000
   63.8332   46.4770   29.1023 C   0  0  0  0  0  0
   62.9484   46.9644   28.1390 C   0  0  0  0  0  0
   61.5711   46.8332   28.3316 C   0  0  0  0  0  0
   61.0537   46.2028   29.4731 C   0  0  0  0  0  0
   61.9816   45.7578   30.4308 C   0  0  0  0  0  0
   63.3660   45.9090   30.2949 C   0  0  0  0  0  0
   59.5749   45.9945   29.6741 C   0  0  0  0  0  0
   59.0615   45.6770   30.9390 C   0  0  0  0  0  0
   57.7233   45.3787   31.1374 C   0  0  0  0  0  0
   56.8347   45.4231   30.0692 C   0  0  0  0  0  0
   57.3060   45.7900   28.8059 C   0  0  0  0  0  0
   58.6585   46.0770   28.6140 C   0  0  0  0  0  0
   55.3797   45.1719   30.3178 C   0  0  0  0  0  0
   54.8080   45.5347   31.3390 O   0  0  0  0  0  0
   54.7593   44.4770   29.3390 O   0  0  0  0  0  0
   64.3105   45.5309   31.4738 C   0  0  0  0  0  0
   65.7097   46.1632   31.3409 C   0  0  0  0  0  0
   64.5193   44.0027   31.5441 C   0  0  0  0  0  0
   63.7539   46.0689   32.8231 C   0  0  0  0  0  0
   63.4917   47.6674   26.9087 C   0  0  0  0  0  0
   64.8910   46.5939   28.9290 H   0  0  0  0  0  0
   60.9096   47.2287   27.5768 H   0  0  0  0  0  0
   61.6314   45.2770   31.3227 H   0  0  0  0  0  0
   59.6868   45.6771   31.8163 H   0  0  0  0  0  0
   57.3842   45.1628   32.1390 H   0  0  0  0  0  0
   56.6358   45.8688   27.9612 H   0  0  0  0  0  0
   58.9843   46.3225   27.6155 H   0  0  0  0  0  0
   55.3778   44.1538   28.6786 H   0  0  0  0  0  0
   66.3078   46.0409   32.2456 H   0  0  0  0  0  0
   65.6080   47.2315   31.1604 H   0  0  0  0  0  0
   66.2849   45.7020   30.5390 H   0  0  0  0  0  0
   63.6080   43.4545   31.7408 H   0  0  0  0  0  0
   64.9311   43.6141   30.6113 H   0  0  0  0  0  0
   65.2080   43.7355   32.3465 H   0  0  0  0  0  0
   62.7753   45.6770   33.0867 H   0  0  0  0  0  0
   64.4138   45.8236   33.6568 H   0  0  0  0  0  0
   63.6576   47.1559   32.8018 H   0  0  0  0  0  0
   62.6997   48.0770   26.2811 H   0  0  0  0  0  0
   64.1463   48.4885   27.2037 H   0  0  0  0  0  0
   64.0863   46.9781   26.3113 H   0  0  0  0  0  0
  1  2  2  0  0  0
  1  6  1  0  0  0
  1 21  1  0  0  0
  2  3  1  0  0  0
  2 20  1  0  0  0
  3  4  2  0  0  0
  3 22  1  0  0  0
  4  5  1  0  0  0
  4  7  1  0  0  0
  5  6  2  0  0  0
  5 23  1  0  0  0
  6 16  1  0  0  0
  7  8  2  0  0  0
  7 12  1  0  0  0
  8  9  1  0  0  0
  8 24  1  0  0  0
  9 10  2  0  0  0
  9 25  1  0  0  0
 10 11  1  0  0  0
 10 13  1  0  0  0
 11 12  2  0  0  0
 11 26  1  0  0  0
 12 27  1  0  0  0
 13 14  2  0  0  0
 13 15  1  0  0  0
 15 28  1  0  0  0
 16 17  1  0  0  0
 16 18  1  0  0  0
 16 19  1  0  0  0
 17 29  1  0  0  0
 17 30  1  0  0  0
 17 31  1  0  0  0
 18 32  1  0  0  0
 18 33  1  0  0  0
 18 34  1  0  0  0
 19 35  1  0  0  0
 19 36  1  0  0  0
 19 37  1  0  0  0
 20 38  1  0  0  0
 20 39  1  0  0  0
 20 40  1  0  0  0
M  END
> <s_m_entry_id>
31188

> <s_m_entry_name>
dock_pv.401

> <s_m_Source_Path>
/home/csk/Desktop/cluster/DUD-E-result/rxra

> <s_m_Source_File>
dock_pv.maegz

> <i_m_Source_File_Index>
401

> <chembl_id>
CHEMBL4583953

> <chembl_pref_name>
None

> <i_lp_mmshare_version>
53161

> <r_lp_tautomer_probability>
1

> <s_lp_Force_Field>
OPLS_2005

> <r_lp_Energy>
18.568523

> <b_lp_Chiralities_Consistent>
1

> <s_lp_Variant>
CHEMBL2061_lig530 -1

> <s_i_glide_gridfile>
glide-grid_1mv9

> <i_i_glide_lignum>
630

> <i_i_glide_rotatable_bonds>
4

> <r_i_docking_score>
-8.86775549133143

> <r_i_glide_ligand_efficiency>
-0.443387774566572

> <r_i_glide_ligand_efficiency_sa>
-1.20353958506449

> <r_i_glide_ligand_efficiency_ln>
-2.21930672132946

> <r_i_glide_gscore>
-8.86775549133143

> <r_i_glide_lipo>
-4.62999932932445

> <r_i_glide_hbond>
-0.0788272593240698

> <r_i_glide_metal>
0

> <r_i_glide_rewards>
-2.47830416402466

> <r_i_glide_evdw>
-32.1025733947754

> <r_i_glide_ecoul>
-3.80808281898499

> <r_i_glide_erotb>
0.495716353928271

> <r_i_glide_esite>
0

> <r_i_glide_emodel>
-49.6021239432299

> <r_i_glide_energy>
-35.9106562137604

> <r_i_glide_einternal>
5.26630449295044

> <i_i_glide_confnum>
4

> <i_i_glide_posenum>
385

> <r_i_glide_eff_state_penalty>
0

> <s_user_duplicate_titles>
CHEMBL2061_lig530 

> <i_f3d_flags>
0

> <s_m_subgroup_title>
dock_pv

> <s_m_subgroupid>
dock_pv

> <b_m_subgroup_collapsed>
1

$$$$
CHEMBL2061_lig35
                    3D
 Schrodinger Suite 2021-1.
 47 48  0  0  1  0            999 V2000
   62.2987   46.6776   34.7975 C   0  0  0  0  0  0
   63.2540   46.2664   28.5390 C   0  0  0  0  0  0
   58.6158   45.7083   31.7334 C   0  0  0  0  0  0
   58.3228   46.7605   28.7647 C   0  0  0  0  0  0
   59.2018   45.5737   32.9390 C   0  0  0  0  0  0
   59.4830   46.0770   28.7791 C   0  0  0  0  0  0
   63.4138   47.4238   27.7646 C   0  0  0  0  0  0
   62.9486   47.4440   33.8340 C   0  0  0  0  0  0
   56.9963   46.2044   29.0805 C   0  0  0  0  0  0
   57.6136   44.8728   31.1238 C   0  0  0  0  0  0
   56.7111   45.3885   30.1177 C   0  0  0  0  0  0
   61.0353   46.1434   34.5390 C   0  0  0  0  0  0
   61.9493   45.8373   28.8435 C   0  0  0  0  0  0
   60.8290   46.5746   28.4385 C   0  0  0  0  0  0
   60.4712   46.2594   33.2673 C   0  0  0  0  0  0
   55.9495   46.4770   28.2626 O   0  0  0  0  0  0
   57.6080   43.6770   31.3390 O   0  0  0  0  0  0
   62.4080   47.5507   32.5625 C   0  0  0  0  0  0
   62.3103   48.1977   27.4301 C   0  0  0  0  0  0
   61.0261   47.7770   27.7533 C   0  0  0  0  0  0
   61.2080   46.9268   32.2730 C   0  0  0  0  0  0
   64.1217   48.0770   34.1390 O   0  0  0  0  0  0
   64.6501   47.8367   27.3390 O   0  0  0  0  0  0
   62.8987   46.4661   36.0022 O   0  0  0  0  0  0
   64.0080   45.5735   36.0390 C   0  0  0  0  0  0
   64.8330   46.0770   36.9390 F   0  0  0  0  0  0
   63.6080   44.3756   36.4468 F   0  0  0  0  0  0
   64.6867   45.4355   34.8964 F   0  0  0  0  0  0
   64.4008   45.6234   28.9711 O   0  0  0  0  0  0
   64.3510   44.7242   30.0789 C   0  0  0  0  0  0
   63.7327   45.2590   31.1316 F   0  0  0  0  0  0
   63.7786   43.5686   29.7390 F   0  0  0  0  0  0
   65.6053   44.4771   30.4500 F   0  0  0  0  0  0
   58.9613   46.4770   31.1019 H   0  0  0  0  0  0
   58.4080   47.8080   28.5390 H   0  0  0  0  0  0
   58.8155   44.8770   33.6650 H   0  0  0  0  0  0
   59.4268   45.0566   29.1037 H   0  0  0  0  0  0
   55.7021   45.0163   30.2200 H   0  0  0  0  0  0
   60.5272   45.5925   35.3154 H   0  0  0  0  0  0
   61.7949   44.9294   29.4075 H   0  0  0  0  0  0
   56.2795   46.6621   27.3808 H   0  0  0  0  0  0
   62.9214   48.0770   31.7754 H   0  0  0  0  0  0
   62.4490   49.1435   26.9390 H   0  0  0  0  0  0
   60.1962   48.3971   27.4545 H   0  0  0  0  0  0
   60.8784   47.0040   31.2518 H   0  0  0  0  0  0
   64.4236   48.6408   33.4190 H   0  0  0  0  0  0
   64.6200   48.6077   26.7699 H   0  0  0  0  0  0
  1  8  2  0  0  0
  1 12  1  0  0  0
  1 24  1  0  0  0
  2 13  2  0  0  0
  2  7  1  0  0  0
  2 29  1  0  0  0
  3  5  2  0  0  0
  3 34  1  0  0  0
  3 10  1  0  0  0
  4  6  2  0  0  0
  4 35  1  0  0  0
  4  9  1  0  0  0
  5 15  1  0  0  0
  5 36  1  0  0  0
  6 14  1  0  0  0
  6 37  1  0  0  0
  7 19  2  0  0  0
  7 23  1  0  0  0
  8 18  1  0  0  0
  8 22  1  0  0  0
  9 11  2  0  0  0
  9 16  1  0  0  0
 10 11  1  0  0  0
 10 17  2  0  0  0
 11 38  1  0  0  0
 12 15  2  0  0  0
 12 39  1  0  0  0
 13 14  1  0  0  0
 13 40  1  0  0  0
 14 20  2  0  0  0
 15 21  1  0  0  0
 16 41  1  0  0  0
 18 21  2  0  0  0
 18 42  1  0  0  0
 19 20  1  0  0  0
 19 43  1  0  0  0
 20 44  1  0  0  0
 21 45  1  0  0  0
 22 46  1  0  0  0
 23 47  1  0  0  0
 24 25  1  0  0  0
 25 26  1  0  0  0
 25 27  1  0  0  0
 25 28  1  0  0  0
 29 30  1  0  0  0
 30 31  1  0  0  0
 30 32  1  0  0  0
 30 33  1  0  0  0
M  END
> <s_m_entry_id>
31189

> <s_m_entry_name>
dock_pv.402

> <s_m_Source_Path>
/home/csk/Desktop/cluster/DUD-E-result/rxra

> <s_m_Source_File>
dock_pv.maegz

> <i_m_Source_File_Index>
402

> <chembl_id>
CHEMBL2323728

> <chembl_pref_name>
None

> <i_lp_mmshare_version>
53161

> <r_lp_tautomer_probability>
0.0769230769230769

> <s_lp_Force_Field>
OPLS_2005

> <r_lp_Energy>
21.563189

> <b_lp_Chiralities_Consistent>
1

> <s_lp_Variant>
CHEMBL2061_lig35-3

> <s_i_glide_gridfile>
glide-grid_1mv9

> <i_i_glide_lignum>
41

> <i_i_glide_rotatable_bonds>
12

> <r_i_docking_score>
-8.84053019576138

> <r_i_glide_ligand_efficiency>
-0.267894854417011

> <r_i_glide_ligand_efficiency_sa>
-0.859281941370303

> <r_i_glide_ligand_efficiency_ln>
-1.96608814172174

> <r_i_glide_gscore>
-8.84053019576138

> <r_i_glide_lipo>
-5.31502821432473

> <r_i_glide_hbond>
0

> <r_i_glide_metal>
0

> <r_i_glide_rewards>
-2.65691119069285

> <r_i_glide_evdw>
-26.8138065338135

> <r_i_glide_ecoul>
-1.61256992816925

> <r_i_glide_erotb>
0.71398502517226

> <r_i_glide_esite>
0

> <r_i_glide_emodel>
-45.0795249263282

> <r_i_glide_energy>
-28.4263764619827

> <r_i_glide_einternal>
20.5875492095947

> <i_i_glide_confnum>
110

> <i_i_glide_posenum>
141

> <r_i_glide_eff_state_penalty>
0

> <s_user_duplicate_titles>
CHEMBL2061_lig35,CHEMBL2061_lig35

> <i_f3d_flags>
0

> <s_m_subgroup_title>
dock_pv

> <s_m_subgroupid>
dock_pv

> <b_m_subgroup_collapsed>
1

$$$$
CHEMBL2061_lig1
                    3D
 Schrodinger Suite 2021-1.
 50 50  0  0  1  0            999 V2000
   64.9837   45.8846   34.9636 C   0  0  0  0  0  0
   63.9290   45.2827   35.8919 C   0  0  0  0  0  0
   62.5812   45.9731   35.6626 C   0  0  0  0  0  0
   62.2338   46.1433   34.1837 C   0  0  0  0  0  0
   63.1592   46.0778   33.1786 C   0  0  0  0  0  0
   64.6497   45.6952   33.4561 C   0  0  0  0  0  0
   60.7645   46.5057   33.9706 C   0  0  0  0  0  0
   62.7363   46.3966   31.8129 C   0  0  0  0  0  0
   64.8597   44.2017   33.0943 C   0  0  0  0  0  0
   65.6065   46.6315   32.6746 C   0  0  0  0  0  0
   62.8473   45.5735   30.7541 C   0  0  0  0  0  0
   62.4528   45.9258   29.3994 C   0  0  0  0  0  0
   61.1604   46.0497   29.0141 C   0  0  0  0  0  0
   63.5628   46.0950   28.3824 C   0  0  0  0  0  0
   59.9905   45.8560   29.8572 C   0  0  0  0  0  0
   58.7266   45.8825   29.3841 C   0  0  0  0  0  0
   57.5161   45.6581   30.1757 C   0  0  0  0  0  0
   56.3269   45.7293   29.5175 C   0  0  0  0  0  0
   57.6348   45.3997   31.6812 C   0  0  0  0  0  0
   55.0053   45.5127   30.0616 C   0  0  0  0  0  0
   54.9481   44.4770   30.9384 O   0  0  0  0  0  0
   54.0157   46.1643   29.7382 O   0  0  0  0  0  0
   65.9668   45.4713   35.1933 H   0  0  0  0  0  0
   65.0545   46.9484   35.1918 H   0  0  0  0  0  0
   64.2323   45.3987   36.9335 H   0  0  0  0  0  0
   63.8382   44.2096   35.7199 H   0  0  0  0  0  0
   62.5979   46.9634   36.1211 H   0  0  0  0  0  0
   61.7829   45.4460   36.1844 H   0  0  0  0  0  0
   60.4584   47.2764   34.6776 H   0  0  0  0  0  0
   60.5292   46.8726   32.9741 H   0  0  0  0  0  0
   60.1423   45.6281   34.1484 H   0  0  0  0  0  0
   62.3178   47.3795   31.6423 H   0  0  0  0  0  0
   65.7703   43.8037   33.5438 H   0  0  0  0  0  0
   64.0305   43.5719   33.4209 H   0  0  0  0  0  0
   64.9824   44.0599   32.0224 H   0  0  0  0  0  0
   66.6491   46.3820   32.8776 H   0  0  0  0  0  0
   65.4736   46.5526   31.5950 H   0  0  0  0  0  0
   65.4716   47.6759   32.9552 H   0  0  0  0  0  0
   63.2593   44.5873   30.8930 H   0  0  0  0  0  0
   60.9767   46.3048   27.9795 H   0  0  0  0  0  0
   64.2867   45.2932   28.5384 H   0  0  0  0  0  0
   63.2091   46.0213   27.3525 H   0  0  0  0  0  0
   64.1031   47.0277   28.5399 H   0  0  0  0  0  0
   60.1579   45.6762   30.9072 H   0  0  0  0  0  0
   58.6065   46.0740   28.3260 H   0  0  0  0  0  0
   56.3009   45.9767   28.4654 H   0  0  0  0  0  0
   58.3687   46.0769   32.1117 H   0  0  0  0  0  0
   56.7297   45.6259   32.2437 H   0  0  0  0  0  0
   58.0079   44.3948   31.8818 H   0  0  0  0  0  0
   55.8160   44.0761   31.0250 H   0  0  0  0  0  0
  1  2  1  0  0  0
  1  6  1  0  0  0
  1 23  1  0  0  0
  1 24  1  0  0  0
  2  3  1  0  0  0
  2 25  1  0  0  0
  2 26  1  0  0  0
  3  4  1  0  0  0
  3 27  1  0  0  0
  3 28  1  0  0  0
  4  5  2  0  0  0
  4  7  1  0  0  0
  5  6  1  0  0  0
  5  8  1  0  0  0
  6  9  1  0  0  0
  6 10  1  0  0  0
  7 29  1  0  0  0
  7 30  1  0  0  0
  7 31  1  0  0  0
  8 11  2  0  0  0
  8 32  1  0  0  0
  9 33  1  0  0  0
  9 34  1  0  0  0
  9 35  1  0  0  0
 10 36  1  0  0  0
 10 37  1  0  0  0
 10 38  1  0  0  0
 11 12  1  0  0  0
 11 39  1  0  0  0
 12 13  2  0  0  0
 12 14  1  0  0  0
 13 15  1  0  0  0
 13 40  1  0  0  0
 14 41  1  0  0  0
 14 42  1  0  0  0
 14 43  1  0  0  0
 15 16  2  0  0  0
 15 44  1  0  0  0
 16 17  1  0  0  0
 16 45  1  0  0  0
 17 18  2  0  0  0
 17 19  1  0  0  0
 18 20  1  0  0  0
 18 46  1  0  0  0
 19 47  1  0  0  0
 19 48  1  0  0  0
 19 49  1  0  0  0
 20 21  1  0  0  0
 20 22  2  0  0  0
 21 50  1  0  0  0
M  END
> <s_m_entry_id>
31190

> <s_m_entry_name>
dock_pv.403

> <s_m_Source_Path>
/home/csk/Desktop/cluster/DUD-E-result/rxra

> <s_m_Source_File>
dock_pv.maegz

> <i_m_Source_File_Index>
403

> <chembl_id>
CHEMBL705

> <chembl_pref_name>
ALITRETINOIN

> <i_lp_mmshare_version>
53161

> <r_lp_tautomer_probability>
1

> <s_lp_Force_Field>
OPLS_2005

> <r_lp_Energy>
28.892803

> <b_lp_Chiralities_Consistent>
1

> <s_lp_Variant>
CHEMBL2061_lig1-1

> <s_i_glide_gridfile>
glide-grid_1mv9

> <i_i_glide_lignum>
1

> <i_i_glide_rotatable_bonds>
6

> <r_i_docking_score>
-8.8292654186047

> <r_i_glide_ligand_efficiency>
-0.401330246300214

> <r_i_glide_ligand_efficiency_sa>
-1.12454313355614

> <r_i_glide_ligand_efficiency_ln>
-2.15819452358819

> <r_i_glide_gscore>
-8.8292654186047

> <r_i_glide_lipo>
-5.11527470856042

> <r_i_glide_hbond>
-0.149320849331198

> <r_i_glide_metal>
0

> <r_i_glide_rewards>
-2.16551965680107

> <r_i_glide_evdw>
-36.4800910949707

> <r_i_glide_ecoul>
-3.95595240592957

> <r_i_glide_erotb>
1.01824721172596

> <r_i_glide_esite>
0

> <r_i_glide_emodel>
-60.3596371749758

> <r_i_glide_energy>
-40.4360435009003

> <r_i_glide_einternal>
4.11634635925293

> <i_i_glide_confnum>
37

> <i_i_glide_posenum>
34

> <r_i_glide_eff_state_penalty>
0

> <s_user_duplicate_titles>
CHEMBL2061_lig1,CHEMBL2061_lig543 ,CHEMBL2061_lig254,CHEMBL2061_lig130,33216,68407,2208

> <i_f3d_flags>
0

> <s_m_subgroup_title>
dock_pv

> <s_m_subgroupid>
dock_pv

> <b_m_subgroup_collapsed>
1

$$$$
CHEMBL2061_lig252
                    3D
 Schrodinger Suite 2021-1.
 44 45  0  0  1  0            999 V2000
   63.9309   45.9930   32.5010 C   0  0  0  0  0  0
   61.2641   45.9857   29.8495 C   0  0  0  0  0  0
   54.4080   45.5668   29.7375 C   0  0  0  0  0  0
   64.0715   46.7837   33.6057 C   0  0  0  0  0  0
   60.0710   45.8477   29.6672 C   0  0  0  0  0  0
   65.0425   45.0000   32.0434 C   0  0  0  0  0  0
   55.8856   45.6364   29.7141 C   0  0  0  0  0  0
   62.6811   46.0576   31.7623 C   0  0  0  0  0  0
   62.5493   46.0458   30.4258 C   0  0  0  0  0  0
   53.6781   46.4767   29.3432 O   0  0  0  0  0  0
   58.6387   45.7099   29.6689 C   0  0  0  0  0  0
   56.6058   45.2396   30.8416 C   0  0  0  0  0  0
   56.5386   46.0743   28.5645 C   0  0  0  0  0  0
   53.9843   44.3504   30.1526 O   0  0  0  0  0  0
   57.9251   46.0779   28.5391 C   0  0  0  0  0  0
   57.9895   45.2765   30.8214 C   0  0  0  0  0  0
   65.3335   46.8166   34.4588 C   0  0  0  0  0  0
   65.9646   44.6856   33.2551 C   0  0  0  0  0  0
   63.0083   47.7637   34.1113 C   0  0  0  0  0  0
   65.8753   45.6775   30.9345 C   0  0  0  0  0  0
   64.4399   43.6474   31.5643 C   0  0  0  0  0  0
   66.4847   45.9467   33.9397 C   0  0  0  0  0  0
   61.7769   46.0782   32.3572 H   0  0  0  0  0  0
   63.3928   46.0531   29.7587 H   0  0  0  0  0  0
   56.1006   44.9226   31.7400 H   0  0  0  0  0  0
   55.9879   46.3792   27.6856 H   0  0  0  0  0  0
   54.7535   43.7791   30.2206 H   0  0  0  0  0  0
   58.4418   46.4174   27.6534 H   0  0  0  0  0  0
   58.5366   45.0073   31.7111 H   0  0  0  0  0  0
   65.0632   46.5066   35.4693 H   0  0  0  0  0  0
   65.6536   47.8531   34.5391 H   0  0  0  0  0  0
   66.8089   44.0772   32.9476 H   0  0  0  0  0  0
   65.4290   44.0880   33.9950 H   0  0  0  0  0  0
   63.4596   48.7344   34.3221 H   0  0  0  0  0  0
   62.1975   47.9557   33.4099 H   0  0  0  0  0  0
   62.5720   47.3939   35.0393 H   0  0  0  0  0  0
   66.8543   45.2146   30.8289 H   0  0  0  0  0  0
   65.4165   45.5860   29.9531 H   0  0  0  0  0  0
   66.0129   46.7406   31.1283 H   0  0  0  0  0  0
   65.1994   43.0656   31.0396 H   0  0  0  0  0  0
   64.0509   43.0450   32.3866 H   0  0  0  0  0  0
   63.6399   43.7517   30.8363 H   0  0  0  0  0  0
   67.1485   45.6748   34.7619 H   0  0  0  0  0  0
   67.0971   46.5245   33.2467 H   0  0  0  0  0  0
  1  4  2  0  0  0
  1  6  1  0  0  0
  1  8  1  0  0  0
  2  9  1  0  0  0
  2  5  3  0  0  0
  3  7  1  0  0  0
  3 10  2  0  0  0
  3 14  1  0  0  0
  4 17  1  0  0  0
  4 19  1  0  0  0
  5 11  1  0  0  0
  6 18  1  0  0  0
  6 20  1  0  0  0
  6 21  1  0  0  0
  7 12  2  0  0  0
  7 13  1  0  0  0
  8  9  2  0  0  0
  8 23  1  0  0  0
  9 24  1  0  0  0
 11 15  1  0  0  0
 11 16  2  0  0  0
 12 16  1  0  0  0
 12 25  1  0  0  0
 13 15  2  0  0  0
 13 26  1  0  0  0
 14 27  1  0  0  0
 15 28  1  0  0  0
 16 29  1  0  0  0
 17 22  1  0  0  0
 17 30  1  0  0  0
 17 31  1  0  0  0
 18 22  1  0  0  0
 18 32  1  0  0  0
 18 33  1  0  0  0
 19 34  1  0  0  0
 19 35  1  0  0  0
 19 36  1  0  0  0
 20 37  1  0  0  0
 20 38  1  0  0  0
 20 39  1  0  0  0
 21 40  1  0  0  0
 21 41  1  0  0  0
 21 42  1  0  0  0
 22 43  1  0  0  0
 22 44  1  0  0  0
M  END
> <s_m_entry_id>
31191

> <s_m_entry_name>
dock_pv.404

> <s_m_Source_Path>
/home/csk/Desktop/cluster/DUD-E-result/rxra

> <s_m_Source_File>
dock_pv.maegz

> <i_m_Source_File_Index>
404

> <chembl_id>
CHEMBL151870

> <chembl_pref_name>
None

> <i_lp_mmshare_version>
53161

> <r_lp_tautomer_probability>
1

> <s_lp_Force_Field>
OPLS_2005

> <r_lp_Energy>
23.465087

> <b_lp_Chiralities_Consistent>
1

> <s_lp_Variant>
CHEMBL2061_lig252-1

> <s_i_glide_gridfile>
glide-grid_1mv9

> <i_i_glide_lignum>
294

> <i_i_glide_rotatable_bonds>
5

> <r_i_docking_score>
-8.81859711015331

> <r_i_glide_ligand_efficiency>
-0.400845323188787

> <r_i_glide_ligand_efficiency_sa>
-1.12318435992698

> <r_i_glide_ligand_efficiency_ln>
-2.15558679986666

> <r_i_glide_gscore>
-8.81859711015331

> <r_i_glide_lipo>
-4.94448889013876

> <r_i_glide_hbond>
-0.238349178638492

> <r_i_glide_metal>
0

> <r_i_glide_rewards>
-2.38479628357049

> <r_i_glide_evdw>
-34.3910865783691

> <r_i_glide_ecoul>
-2.46084809303284

> <r_i_glide_erotb>
0.844080019601055

> <r_i_glide_esite>
-0.00636123453323301

> <r_i_glide_emodel>
-36.1612090652924

> <r_i_glide_energy>
-36.851934671402

> <r_i_glide_einternal>
3.97538208961487

> <i_i_glide_confnum>
10

> <i_i_glide_posenum>
327

> <r_i_glide_eff_state_penalty>
0

> <s_user_duplicate_titles>
CHEMBL2061_lig252

> <i_f3d_flags>
0

> <s_m_subgroup_title>
dock_pv

> <s_m_subgroupid>
dock_pv

> <b_m_subgroup_collapsed>
1

$$$$
CHEMBL2061_lig322
                    3D
 Schrodinger Suite 2021-1.
 57 57  0  0  1  0            999 V2000
   54.8383   44.2986   30.5298 C   0  0  0  0  0  0
   55.8898   45.2718   30.0064 C   0  0  0  0  0  0
   57.2630   45.0527   30.3660 C   0  0  0  0  0  0
   57.7192   45.6024   31.5004 C   0  0  0  0  0  0
   59.0974   45.6773   31.9037 C   0  0  0  0  0  0
   60.1369   46.0771   31.1300 C   0  0  0  0  0  0
   60.0119   46.5080   29.6680 C   0  0  0  0  0  0
   61.4887   46.1899   31.7153 C   0  0  0  0  0  0
   61.6713   46.6513   33.0220 C   0  0  0  0  0  0
   62.9272   46.6322   33.6394 C   0  0  0  0  0  0
   64.0100   46.1160   32.9072 C   0  0  0  0  0  0
   63.8519   45.6281   31.5994 C   0  0  0  0  0  0
   62.5877   45.7055   31.0098 C   0  0  0  0  0  0
   65.0027   44.9827   30.7975 C   0  0  0  0  0  0
   64.7845   43.4532   30.7445 C   0  0  0  0  0  0
   66.3987   45.2767   31.4038 C   0  0  0  0  0  0
   65.0086   45.5226   29.3502 C   0  0  0  0  0  0
   63.1304   47.1406   35.0892 C   0  0  0  0  0  0
   61.8256   47.6343   35.7725 C   0  0  0  0  0  0
   64.0880   48.3424   35.0623 C   0  0  0  0  0  0
   63.7549   46.0253   35.9665 C   0  0  0  0  0  0
   55.6536   46.3948   29.2808 C   0  0  0  0  0  0
   54.3598   46.9079   28.9375 C   0  0  0  0  0  0
   54.4082   48.0346   28.1792 O   0  0  0  0  0  0
   53.3113   46.4365   29.3390 O   0  0  0  0  0  0
   55.2239   43.6774   31.3385 H   0  0  0  0  0  0
   54.0077   44.8364   30.9751 H   0  0  0  0  0  0
   54.4331   43.6951   29.7163 H   0  0  0  0  0  0
   57.9170   44.5003   29.7049 H   0  0  0  0  0  0
   57.0063   46.0769   32.1583 H   0  0  0  0  0  0
   59.2896   45.3951   32.9277 H   0  0  0  0  0  0
   60.6423   47.3778   29.4680 H   0  0  0  0  0  0
   60.3315   45.7041   29.0064 H   0  0  0  0  0  0
   58.9963   46.7818   29.3872 H   0  0  0  0  0  0
   60.8067   47.0077   33.5577 H   0  0  0  0  0  0
   64.9787   46.0841   33.3790 H   0  0  0  0  0  0
   62.4332   45.3036   30.0201 H   0  0  0  0  0  0
   63.8203   43.1961   30.3034 H   0  0  0  0  0  0
   65.5447   42.9580   30.1390 H   0  0  0  0  0  0
   64.8064   43.0099   31.7424 H   0  0  0  0  0  0
   66.5510   46.3520   31.5057 H   0  0  0  0  0  0
   66.5209   44.8280   32.3897 H   0  0  0  0  0  0
   67.2002   44.8817   30.7742 H   0  0  0  0  0  0
   64.8900   46.6049   29.3207 H   0  0  0  0  0  0
   65.9472   45.2775   28.8617 H   0  0  0  0  0  0
   64.2161   45.0964   28.7353 H   0  0  0  0  0  0
   61.1153   46.8216   35.9231 H   0  0  0  0  0  0
   62.0203   48.0801   36.7502 H   0  0  0  0  0  0
   61.3305   48.4137   35.1907 H   0  0  0  0  0  0
   65.0426   48.0778   34.6062 H   0  0  0  0  0  0
   63.6667   49.1777   34.5025 H   0  0  0  0  0  0
   64.3007   48.7088   36.0685 H   0  0  0  0  0  0
   64.6799   45.6299   35.5492 H   0  0  0  0  0  0
   64.0102   46.3934   36.9608 H   0  0  0  0  0  0
   63.0725   45.1834   36.0899 H   0  0  0  0  0  0
   56.4857   46.9945   28.9394 H   0  0  0  0  0  0
   55.3040   48.3423   28.0400 H   0  0  0  0  0  0
  1  2  1  0  0  0
  1 26  1  0  0  0
  1 27  1  0  0  0
  1 28  1  0  0  0
  2  3  1  0  0  0
  2 22  2  0  0  0
  3  4  2  0  0  0
  3 29  1  0  0  0
  4  5  1  0  0  0
  4 30  1  0  0  0
  5  6  2  0  0  0
  5 31  1  0  0  0
  6  7  1  0  0  0
  6  8  1  0  0  0
  7 32  1  0  0  0
  7 33  1  0  0  0
  7 34  1  0  0  0
  8  9  2  0  0  0
  8 13  1  0  0  0
  9 10  1  0  0  0
  9 35  1  0  0  0
 10 11  2  0  0  0
 10 18  1  0  0  0
 11 12  1  0  0  0
 11 36  1  0  0  0
 12 13  2  0  0  0
 12 14  1  0  0  0
 13 37  1  0  0  0
 14 15  1  0  0  0
 14 16  1  0  0  0
 14 17  1  0  0  0
 15 38  1  0  0  0
 15 39  1  0  0  0
 15 40  1  0  0  0
 16 41  1  0  0  0
 16 42  1  0  0  0
 16 43  1  0  0  0
 17 44  1  0  0  0
 17 45  1  0  0  0
 17 46  1  0  0  0
 18 19  1  0  0  0
 18 20  1  0  0  0
 18 21  1  0  0  0
 19 47  1  0  0  0
 19 48  1  0  0  0
 19 49  1  0  0  0
 20 50  1  0  0  0
 20 51  1  0  0  0
 20 52  1  0  0  0
 21 53  1  0  0  0
 21 54  1  0  0  0
 21 55  1  0  0  0
 22 23  1  0  0  0
 22 56  1  0  0  0
 23 24  1  0  0  0
 23 25  2  0  0  0
 24 57  1  0  0  0
M  END
> <s_m_entry_id>
31192

> <s_m_entry_name>
dock_pv.405

> <s_m_Source_Path>
/home/csk/Desktop/cluster/DUD-E-result/rxra

> <s_m_Source_File>
dock_pv.maegz

> <i_m_Source_File_Index>
405

> <chembl_id>
CHEMBL89241

> <chembl_pref_name>
None

> <i_lp_mmshare_version>
53161

> <r_lp_tautomer_probability>
1

> <s_lp_Force_Field>
OPLS_2005

> <r_lp_Energy>
36.572862

> <b_lp_Chiralities_Consistent>
1

> <s_lp_Variant>
CHEMBL2061_lig322-1

> <s_i_glide_gridfile>
glide-grid_1mv9

> <i_i_glide_lignum>
370

> <i_i_glide_rotatable_bonds>
7

> <r_i_docking_score>
-8.81635832192429

> <r_i_glide_ligand_efficiency>
-0.352654332876972

> <r_i_glide_ligand_efficiency_sa>
-1.03116752368349

> <r_i_glide_ligand_efficiency_ln>
-2.08974112723493

> <r_i_glide_gscore>
-8.81635832192429

> <r_i_glide_lipo>
-5.32417507993251

> <r_i_glide_hbond>
-0.243992435362529

> <r_i_glide_metal>
0

> <r_i_glide_rewards>
-1.87925904775905

> <r_i_glide_evdw>
-29.4252605438232

> <r_i_glide_ecoul>
-3.67365336418152

> <r_i_glide_erotb>
0.653379272948185

> <r_i_glide_esite>
0

> <r_i_glide_emodel>
-32.3830091167958

> <r_i_glide_energy>
-33.0989139080048

> <r_i_glide_einternal>
11.7391748428345

> <i_i_glide_confnum>
28

> <i_i_glide_posenum>
252

> <r_i_glide_eff_state_penalty>
0

> <s_user_duplicate_titles>
CHEMBL2061_lig322,144641

> <i_f3d_flags>
0

> <s_m_subgroup_title>
dock_pv

> <s_m_subgroupid>
dock_pv

> <b_m_subgroup_collapsed>
1

$$$$
CHEMBL2061_lig84 
                    3D
 Schrodinger Suite 2021-1.
 43 46  0  0  1  0            999 V2000
   60.9327   47.2928   27.1802 C   0  0  0  0  0  0
   61.7699   47.7795   28.1787 C   0  0  0  0  0  0
   61.5123   47.4506   29.5066 C   0  0  0  0  0  0
   59.8269   46.5118   27.5138 C   0  0  0  0  0  0
   59.5005   46.3001   28.8464 C   0  0  0  0  0  0
   60.3981   46.6608   29.8315 C   0  0  0  0  0  0
   59.8563   46.1254   31.0920 C   0  0  0  0  0  0
   58.5530   45.5693   30.7694 C   0  0  0  0  0  0
   58.2943   45.7468   29.4672 C   0  0  0  0  0  0
   57.0423   45.3937   28.6807 C   0  0  0  0  0  0
   55.6874   45.9726   29.0207 C   0  0  0  0  0  0
   60.4123   46.1522   32.3203 C   0  0  0  0  0  0
   61.7887   46.4764   32.6815 C   0  0  0  0  0  0
   62.0745   47.0300   33.9294 C   0  0  0  0  0  0
   63.3930   47.0744   34.3645 C   0  0  0  0  0  0
   64.3905   46.5515   33.5446 C   0  0  0  0  0  0
   64.1266   46.0792   32.2711 C   0  0  0  0  0  0
   62.8199   46.0457   31.8454 C   0  0  0  0  0  0
   55.2095   47.1672   28.5410 N   0  0  0  0  0  0
   53.9497   47.3435   28.9177 N   0  0  0  0  0  0
   53.6390   46.1975   29.6290 N   0  0  0  0  0  0
   54.7487   45.3637   29.7047 N   0  0  0  0  0  0
   57.6211   44.9015   31.7400 C   0  0  0  0  0  0
   66.0082   46.4445   34.1398 S   0  0  0  0  0  0
   66.6808   44.8503   33.6313 C   0  0  0  0  0  0
   61.1302   47.5505   26.1516 H   0  0  0  0  0  0
   62.6153   48.4026   27.9258 H   0  0  0  0  0  0
   62.1684   47.8575   30.2591 H   0  0  0  0  0  0
   59.2084   46.0894   26.7437 H   0  0  0  0  0  0
   57.2322   45.6765   27.6545 H   0  0  0  0  0  0
   56.9612   44.3102   28.7357 H   0  0  0  0  0  0
   59.8206   45.7984   33.1517 H   0  0  0  0  0  0
   61.2822   47.3572   34.5864 H   0  0  0  0  0  0
   63.6299   47.4538   35.3483 H   0  0  0  0  0  0
   64.9073   45.6936   31.6333 H   0  0  0  0  0  0
   62.6135   45.5596   30.9034 H   0  0  0  0  0  0
   55.7173   47.8369   27.9825 H   0  0  0  0  0  0
   57.7233   45.3041   32.7472 H   0  0  0  0  0  0
   56.5782   45.0020   31.4559 H   0  0  0  0  0  0
   57.8866   43.8435   31.7443 H   0  0  0  0  0  0
   67.6506   44.7191   34.1094 H   0  0  0  0  0  0
   66.8106   44.8149   32.5505 H   0  0  0  0  0  0
   66.0237   44.0337   33.9380 H   0  0  0  0  0  0
  1  2  2  0  0  0
  1  4  1  0  0  0
  1 26  1  0  0  0
  2  3  1  0  0  0
  2 27  1  0  0  0
  3  6  2  0  0  0
  3 28  1  0  0  0
  4  5  2  0  0  0
  4 29  1  0  0  0
  5  6  1  0  0  0
  5  9  1  0  0  0
  6  7  1  0  0  0
  7  8  1  0  0  0
  7 12  2  0  0  0
  8  9  2  0  0  0
  8 23  1  0  0  0
  9 10  1  0  0  0
 10 11  1  0  0  0
 10 30  1  0  0  0
 10 31  1  0  0  0
 11 19  1  0  0  0
 11 22  2  0  0  0
 12 13  1  0  0  0
 12 32  1  0  0  0
 13 14  2  0  0  0
 13 18  1  0  0  0
 14 15  1  0  0  0
 14 33  1  0  0  0
 15 16  2  0  0  0
 15 34  1  0  0  0
 16 17  1  0  0  0
 16 24  1  0  0  0
 17 18  2  0  0  0
 17 35  1  0  0  0
 18 36  1  0  0  0
 19 20  1  0  0  0
 19 37  1  0  0  0
 20 21  2  0  0  0
 21 22  1  0  0  0
 23 38  1  0  0  0
 23 39  1  0  0  0
 23 40  1  0  0  0
 24 25  1  0  0  0
 25 41  1  0  0  0
 25 42  1  0  0  0
 25 43  1  0  0  0
M  END
> <s_m_entry_id>
31193

> <s_m_entry_name>
dock_pv.406

> <s_m_Source_Path>
/home/csk/Desktop/cluster/DUD-E-result/rxra

> <s_m_Source_File>
dock_pv.maegz

> <i_m_Source_File_Index>
406

> <chembl_id>
CHEMBL4540754

> <chembl_pref_name>
None

> <i_lp_mmshare_version>
53161

> <r_lp_tautomer_probability>
0.3

> <s_lp_Force_Field>
OPLS_2005

> <r_lp_Energy>
43.010338

> <b_lp_Chiralities_Consistent>
1

> <s_lp_Variant>
CHEMBL2061_lig84 -1

> <s_i_glide_gridfile>
glide-grid_1mv9

> <i_i_glide_lignum>
117

> <i_i_glide_rotatable_bonds>
4

> <r_i_docking_score>
-8.80965815252154

> <r_i_glide_ligand_efficiency>
-0.352386326100861

> <r_i_glide_ligand_efficiency_sa>
-1.03038386711702

> <r_i_glide_ligand_efficiency_ln>
-2.08815298629861

> <r_i_glide_gscore>
-8.80965815252154

> <r_i_glide_lipo>
-5.198953525003

> <r_i_glide_hbond>
0

> <r_i_glide_metal>
0

> <r_i_glide_rewards>
-2.22932528658069

> <r_i_glide_evdw>
-29.5981731414795

> <r_i_glide_ecoul>
-1.37326562404633

> <r_i_glide_erotb>
0.475197962092948

> <r_i_glide_esite>
-0.170678802349871

> <r_i_glide_emodel>
-30.6506358221349

> <r_i_glide_energy>
-30.9714387655258

> <r_i_glide_einternal>
9.64582633972168

> <i_i_glide_confnum>
11

> <i_i_glide_posenum>
4

> <r_i_glide_eff_state_penalty>
0

> <s_user_duplicate_titles>
CHEMBL2061_lig84 ,CHEMBL2061_lig84 

> <i_f3d_flags>
0

> <s_m_subgroup_title>
dock_pv

> <s_m_subgroupid>
dock_pv

> <b_m_subgroup_collapsed>
1

$$$$
CHEMBL2061_lig344
                    3D
 Schrodinger Suite 2021-1.
 67 67  0  0  1  0            999 V2000
   62.2250   47.0208   32.9533 C   0  0  0  0  0  0
   64.2491   45.9786   32.1492 C   0  0  0  0  0  0
   63.4586   46.4191   33.2246 C   0  0  0  0  0  0
   62.5465   46.7453   30.5464 C   0  0  0  0  0  0
   61.8296   47.2525   31.6272 C   0  0  0  0  0  0
   63.7497   46.1171   30.8379 C   0  0  0  0  0  0
   61.2933   47.3265   34.0531 C   0  0  0  0  0  0
   56.1300   45.4356   31.5047 C   0  0  0  0  0  0
   65.6694   45.4291   32.3799 C   0  0  0  0  0  0
   55.2122   45.0568   30.4509 C   0  0  0  0  0  0
   62.0506   46.8015   29.0742 C   0  0  0  0  0  0
   59.4132   46.0771   32.9997 C   0  0  0  0  0  0
   57.4851   45.3301   31.5771 C   0  0  0  0  0  0
   60.0241   46.8770   34.0615 C   0  0  0  0  0  0
   58.0944   45.9028   32.7865 C   0  0  0  0  0  0
   54.0083   45.2625   30.5385 O   0  0  0  0  0  0
   63.9003   46.2955   34.5321 O   0  0  0  0  0  0
   55.7718   44.4775   29.3589 O   0  0  0  0  0  0
   61.9443   44.0769   37.7390 F   0  0  0  0  0  0
   63.9124   45.0685   36.6628 C   0  0  0  0  0  0
   61.7954   48.2502   35.1545 C   0  0  0  0  0  0
   66.5199   46.5662   32.9970 C   0  0  0  0  0  0
   66.2594   44.9121   31.0476 C   0  0  0  0  0  0
   65.7515   44.2265   33.3425 C   0  0  0  0  0  0
   60.6545   47.4520   28.9247 C   0  0  0  0  0  0
   61.9442   45.3621   28.5054 C   0  0  0  0  0  0
   63.0410   47.6074   28.1965 C   0  0  0  0  0  0
   63.2153   43.9096   37.4482 C   0  0  0  0  0  0
   58.3405   44.7418   30.4493 C   0  0  0  0  0  0
   63.2240   45.3146   35.3173 C   0  0  0  0  0  0
   60.8952   47.7531   31.4593 H   0  0  0  0  0  0
   64.2974   45.7668   29.9812 H   0  0  0  0  0  0
   55.5996   45.8815   32.3349 H   0  0  0  0  0  0
   60.1000   45.6771   32.2898 H   0  0  0  0  0  0
   59.4682   47.2199   34.8992 H   0  0  0  0  0  0
   57.4204   46.2861   33.5340 H   0  0  0  0  0  0
   56.7161   44.3638   29.4691 H   0  0  0  0  0  0
   64.9554   44.8771   36.4507 H   0  0  0  0  0  0
   64.0078   45.9789   37.2539 H   0  0  0  0  0  0
   62.6017   48.8780   34.7767 H   0  0  0  0  0  0
   60.9896   48.8769   35.5320 H   0  0  0  0  0  0
   62.1942   47.7054   36.0077 H   0  0  0  0  0  0
   66.3034   46.6994   34.0562 H   0  0  0  0  0  0
   67.5855   46.3789   32.9410 H   0  0  0  0  0  0
   66.3086   47.5260   32.5394 H   0  0  0  0  0  0
   65.6419   44.1270   30.6054 H   0  0  0  0  0  0
   66.4030   45.6771   30.2988 H   0  0  0  0  0  0
   67.2122   44.4771   31.1936 H   0  0  0  0  0  0
   65.2052   43.3520   32.9822 H   0  0  0  0  0  0
   66.8045   43.9770   33.4703 H   0  0  0  0  0  0
   65.4229   44.4406   34.3477 H   0  0  0  0  0  0
   60.6619   48.4765   29.2844 H   0  0  0  0  0  0
   60.3283   47.4786   27.8843 H   0  0  0  0  0  0
   59.8910   46.9145   29.4832 H   0  0  0  0  0  0
   62.9118   44.8639   28.4532 H   0  0  0  0  0  0
   61.2963   44.7372   29.1202 H   0  0  0  0  0  0
   61.5390   45.3571   27.4924 H   0  0  0  0  0  0
   64.0401   47.1708   28.1960 H   0  0  0  0  0  0
   62.7149   47.6467   27.1559 H   0  0  0  0  0  0
   63.1344   48.6365   28.5389 H   0  0  0  0  0  0
   63.2821   42.9676   36.9069 H   0  0  0  0  0  0
   63.6080   43.7248   38.4380 H   0  0  0  0  0  0
   59.4064   44.9099   30.5384 H   0  0  0  0  0  0
   58.1489   43.6763   30.3423 H   0  0  0  0  0  0
   58.0860   45.2097   29.4981 H   0  0  0  0  0  0
   62.1955   45.5864   35.5300 H   0  0  0  0  0  0
   63.2084   44.3912   34.7408 H   0  0  0  0  0  0
  1  3  1  0  0  0
  1  5  2  0  0  0
  1  7  1  0  0  0
  2  3  2  0  0  0
  2  9  1  0  0  0
  2  6  1  0  0  0
  3 17  1  0  0  0
  4  5  1  0  0  0
  4  6  2  0  0  0
  4 11  1  0  0  0
  5 31  1  0  0  0
  6 32  1  0  0  0
  7 14  2  0  0  0
  7 21  1  0  0  0
  8 13  2  0  0  0
  8 10  1  0  0  0
  8 33  1  0  0  0
  9 22  1  0  0  0
  9 23  1  0  0  0
  9 24  1  0  0  0
 10 16  2  0  0  0
 10 18  1  0  0  0
 11 25  1  0  0  0
 11 26  1  0  0  0
 11 27  1  0  0  0
 12 14  1  0  0  0
 12 15  2  0  0  0
 12 34  1  0  0  0
 13 15  1  0  0  0
 13 29  1  0  0  0
 14 35  1  0  0  0
 15 36  1  0  0  0
 17 30  1  0  0  0
 18 37  1  0  0  0
 19 28  1  0  0  0
 20 30  1  0  0  0
 20 28  1  0  0  0
 20 38  1  0  0  0
 20 39  1  0  0  0
 21 40  1  0  0  0
 21 41  1  0  0  0
 21 42  1  0  0  0
 22 43  1  0  0  0
 22 44  1  0  0  0
 22 45  1  0  0  0
 23 46  1  0  0  0
 23 47  1  0  0  0
 23 48  1  0  0  0
 24 49  1  0  0  0
 24 50  1  0  0  0
 24 51  1  0  0  0
 25 52  1  0  0  0
 25 53  1  0  0  0
 25 54  1  0  0  0
 26 55  1  0  0  0
 26 56  1  0  0  0
 26 57  1  0  0  0
 27 58  1  0  0  0
 27 59  1  0  0  0
 27 60  1  0  0  0
 28 61  1  0  0  0
 28 62  1  0  0  0
 29 63  1  0  0  0
 29 64  1  0  0  0
 29 65  1  0  0  0
 30 66  1  0  0  0
 30 67  1  0  0  0
M  END
> <s_m_entry_id>
31194

> <s_m_entry_name>
dock_pv.407

> <s_m_Source_Path>
/home/csk/Desktop/cluster/DUD-E-result/rxra

> <s_m_Source_File>
dock_pv.maegz

> <i_m_Source_File_Index>
407

> <chembl_id>
CHEMBL92243

> <chembl_pref_name>
None

> <i_lp_mmshare_version>
53161

> <r_lp_tautomer_probability>
1

> <s_lp_Force_Field>
OPLS_2005

> <r_lp_Energy>
38.511906

> <b_lp_Chiralities_Consistent>
1

> <s_lp_Variant>
CHEMBL2061_lig344-1

> <s_i_glide_gridfile>
glide-grid_1mv9

> <i_i_glide_lignum>
404

> <i_i_glide_rotatable_bonds>
11

> <r_i_docking_score>
-8.79876679511863

> <r_i_glide_ligand_efficiency>
-0.293292226503954

> <r_i_glide_ligand_efficiency_sa>
-0.911327138903468

> <r_i_glide_ligand_efficiency_ln>
-1.99917568609379

> <r_i_glide_gscore>
-8.79876679511863

> <r_i_glide_lipo>
-5.89079870176275

> <r_i_glide_hbond>
-0.282522848305665

> <r_i_glide_metal>
0

> <r_i_glide_rewards>
-1.65833777671907

> <r_i_glide_evdw>
-24.3132209777832

> <r_i_glide_ecoul>
-3.65620303153992

> <r_i_glide_erotb>
0.796984035289002

> <r_i_glide_esite>
0

> <r_i_glide_emodel>
-30.6280441109218

> <r_i_glide_energy>
-27.9694240093231

> <r_i_glide_einternal>
11.6534671783447

> <i_i_glide_confnum>
53

> <i_i_glide_posenum>
175

> <r_i_glide_eff_state_penalty>
0

> <s_user_duplicate_titles>
CHEMBL2061_lig344,151270

> <i_f3d_flags>
0

> <s_m_subgroup_title>
dock_pv

> <s_m_subgroupid>
dock_pv

> <b_m_subgroup_collapsed>
1

$$$$
CHEMBL2061_lig39
                    3D
 Schrodinger Suite 2021-1.
 39 40  0  0  1  0            999 V2000
   55.7177   44.4770   30.9372 C   0  0  0  0  0  0
   64.9903   45.4800   34.1805 C   0  0  0  0  0  0
   59.9409   45.9909   28.9405 C   0  0  0  0  0  0
   64.1238   46.4770   29.8771 C   0  0  0  0  0  0
   59.1827   45.1530   29.6757 C   0  0  0  0  0  0
   63.3952   46.7749   30.9773 C   0  0  0  0  0  0
   64.1626   46.0806   35.1336 C   0  0  0  0  0  0
   54.9592   45.2368   30.0643 C   0  0  0  0  0  0
   63.6620   46.8770   28.5376 C   0  0  0  0  0  0
   61.3515   45.7434   28.7219 C   0  0  0  0  0  0
   62.1685   46.9251   28.1959 C   0  0  0  0  0  0
   57.1080   44.4770   30.8222 C   0  0  0  0  0  0
   64.7572   45.6795   32.8163 C   0  0  0  0  0  0
   63.6865   46.4770   32.3928 C   0  0  0  0  0  0
   57.7282   45.2231   29.8210 C   0  0  0  0  0  0
   64.4485   47.2733   27.6817 O   0  0  0  0  0  0
   61.8831   44.6519   28.9457 O   0  0  0  0  0  0
   55.5632   46.0314   29.0988 C   0  0  0  0  0  0
   63.0945   46.8820   34.7172 C   0  0  0  0  0  0
   62.8599   47.0654   33.3571 C   0  0  0  0  0  0
   56.9430   45.9734   28.9413 C   0  0  0  0  0  0
   53.6080   45.1746   30.1394 O   0  0  0  0  0  0
   64.4080   45.8876   36.4689 O   0  0  0  0  0  0
   54.6117   47.1026   28.1390 Cl  0  0  0  0  0  0
   62.0567   47.6775   35.8506 Cl  0  0  0  0  0  0
   55.2080   43.8741   31.6754 H   0  0  0  0  0  0
   65.8200   44.8620   34.4910 H   0  0  0  0  0  0
   59.5291   46.8658   28.4607 H   0  0  0  0  0  0
   65.0692   45.9577   29.9284 H   0  0  0  0  0  0
   59.6525   44.2971   30.1390 H   0  0  0  0  0  0
   62.4666   47.3117   30.8358 H   0  0  0  0  0  0
   61.7714   47.8407   28.6332 H   0  0  0  0  0  0
   57.7026   43.8668   31.4864 H   0  0  0  0  0  0
   65.4144   45.2141   32.0963 H   0  0  0  0  0  0
   62.0328   47.0076   27.1177 H   0  0  0  0  0  0
   62.0356   47.6965   33.0569 H   0  0  0  0  0  0
   57.4061   46.4770   28.1154 H   0  0  0  0  0  0
   53.2280   45.5258   29.3310 H   0  0  0  0  0  0
   65.1873   45.3563   36.6458 H   0  0  0  0  0  0
  1  8  2  0  0  0
  1 12  1  0  0  0
  1 26  1  0  0  0
  2 13  2  0  0  0
  2  7  1  0  0  0
  2 27  1  0  0  0
  3  5  2  0  0  0
  3 28  1  0  0  0
  3 10  1  0  0  0
  4  6  2  0  0  0
  4 29  1  0  0  0
  4  9  1  0  0  0
  5 15  1  0  0  0
  5 30  1  0  0  0
  6 14  1  0  0  0
  6 31  1  0  0  0
  7 19  2  0  0  0
  7 23  1  0  0  0
  8 18  1  0  0  0
  8 22  1  0  0  0
  9 11  1  0  0  0
  9 16  2  0  0  0
 10 11  1  0  0  0
 10 17  2  0  0  0
 11 32  1  0  0  0
 11 35  1  0  0  0
 12 15  2  0  0  0
 12 33  1  0  0  0
 13 14  1  0  0  0
 13 34  1  0  0  0
 14 20  2  0  0  0
 15 21  1  0  0  0
 18 21  2  0  0  0
 18 24  1  0  0  0
 19 20  1  0  0  0
 19 25  1  0  0  0
 20 36  1  0  0  0
 21 37  1  0  0  0
 22 38  1  0  0  0
 23 39  1  0  0  0
M  END
> <s_m_entry_id>
31195

> <s_m_entry_name>
dock_pv.408

> <s_m_Source_Path>
/home/csk/Desktop/cluster/DUD-E-result/rxra

> <s_m_Source_File>
dock_pv.maegz

> <i_m_Source_File_Index>
408

> <chembl_id>
CHEMBL2323725

> <chembl_pref_name>
None

> <i_lp_mmshare_version>
53161

> <r_lp_tautomer_probability>
0.692307692307692

> <s_lp_Force_Field>
OPLS_2005

> <r_lp_Energy>
17.750168

> <b_lp_Chiralities_Consistent>
1

> <s_lp_Variant>
CHEMBL2061_lig39-1

> <s_i_glide_gridfile>
glide-grid_1mv9

> <i_i_glide_lignum>
51

> <i_i_glide_rotatable_bonds>
8

> <r_i_docking_score>
-8.78602470373362

> <r_i_glide_ligand_efficiency>
-0.351440988149345

> <r_i_glide_ligand_efficiency_sa>
-1.02761968218115

> <r_i_glide_ligand_efficiency_ln>
-2.08255115069856

> <r_i_glide_gscore>
-8.78602470373362

> <r_i_glide_lipo>
-4.90856443927339

> <r_i_glide_hbond>
-0.294896386251855

> <r_i_glide_metal>
0

> <r_i_glide_rewards>
-2.01992165478836

> <r_i_glide_evdw>
-41.9494171142578

> <r_i_glide_ecoul>
-1.8784738779068

> <r_i_glide_erotb>
0.816599713978893

> <r_i_glide_esite>
0

> <r_i_glide_emodel>
-61.3018223963302

> <r_i_glide_energy>
-43.8278909921646

> <r_i_glide_einternal>
3.89959716796875

> <i_i_glide_confnum>
45

> <i_i_glide_posenum>
128

> <r_i_glide_eff_state_penalty>
0

> <s_user_duplicate_titles>
CHEMBL2061_lig39,CHEMBL2061_lig39,CHEMBL2061_lig39

> <i_f3d_flags>
0

> <s_m_subgroup_title>
dock_pv

> <s_m_subgroupid>
dock_pv

> <b_m_subgroup_collapsed>
1

$$$$
CHEMBL2061_lig141
                    3D
 Schrodinger Suite 2021-1.
 64 64  0  0  1  0            999 V2000
   63.5188   45.7307   31.9268 C   0  0  0  0  0  0
   62.5858   46.7889   32.0075 C   0  0  0  0  0  0
   63.7740   45.1176   30.6822 C   0  0  0  0  0  0
   62.3786   46.8084   29.5829 C   0  0  0  0  0  0
   62.1481   47.3960   30.8284 C   0  0  0  0  0  0
   63.2249   45.7047   29.5425 C   0  0  0  0  0  0
   64.2761   45.0615   35.4231 C   0  0  0  0  0  0
   64.2688   45.3617   33.0226 O   0  0  0  0  0  0
   62.0358   47.2760   33.2990 C   0  0  0  0  0  0
   57.0384   45.6688   31.6611 C   0  0  0  0  0  0
   64.6402   43.8451   30.4885 C   0  0  0  0  0  0
   55.7882   45.2760   31.0322 C   0  0  0  0  0  0
   61.6956   47.2780   28.2784 C   0  0  0  0  0  0
   59.7698   46.0567   33.2326 C   0  0  0  0  0  0
   58.3134   45.4061   31.2689 C   0  0  0  0  0  0
   60.8341   46.8831   33.8119 C   0  0  0  0  0  0
   59.4185   46.0766   31.9326 C   0  0  0  0  0  0
   63.5999   44.7350   34.1074 C   0  0  0  0  0  0
   54.7040   45.6769   31.4372 O   0  0  0  0  0  0
   63.6095   44.4848   36.4280 F   0  0  0  0  0  0
   65.5123   44.5820   35.3388 F   0  0  0  0  0  0
   64.3524   46.3590   35.6979 F   0  0  0  0  0  0
   55.8935   44.4843   29.9335 O   0  0  0  0  0  0
   62.9063   48.2597   34.0641 C   0  0  0  0  0  0
   64.6181   42.8749   31.6977 C   0  0  0  0  0  0
   66.0700   44.3465   30.1393 C   0  0  0  0  0  0
   64.0842   42.9175   29.3649 C   0  0  0  0  0  0
   62.6113   48.2950   27.5619 C   0  0  0  0  0  0
   60.2831   47.8704   28.4992 C   0  0  0  0  0  0
   61.4294   46.0810   27.3379 C   0  0  0  0  0  0
   58.6803   44.4769   30.1331 C   0  0  0  0  0  0
   61.5267   48.2699   30.9219 H   0  0  0  0  0  0
   63.4789   45.3103   28.5803 H   0  0  0  0  0  0
   56.8805   46.2927   32.5321 H   0  0  0  0  0  0
   59.2166   45.4103   33.8994 H   0  0  0  0  0  0
   60.5898   47.2786   34.7876 H   0  0  0  0  0  0
   59.9946   46.6682   31.2628 H   0  0  0  0  0  0
   62.5584   45.0034   34.1427 H   0  0  0  0  0  0
   63.6093   43.6531   33.9963 H   0  0  0  0  0  0
   56.8095   44.2893   29.7379 H   0  0  0  0  0  0
   62.7121   49.2770   33.7235 H   0  0  0  0  0  0
   62.6956   48.2438   35.1335 H   0  0  0  0  0  0
   63.9661   48.0518   33.9154 H   0  0  0  0  0  0
   63.6069   42.6855   32.0424 H   0  0  0  0  0  0
   65.0186   41.8904   31.4497 H   0  0  0  0  0  0
   65.2052   43.2306   32.5391 H   0  0  0  0  0  0
   66.0318   45.1217   29.3729 H   0  0  0  0  0  0
   66.5549   44.7960   31.0079 H   0  0  0  0  0  0
   66.7373   43.5762   29.7423 H   0  0  0  0  0  0
   63.9880   43.3812   28.3942 H   0  0  0  0  0  0
   64.7754   42.0810   29.2084 H   0  0  0  0  0  0
   63.1048   42.5032   29.6109 H   0  0  0  0  0  0
   63.6418   47.9388   27.5047 H   0  0  0  0  0  0
   62.2851   48.4742   26.5389 H   0  0  0  0  0  0
   62.6183   49.2565   28.0680 H   0  0  0  0  0  0
   59.5149   47.1042   28.6167 H   0  0  0  0  0  0
   60.2002   48.4768   29.3783 H   0  0  0  0  0  0
   60.0087   48.4913   27.6499 H   0  0  0  0  0  0
   60.9580   45.2708   27.8869 H   0  0  0  0  0  0
   60.7385   46.3460   26.5399 H   0  0  0  0  0  0
   62.3335   45.6947   26.8696 H   0  0  0  0  0  0
   59.7374   44.2152   30.1379 H   0  0  0  0  0  0
   58.1355   43.5431   30.2462 H   0  0  0  0  0  0
   58.4113   44.9136   29.1729 H   0  0  0  0  0  0
  1  2  1  0  0  0
  1  3  2  0  0  0
  1  8  1  0  0  0
  2  5  2  0  0  0
  2  9  1  0  0  0
  3  6  1  0  0  0
  3 11  1  0  0  0
  4  6  2  0  0  0
  4 13  1  0  0  0
  4  5  1  0  0  0
  5 32  1  0  0  0
  6 33  1  0  0  0
  7 18  1  0  0  0
  7 20  1  0  0  0
  7 21  1  0  0  0
  7 22  1  0  0  0
  8 18  1  0  0  0
  9 16  2  0  0  0
  9 24  1  0  0  0
 10 15  2  0  0  0
 10 12  1  0  0  0
 10 34  1  0  0  0
 11 25  1  0  0  0
 11 26  1  0  0  0
 11 27  1  0  0  0
 12 19  2  0  0  0
 12 23  1  0  0  0
 13 28  1  0  0  0
 13 29  1  0  0  0
 13 30  1  0  0  0
 14 16  1  0  0  0
 14 17  2  0  0  0
 14 35  1  0  0  0
 15 17  1  0  0  0
 15 31  1  0  0  0
 16 36  1  0  0  0
 17 37  1  0  0  0
 18 38  1  0  0  0
 18 39  1  0  0  0
 23 40  1  0  0  0
 24 41  1  0  0  0
 24 42  1  0  0  0
 24 43  1  0  0  0
 25 44  1  0  0  0
 25 45  1  0  0  0
 25 46  1  0  0  0
 26 47  1  0  0  0
 26 48  1  0  0  0
 26 49  1  0  0  0
 27 50  1  0  0  0
 27 51  1  0  0  0
 27 52  1  0  0  0
 28 53  1  0  0  0
 28 54  1  0  0  0
 28 55  1  0  0  0
 29 56  1  0  0  0
 29 57  1  0  0  0
 29 58  1  0  0  0
 30 59  1  0  0  0
 30 60  1  0  0  0
 30 61  1  0  0  0
 31 62  1  0  0  0
 31 63  1  0  0  0
 31 64  1  0  0  0
M  END
> <s_m_entry_id>
31196

> <s_m_entry_name>
dock_pv.409

> <s_m_Source_Path>
/home/csk/Desktop/cluster/DUD-E-result/rxra

> <s_m_Source_File>
dock_pv.maegz

> <i_m_Source_File_Index>
409

> <chembl_id>
CHEMBL92487

> <chembl_pref_name>
None

> <i_lp_mmshare_version>
53161

> <r_lp_tautomer_probability>
1

> <s_lp_Force_Field>
OPLS_2005

> <r_lp_Energy>
35.235644

> <b_lp_Chiralities_Consistent>
1

> <s_lp_Variant>
CHEMBL2061_lig141-1

> <s_i_glide_gridfile>
glide-grid_1mv9

> <i_i_glide_lignum>
180

> <i_i_glide_rotatable_bonds>
10

> <r_i_docking_score>
-8.78365343653979

> <r_i_glide_ligand_efficiency>
-0.283343659243219

> <r_i_glide_ligand_efficiency_sa>
-0.890090288105575

> <r_i_glide_ligand_efficiency_ln>
-1.98098303658946

> <r_i_glide_gscore>
-8.78365343653979

> <r_i_glide_lipo>
-4.82209108725757

> <r_i_glide_hbond>
-0.135359991320366

> <r_i_glide_metal>
0

> <r_i_glide_rewards>
-2.5069730799583

> <r_i_glide_evdw>
-26.6549015045166

> <r_i_glide_ecoul>
-4.05971765518188

> <r_i_glide_erotb>
0.622473445499558

> <r_i_glide_esite>
0

> <r_i_glide_emodel>
-67.3940806642629

> <r_i_glide_energy>
-30.7146191596985

> <r_i_glide_einternal>
18.428689956665

> <i_i_glide_confnum>
121

> <i_i_glide_posenum>
204

> <r_i_glide_eff_state_penalty>
0

> <s_user_duplicate_titles>
CHEMBL2061_lig141,147259

> <i_f3d_flags>
0

> <s_m_subgroup_title>
dock_pv

> <s_m_subgroupid>
dock_pv

> <b_m_subgroup_collapsed>
1

$$$$
CHEMBL2061_lig52
                    3D
 Schrodinger Suite 2021-1.
 56 58  0  0  1  0            999 V2000
   62.0934   46.3187   31.1467 C   0  0  0  0  0  0
   62.9595   46.0391   30.0922 N   0  0  0  0  0  0
   62.8493   46.5372   32.2906 C   0  0  0  0  0  0
   64.1904   45.7201   30.6471 C   0  0  0  0  0  0
   64.1456   46.0638   32.0202 C   0  0  0  0  0  0
   60.6489   46.3311   31.0274 C   0  0  0  0  0  0
   54.8089   44.8947   30.2117 C   0  0  0  0  0  0
   62.4722   47.0075   33.6335 C   0  0  0  0  0  0
   55.5321   44.8768   28.8669 C   0  0  0  0  0  0
   59.8582   45.6808   30.1558 C   0  0  0  0  0  0
   62.6370   45.9868   28.6489 C   0  0  0  0  0  0
   53.7456   44.0769   30.1390 O   0  0  0  0  0  0
   55.0864   45.6113   31.1693 O   0  0  0  0  0  0
   56.2931   46.1392   28.4619 C   0  0  2  0  0  0
   57.8207   46.1199   28.7581 C   0  0  0  0  0  0
   63.2080   48.0237   34.2489 C   0  0  0  0  0  0
   61.4739   46.3497   34.3298 C   0  0  0  0  0  0
   61.7512   47.9101   36.1390 C   0  0  0  0  0  0
   58.3499   45.6995   30.1497 C   0  0  1  0  0  0
   65.3377   45.1648   30.0901 C   0  0  0  0  0  0
   65.2631   45.8681   32.8368 C   0  0  0  0  0  0
   62.8501   48.4769   35.5106 C   0  0  0  0  0  0
   61.1765   46.7640   35.6118 C   0  0  0  0  0  0
   61.2080   48.4772   37.2374 F   0  0  0  0  0  0
   55.6079   47.2769   28.9390 O   0  0  0  0  0  0
   57.9747   44.3939   30.5272 O   0  0  0  0  0  0
   62.6178   44.5302   28.1395 C   0  0  0  0  0  0
   63.5649   46.9151   27.8349 C   0  0  0  0  0  0
   66.3791   45.2769   32.2861 C   0  0  0  0  0  0
   66.4080   44.9286   30.9391 C   0  0  0  0  0  0
   60.1724   46.8770   31.8218 H   0  0  0  0  0  0
   56.2173   44.0441   28.8687 H   0  0  0  0  0  0
   54.8132   44.6508   28.0871 H   0  0  0  0  0  0
   60.2913   45.0623   29.3924 H   0  0  0  0  0  0
   61.6531   46.4238   28.5000 H   0  0  0  0  0  0
   53.7615   43.5891   29.3119 H   0  0  0  0  0  0
   56.2020   46.2131   27.3772 H   0  0  0  0  0  0
   58.2915   45.4750   28.0183 H   0  0  0  0  0  0
   58.2346   47.1038   28.5391 H   0  0  0  0  0  0
   64.0407   48.4771   33.7391 H   0  0  0  0  0  0
   60.9391   45.5189   33.8949 H   0  0  0  0  0  0
   57.9797   46.3786   30.9134 H   0  0  0  0  0  0
   65.4030   44.9077   29.0499 H   0  0  0  0  0  0
   65.2375   46.1153   33.8877 H   0  0  0  0  0  0
   63.3808   49.2944   35.9713 H   0  0  0  0  0  0
   60.4081   46.2412   36.1533 H   0  0  0  0  0  0
   55.5709   47.2000   29.8977 H   0  0  0  0  0  0
   58.4823   43.7579   30.0129 H   0  0  0  0  0  0
   62.2381   44.4806   27.1188 H   0  0  0  0  0  0
   63.6082   44.0839   28.1392 H   0  0  0  0  0  0
   61.9936   43.8820   28.7544 H   0  0  0  0  0  0
   63.3166   46.8783   26.7735 H   0  0  0  0  0  0
   63.4565   47.9535   28.1484 H   0  0  0  0  0  0
   64.6185   46.6610   27.9270 H   0  0  0  0  0  0
   67.2080   45.0661   32.9393 H   0  0  0  0  0  0
   67.3010   44.4767   30.5374 H   0  0  0  0  0  0
  1  2  1  0  0  0
  1  3  2  0  0  0
  1  6  1  0  0  0
  2  4  1  0  0  0
  2 11  1  0  0  0
  3  5  1  0  0  0
  3  8  1  0  0  0
  4 20  2  0  0  0
  4  5  1  0  0  0
  5 21  2  0  0  0
  6 10  2  0  0  0
  6 31  1  0  0  0
  7  9  1  0  0  0
  7 12  1  0  0  0
  7 13  2  0  0  0
  8 16  2  0  0  0
  8 17  1  0  0  0
  9 14  1  0  0  0
  9 32  1  0  0  0
  9 33  1  0  0  0
 10 19  1  0  0  0
 10 34  1  0  0  0
 11 27  1  0  0  0
 11 28  1  0  0  0
 11 35  1  0  0  0
 12 36  1  0  0  0
 14 15  1  0  0  0
 14 25  1  0  0  0
 14 37  1  0  0  0
 15 19  1  0  0  0
 15 38  1  0  0  0
 15 39  1  0  0  0
 16 22  1  0  0  0
 16 40  1  0  0  0
 17 23  2  0  0  0
 17 41  1  0  0  0
 18 22  2  0  0  0
 18 24  1  0  0  0
 18 23  1  0  0  0
 19 26  1  0  0  0
 19 42  1  0  0  0
 20 30  1  0  0  0
 20 43  1  0  0  0
 21 29  1  0  0  0
 21 44  1  0  0  0
 22 45  1  0  0  0
 23 46  1  0  0  0
 25 47  1  0  0  0
 26 48  1  0  0  0
 27 49  1  0  0  0
 27 50  1  0  0  0
 27 51  1  0  0  0
 28 52  1  0  0  0
 28 53  1  0  0  0
 28 54  1  0  0  0
 29 30  2  0  0  0
 29 55  1  0  0  0
 30 56  1  0  0  0
M  END
> <s_m_entry_id>
31197

> <s_m_entry_name>
dock_pv.410

> <s_m_Source_Path>
/home/csk/Desktop/cluster/DUD-E-result/rxra

> <s_m_Source_File>
dock_pv.maegz

> <i_m_Source_File_Index>
410

> <chembl_id>
CHEMBL2220442

> <chembl_pref_name>
FLUVASTATIN

> <i_lp_mmshare_version>
53161

> <r_lp_tautomer_probability>
1

> <s_lp_Force_Field>
OPLS_2005

> <r_lp_Energy>
26.563583

> <b_lp_Chiralities_Consistent>
1

> <s_lp_Variant>
CHEMBL2061_lig52-1

> <s_i_glide_gridfile>
glide-grid_1mv9

> <i_i_glide_lignum>
70

> <i_i_glide_rotatable_bonds>
11

> <r_i_docking_score>
-8.78187270495449

> <r_i_glide_ligand_efficiency>
-0.29272909016515

> <r_i_glide_ligand_efficiency_sa>
-0.909577343368233

> <r_i_glide_ligand_efficiency_ln>
-1.99533716473264

> <r_i_glide_gscore>
-8.78187270495449

> <r_i_glide_lipo>
-5.42592129894483

> <r_i_glide_hbond>
0

> <r_i_glide_metal>
0

> <r_i_glide_rewards>
-2.17092670769173

> <r_i_glide_evdw>
-26.8970317840576

> <r_i_glide_ecoul>
-4.36726903915405

> <r_i_glide_erotb>
0.814917246758068

> <r_i_glide_esite>
0

> <r_i_glide_emodel>
-30.492196607001

> <r_i_glide_energy>
-31.2643008232117

> <r_i_glide_einternal>
9.31376934051514

> <i_i_glide_confnum>
17

> <i_i_glide_posenum>
342

> <r_i_glide_eff_state_penalty>
0

> <s_user_duplicate_titles>
CHEMBL2061_lig52

> <i_f3d_flags>
0

> <s_m_subgroup_title>
dock_pv

> <s_m_subgroupid>
dock_pv

> <b_m_subgroup_collapsed>
1

$$$$
CHEMBL2061_lig529
                    3D
 Schrodinger Suite 2021-1.
 25 26  0  0  1  0            999 V2000
   60.4982   46.0966   29.0669 C   0  0  0  0  0  0
   54.8371   45.3181   30.0914 C   0  0  0  0  0  0
   59.0479   45.8946   29.3384 C   0  0  0  0  0  0
   56.3002   45.4962   29.8036 C   0  0  0  0  0  0
   61.4119   45.0785   29.3538 C   0  0  0  0  0  0
   60.9820   47.2788   28.4879 C   0  0  0  0  0  0
   62.3463   47.4356   28.2270 C   0  0  0  0  0  0
   62.7744   45.2386   29.1212 C   0  0  0  0  0  0
   63.2448   46.4211   28.5560 C   0  0  0  0  0  0
   54.4110   44.5361   30.9372 O   0  0  0  0  0  0
   56.7526   45.8901   28.5395 C   0  0  0  0  0  0
   58.1167   46.0771   28.3220 C   0  0  0  0  0  0
   57.2330   45.2668   30.8153 C   0  0  0  0  0  0
   58.5879   45.4737   30.5853 C   0  0  0  0  0  0
   54.0409   46.1837   29.4052 O   0  0  0  0  0  0
   63.8645   43.9675   29.5305 Cl  0  0  0  0  0  0
   62.9271   48.8773   27.4814 Cl  0  0  0  0  0  0
   61.0473   44.1393   29.7390 H   0  0  0  0  0  0
   60.3011   48.0792   28.2362 H   0  0  0  0  0  0
   64.3017   46.5466   28.3662 H   0  0  0  0  0  0
   56.0712   46.0560   27.7156 H   0  0  0  0  0  0
   58.4605   46.3991   27.3510 H   0  0  0  0  0  0
   56.9095   44.9592   31.7953 H   0  0  0  0  0  0
   59.2759   45.3336   31.3985 H   0  0  0  0  0  0
   54.5906   46.7469   28.8574 H   0  0  0  0  0  0
  1  3  1  0  0  0
  1  5  1  0  0  0
  1  6  2  0  0  0
  2  4  1  0  0  0
  2 10  2  0  0  0
  2 15  1  0  0  0
  3 12  1  0  0  0
  3 14  2  0  0  0
  4 13  2  0  0  0
  4 11  1  0  0  0
  5  8  2  0  0  0
  5 18  1  0  0  0
  6  7  1  0  0  0
  6 19  1  0  0  0
  7  9  2  0  0  0
  7 17  1  0  0  0
  8 16  1  0  0  0
  8  9  1  0  0  0
  9 20  1  0  0  0
 11 12  2  0  0  0
 11 21  1  0  0  0
 12 22  1  0  0  0
 13 14  1  0  0  0
 13 23  1  0  0  0
 14 24  1  0  0  0
 15 25  1  0  0  0
M  END
> <s_m_entry_id>
31198

> <s_m_entry_name>
dock_pv.411

> <s_m_Source_Path>
/home/csk/Desktop/cluster/DUD-E-result/rxra

> <s_m_Source_File>
dock_pv.maegz

> <i_m_Source_File_Index>
411

> <chembl_id>
CHEMBL106590

> <chembl_pref_name>
None

> <i_lp_mmshare_version>
53161

> <r_lp_tautomer_probability>
1

> <s_lp_Force_Field>
OPLS_2005

> <r_lp_Energy>
12.663219

> <b_lp_Chiralities_Consistent>
1

> <s_lp_Variant>
CHEMBL2061_lig529-1

> <s_i_glide_gridfile>
glide-grid_1mv9

> <i_i_glide_lignum>
629

> <i_i_glide_rotatable_bonds>
3

> <r_i_docking_score>
-8.77642991876572

> <r_i_glide_ligand_efficiency>
-0.516260583456807

> <r_i_glide_ligand_efficiency_sa>
-1.32745133297132

> <r_i_glide_ligand_efficiency_ln>
-2.28957512432082

> <r_i_glide_gscore>
-8.77642991876572

> <r_i_glide_lipo>
-4.00600406861234

> <r_i_glide_hbond>
-0.32

> <r_i_glide_metal>
0

> <r_i_glide_rewards>
-2.83793536187455

> <r_i_glide_evdw>
-30.6028003692627

> <r_i_glide_ecoul>
-3.88040781021118

> <r_i_glide_erotb>
0.499710701715979

> <r_i_glide_esite>
0

> <r_i_glide_emodel>
-50.3002200867207

> <r_i_glide_energy>
-34.4832081794739

> <r_i_glide_einternal>
4.09677410125732

> <i_i_glide_confnum>
4

> <i_i_glide_posenum>
312

> <r_i_glide_eff_state_penalty>
0

> <s_user_duplicate_titles>
CHEMBL2061_lig529

> <i_f3d_flags>
0

> <s_m_subgroup_title>
dock_pv

> <s_m_subgroupid>
dock_pv

> <b_m_subgroup_collapsed>
1

$$$$
CHEMBL2061_lig16
                    3D
 Schrodinger Suite 2021-1.
 38 39  0  0  1  0            999 V2000
   62.0749   47.6132   27.2724 C   0  0  0  0  0  0
   60.7253   47.4681   27.5699 C   0  0  0  0  0  0
   60.3164   46.8554   28.7554 C   0  0  0  0  0  0
   61.2999   46.4245   29.6542 C   0  0  0  0  0  0
   62.6699   46.5737   29.3813 C   0  0  0  0  0  0
   63.0485   47.1457   28.1466 C   0  0  0  0  0  0
   64.3557   47.2773   27.7451 O   0  0  0  0  0  0
   63.6521   46.1442   30.4171 C   0  0  0  0  0  0
   63.4440   46.4727   31.7680 C   0  0  0  0  0  0
   64.3325   46.0615   32.7721 C   0  0  0  0  0  0
   65.4850   45.3529   32.3996 C   0  0  0  0  0  0
   65.7067   45.0296   31.0627 C   0  0  0  0  0  0
   64.7889   45.4009   30.0851 C   0  0  0  0  0  0
   58.8180   46.6909   29.0328 C   0  0  0  0  0  0
   58.4243   45.6770   30.0984 C   0  0  0  0  0  0
   57.6039   44.6291   29.9054 C   0  0  0  0  0  0
   66.4083   44.9528   33.3296 O   0  0  0  0  0  0
   64.0608   46.3755   34.2498 C   0  0  0  0  0  0
   62.6083   46.6205   34.6297 C   0  0  0  0  0  0
   62.1617   47.6902   35.3054 C   0  0  0  0  0  0
   62.3698   48.0751   26.3412 H   0  0  0  0  0  0
   60.0075   47.8314   26.8570 H   0  0  0  0  0  0
   61.0060   45.9609   30.5838 H   0  0  0  0  0  0
   64.9870   46.9653   28.4019 H   0  0  0  0  0  0
   62.5720   47.0522   32.0373 H   0  0  0  0  0  0
   66.5907   44.4794   30.7763 H   0  0  0  0  0  0
   64.9730   45.1082   29.0623 H   0  0  0  0  0  0
   58.4146   47.6576   29.3386 H   0  0  0  0  0  0
   58.3205   46.4278   28.0979 H   0  0  0  0  0  0
   58.8311   45.8370   31.0857 H   0  0  0  0  0  0
   57.3701   43.9510   30.7141 H   0  0  0  0  0  0
   57.1565   44.4283   28.9428 H   0  0  0  0  0  0
   66.2024   45.2620   34.2135 H   0  0  0  0  0  0
   64.6869   47.2169   34.5514 H   0  0  0  0  0  0
   64.3671   45.5214   34.8551 H   0  0  0  0  0  0
   61.9033   45.8561   34.3337 H   0  0  0  0  0  0
   62.8310   48.4764   35.6290 H   0  0  0  0  0  0
   61.1137   47.7978   35.5475 H   0  0  0  0  0  0
  1  6  1  0  0  0
  1  2  2  0  0  0
  1 21  1  0  0  0
  2  3  1  0  0  0
  2 22  1  0  0  0
  3 14  1  0  0  0
  3  4  2  0  0  0
  4  5  1  0  0  0
  4 23  1  0  0  0
  5  6  2  0  0  0
  5  8  1  0  0  0
  6  7  1  0  0  0
  7 24  1  0  0  0
  8 13  1  0  0  0
  8  9  2  0  0  0
  9 10  1  0  0  0
  9 25  1  0  0  0
 10 11  2  0  0  0
 10 18  1  0  0  0
 11 12  1  0  0  0
 11 17  1  0  0  0
 12 13  2  0  0  0
 12 26  1  0  0  0
 13 27  1  0  0  0
 14 15  1  0  0  0
 14 28  1  0  0  0
 14 29  1  0  0  0
 15 16  2  0  0  0
 15 30  1  0  0  0
 16 31  1  0  0  0
 16 32  1  0  0  0
 17 33  1  0  0  0
 18 19  1  0  0  0
 18 34  1  0  0  0
 18 35  1  0  0  0
 19 20  2  0  0  0
 19 36  1  0  0  0
 20 37  1  0  0  0
 20 38  1  0  0  0
M  END
> <s_m_entry_id>
31200

> <s_m_entry_name>
dock_pv.413

> <s_m_Source_Path>
/home/csk/Desktop/cluster/DUD-E-result/rxra

> <s_m_Source_File>
dock_pv.maegz

> <i_m_Source_File_Index>
413

> <chembl_id>
CHEMBL16901

> <chembl_pref_name>
HONOKIOL

> <i_lp_mmshare_version>
53161

> <r_lp_tautomer_probability>
0.99999999999473

> <s_lp_Force_Field>
OPLS_2005

> <r_lp_Energy>
16.839625

> <b_lp_Chiralities_Consistent>
1

> <s_lp_Variant>
CHEMBL2061_lig16-1

> <s_i_glide_gridfile>
glide-grid_1mv9

> <i_i_glide_lignum>
19

> <i_i_glide_rotatable_bonds>
7

> <r_i_docking_score>
-8.76908268271539

> <r_i_glide_ligand_efficiency>
-0.438454134135769

> <r_i_glide_ligand_efficiency_sa>
-1.19014762457854

> <r_i_glide_ligand_efficiency_ln>
-2.19461217177991

> <r_i_glide_gscore>
-8.76908268271539

> <r_i_glide_lipo>
-5.38840924967357

> <r_i_glide_hbond>
-0.0845456814318489

> <r_i_glide_metal>
0

> <r_i_glide_rewards>
-2.37151703004804

> <r_i_glide_evdw>
-40.4133262634277

> <r_i_glide_ecoul>
-1.06324470043182

> <r_i_glide_erotb>
1.25554229667422

> <r_i_glide_esite>
0

> <r_i_glide_emodel>
-60.476892625425

> <r_i_glide_energy>
-41.4765709638596

> <r_i_glide_einternal>
4.72100925445557

> <i_i_glide_confnum>
201

> <i_i_glide_posenum>
203

> <r_i_glide_eff_state_penalty>
0

> <s_user_duplicate_titles>
CHEMBL2061_lig16

> <i_f3d_flags>
0

> <s_m_subgroup_title>
dock_pv

> <s_m_subgroupid>
dock_pv

> <b_m_subgroup_collapsed>
1

$$$$
CHEMBL2061_lig460
                    3D
 Schrodinger Suite 2021-1.
 62 65  0  0  1  0            999 V2000
   65.6341   45.5538   33.1254 C   0  0  0  0  0  0
   65.0621   45.5892   34.5557 C   0  0  0  0  0  0
   63.9294   46.6326   34.7578 C   0  0  0  0  0  0
   64.7443   45.9507   32.1621 N   0  0  0  0  0  0
   66.7909   45.1867   32.9403 O   0  0  0  0  0  0
   64.4485   48.0787   34.6471 C   0  0  0  0  0  0
   63.3364   46.3798   36.1390 C   0  0  0  0  0  0
   63.3455   46.1484   32.3604 C   0  0  0  0  0  0
   62.8879   46.4209   33.6576 C   0  0  0  0  0  0
   61.5151   46.4770   33.8906 C   0  0  0  0  0  0
   60.5914   46.2807   32.8754 C   0  0  0  0  0  0
   61.0247   46.1780   31.5356 C   0  0  0  0  0  0
   62.4066   46.1156   31.3094 C   0  0  0  0  0  0
   60.0693   46.0868   30.3802 C   0  0  0  0  0  0
   58.9456   45.2635   30.4653 C   0  0  0  0  0  0
   57.9724   45.2022   29.4917 C   0  0  0  0  0  0
   58.0666   46.0753   28.4241 C   0  0  0  0  0  0
   59.2073   46.8621   28.2544 C   0  0  0  0  0  0
   60.2252   46.8771   29.2227 C   0  0  0  0  0  0
   56.9221   44.0992   29.6228 C   0  0  2  0  0  0
   61.3462   47.6871   29.1437 O   0  0  0  0  0  0
   65.2360   45.9247   30.7750 C   0  0  0  0  0  0
   64.9367   44.6225   30.0183 C   0  0  0  0  0  0
   59.1436   46.1544   33.3284 C   0  0  0  0  0  0
   55.5043   44.0783   29.0487 C   0  0  0  0  0  0
   55.7426   44.2314   30.5338 C   0  0  2  0  0  0
   55.3529   45.5810   31.0257 C   0  0  0  0  0  0
   55.0951   46.4770   30.0374 O   0  0  0  0  0  0
   55.2078   45.7471   32.2145 O   0  0  0  0  0  0
   61.7907   48.2589   27.9095 C   0  0  0  0  0  0
   62.9511   47.4453   27.3087 C   0  0  0  0  0  0
   63.4475   48.0771   26.2507 F   0  0  0  0  0  0
   63.9682   47.2778   28.1419 F   0  0  0  0  0  0
   62.5577   46.2298   26.9395 F   0  0  0  0  0  0
   64.7073   44.5788   34.7656 H   0  0  0  0  0  0
   65.8878   45.7781   35.2433 H   0  0  0  0  0  0
   64.8077   48.4715   35.6001 H   0  0  0  0  0  0
   65.2602   48.1622   33.9257 H   0  0  0  0  0  0
   63.6608   48.7665   34.3338 H   0  0  0  0  0  0
   64.1125   46.3436   36.9080 H   0  0  0  0  0  0
   62.6699   47.2027   36.4095 H   0  0  0  0  0  0
   62.7852   45.4379   36.1790 H   0  0  0  0  0  0
   61.1407   46.6244   34.8924 H   0  0  0  0  0  0
   62.7298   45.9809   30.2898 H   0  0  0  0  0  0
   58.8055   44.6163   31.3089 H   0  0  0  0  0  0
   57.2726   46.0770   27.7067 H   0  0  0  0  0  0
   59.2601   47.4579   27.3627 H   0  0  0  0  0  0
   57.4145   43.1383   29.7391 H   0  0  0  0  0  0
   64.8378   46.7892   30.2485 H   0  0  0  0  0  0
   66.3167   46.0753   30.7556 H   0  0  0  0  0  0
   64.8099   44.8487   28.9590 H   0  0  0  0  0  0
   65.7568   43.9166   30.1390 H   0  0  0  0  0  0
   64.0335   44.1198   30.3613 H   0  0  0  0  0  0
   59.0037   46.8539   34.1390 H   0  0  0  0  0  0
   58.4013   46.4716   32.6028 H   0  0  0  0  0  0
   58.9151   45.1533   33.6917 H   0  0  0  0  0  0
   54.7662   43.2868   28.9441 H   0  0  0  0  0  0
   55.2780   44.8561   28.3189 H   0  0  0  0  0  0
   55.6079   43.4490   31.2811 H   0  0  0  0  0  0
   55.3995   46.1284   29.1988 H   0  0  0  0  0  0
   61.0193   48.4269   27.1643 H   0  0  0  0  0  0
   62.1543   49.2579   28.1371 H   0  0  0  0  0  0
  1  5  2  0  0  0
  1  2  1  0  0  0
  1  4  1  0  0  0
  2  3  1  0  0  0
  2 35  1  0  0  0
  2 36  1  0  0  0
  3  9  1  0  0  0
  3  6  1  0  0  0
  3  7  1  0  0  0
  4  8  1  0  0  0
  4 22  1  0  0  0
  6 37  1  0  0  0
  6 38  1  0  0  0
  6 39  1  0  0  0
  7 40  1  0  0  0
  7 41  1  0  0  0
  7 42  1  0  0  0
  8  9  2  0  0  0
  8 13  1  0  0  0
  9 10  1  0  0  0
 10 11  2  0  0  0
 10 43  1  0  0  0
 11 24  1  0  0  0
 11 12  1  0  0  0
 12 14  1  0  0  0
 12 13  2  0  0  0
 13 44  1  0  0  0
 14 19  1  0  0  0
 14 15  2  0  0  0
 15 16  1  0  0  0
 15 45  1  0  0  0
 16 17  2  0  0  0
 16 20  1  0  0  0
 17 18  1  0  0  0
 17 46  1  0  0  0
 18 19  2  0  0  0
 18 47  1  0  0  0
 19 21  1  0  0  0
 20 25  1  0  0  0
 20 26  1  0  0  0
 20 48  1  0  0  0
 21 30  1  0  0  0
 22 23  1  0  0  0
 22 49  1  0  0  0
 22 50  1  0  0  0
 23 51  1  0  0  0
 23 52  1  0  0  0
 23 53  1  0  0  0
 24 54  1  0  0  0
 24 55  1  0  0  0
 24 56  1  0  0  0
 25 26  1  0  0  0
 25 57  1  0  0  0
 25 58  1  0  0  0
 26 27  1  0  0  0
 26 59  1  0  0  0
 27 28  1  0  0  0
 27 29  2  0  0  0
 28 60  1  0  0  0
 30 31  1  0  0  0
 30 61  1  0  0  0
 30 62  1  0  0  0
 31 32  1  0  0  0
 31 33  1  0  0  0
 31 34  1  0  0  0
M  END
> <s_m_entry_id>
31201

> <s_m_entry_name>
dock_pv.414

> <s_m_Source_Path>
/home/csk/Desktop/cluster/DUD-E-result/rxra

> <s_m_Source_File>
dock_pv.maegz

> <i_m_Source_File_Index>
414

> <chembl_id>
CHEMBL246210

> <chembl_pref_name>
None

> <i_lp_mmshare_version>
53161

> <r_lp_tautomer_probability>
1

> <s_lp_Force_Field>
OPLS_2005

> <r_lp_Energy>
44.194161

> <b_lp_Chiralities_Consistent>
1

> <s_lp_Variant>
CHEMBL2061_lig460-3

> <s_i_glide_gridfile>
glide-grid_1mv9

> <i_i_glide_lignum>
547

> <i_i_glide_rotatable_bonds>
8

> <r_i_docking_score>
-8.76183284964838

> <r_i_glide_ligand_efficiency>
-0.257700966166129

> <r_i_glide_ligand_efficiency_sa>
-0.834851090211072

> <r_i_glide_ligand_efficiency_ln>
-1.93573463757428

> <r_i_glide_gscore>
-8.76183284964838

> <r_i_glide_lipo>
-5.66811214857402

> <r_i_glide_hbond>
0

> <r_i_glide_metal>
0

> <r_i_glide_rewards>
-2.71293465472399

> <r_i_glide_evdw>
-10.3043775558472

> <r_i_glide_ecoul>
-2.08812546730042

> <r_i_glide_erotb>
0.447651651537044

> <r_i_glide_esite>
0

> <r_i_glide_emodel>
-50.8222931387604

> <r_i_glide_energy>
-12.3925030231476

> <r_i_glide_einternal>
7.49950313568115

> <i_i_glide_confnum>
285

> <i_i_glide_posenum>
25

> <r_i_glide_eff_state_penalty>
0

> <s_user_duplicate_titles>
CHEMBL2061_lig460

> <i_f3d_flags>
0

> <s_m_subgroup_title>
dock_pv

> <s_m_subgroupid>
dock_pv

> <b_m_subgroup_collapsed>
1

$$$$
CHEMBL2061_lig233
                    3D
 Schrodinger Suite 2021-1.
 49 51  0  0  1  0            999 V2000
   60.7289   46.7575   27.7405 C   0  0  0  0  0  0
   61.5108   46.1931   28.7366 C   0  0  0  0  0  0
   60.8888   45.6754   29.8657 C   0  0  0  0  0  0
   59.3426   46.6539   27.8066 C   0  0  0  0  0  0
   58.7040   46.1601   28.9473 C   0  0  0  0  0  0
   59.4987   45.7907   30.0171 C   0  0  0  0  0  0
   58.6218   45.6773   31.1781 C   0  0  0  0  0  0
   57.2598   45.6451   30.6369 C   0  0  0  0  0  0
   57.2825   45.9510   29.3129 C   0  0  0  0  0  0
   61.3071   47.4415   26.7339 F   0  0  0  0  0  0
   56.0026   45.4252   31.4582 C   0  0  0  0  0  0
   56.1264   46.0474   28.2837 C   0  0  0  0  0  0
   54.8540   46.8334   28.6758 C   0  0  0  0  0  0
   54.8080   48.0768   28.1398 O   0  0  0  0  0  0
   53.9365   46.3747   29.3467 O   0  0  0  0  0  0
   58.9859   45.7080   32.4853 C   0  0  0  0  0  0
   60.2860   46.0915   33.1017 C   0  0  0  0  0  0
   61.2080   46.9641   32.5034 C   0  0  0  0  0  0
   62.3796   47.3326   33.1463 C   0  0  0  0  0  0
   62.6246   46.8754   34.4371 C   0  0  0  0  0  0
   61.6882   46.0771   35.0769 C   0  0  0  0  0  0
   60.5474   45.6770   34.3972 C   0  0  0  0  0  0
   63.8846   47.2694   35.1760 C   0  0  0  0  0  0
   63.7023   48.6821   35.7390 C   0  0  0  0  0  0
   65.1527   47.0872   34.3165 C   0  0  0  0  0  0
   55.2913   44.1142   31.1275 C   0  0  0  0  0  0
   62.5882   46.2132   28.6643 H   0  0  0  0  0  0
   61.5130   45.2781   30.6509 H   0  0  0  0  0  0
   58.8079   47.0545   26.9794 H   0  0  0  0  0  0
   56.2194   45.4963   32.5187 H   0  0  0  0  0  0
   55.3351   46.2595   31.3073 H   0  0  0  0  0  0
   56.4677   46.4509   27.3391 H   0  0  0  0  0  0
   55.8244   45.0276   28.0459 H   0  0  0  0  0  0
   54.0310   48.5563   28.4276 H   0  0  0  0  0  0
   58.2092   45.5537   33.2170 H   0  0  0  0  0  0
   61.0037   47.4319   31.5555 H   0  0  0  0  0  0
   63.0711   48.0013   32.6579 H   0  0  0  0  0  0
   61.8623   45.7116   36.0785 H   0  0  0  0  0  0
   59.9210   44.9511   34.8781 H   0  0  0  0  0  0
   63.9951   46.5865   36.0215 H   0  0  0  0  0  0
   62.7065   48.8127   36.1628 H   0  0  0  0  0  0
   64.4080   48.8765   36.5388 H   0  0  0  0  0  0
   63.8168   49.4400   34.9661 H   0  0  0  0  0  0
   65.0506   46.2564   33.6165 H   0  0  0  0  0  0
   65.3936   47.9793   33.7390 H   0  0  0  0  0  0
   66.0080   46.8457   34.9386 H   0  0  0  0  0  0
   54.4081   43.9828   31.7388 H   0  0  0  0  0  0
   54.9915   44.0706   30.0812 H   0  0  0  0  0  0
   55.9538   43.2771   31.3385 H   0  0  0  0  0  0
  1  2  2  0  0  0
  1  4  1  0  0  0
  1 10  1  0  0  0
  2  3  1  0  0  0
  2 27  1  0  0  0
  3  6  2  0  0  0
  3 28  1  0  0  0
  4  5  2  0  0  0
  4 29  1  0  0  0
  5  6  1  0  0  0
  5  9  1  0  0  0
  6  7  1  0  0  0
  7  8  1  0  0  0
  7 16  2  0  0  0
  8  9  2  0  0  0
  8 11  1  0  0  0
  9 12  1  0  0  0
 11 26  1  0  0  0
 11 30  1  0  0  0
 11 31  1  0  0  0
 12 13  1  0  0  0
 12 32  1  0  0  0
 12 33  1  0  0  0
 13 14  1  0  0  0
 13 15  2  0  0  0
 14 34  1  0  0  0
 16 17  1  0  0  0
 16 35  1  0  0  0
 17 18  2  0  0  0
 17 22  1  0  0  0
 18 19  1  0  0  0
 18 36  1  0  0  0
 19 20  2  0  0  0
 19 37  1  0  0  0
 20 21  1  0  0  0
 20 23  1  0  0  0
 21 22  2  0  0  0
 21 38  1  0  0  0
 22 39  1  0  0  0
 23 24  1  0  0  0
 23 25  1  0  0  0
 23 40  1  0  0  0
 24 41  1  0  0  0
 24 42  1  0  0  0
 24 43  1  0  0  0
 25 44  1  0  0  0
 25 45  1  0  0  0
 25 46  1  0  0  0
 26 47  1  0  0  0
 26 48  1  0  0  0
 26 49  1  0  0  0
M  END
> <s_m_entry_id>
31202

> <s_m_entry_name>
dock_pv.415

> <s_m_Source_Path>
/home/csk/Desktop/cluster/DUD-E-result/rxra

> <s_m_Source_File>
dock_pv.maegz

> <i_m_Source_File_Index>
415

> <chembl_id>
CHEMBL2337783

> <chembl_pref_name>
None

> <i_lp_mmshare_version>
53161

> <r_lp_tautomer_probability>
1

> <s_lp_Force_Field>
OPLS_2005

> <r_lp_Energy>
37.562519

> <b_lp_Chiralities_Consistent>
1

> <s_lp_Variant>
CHEMBL2061_lig233-1

> <s_i_glide_gridfile>
glide-grid_1mv9

> <i_i_glide_lignum>
272

> <i_i_glide_rotatable_bonds>
6

> <r_i_docking_score>
-8.75893519994385

> <r_i_glide_ligand_efficiency>
-0.336882123074764

> <r_i_glide_ligand_efficiency_sa>
-0.998011964041842

> <r_i_glide_ligand_efficiency_ln>
-2.05700719129625

> <r_i_glide_gscore>
-8.75893519994385

> <r_i_glide_lipo>
-5.33264278890581

> <r_i_glide_hbond>
-0.0947754462936312

> <r_i_glide_metal>
0

> <r_i_glide_rewards>
-2.76784360291701

> <r_i_glide_evdw>
-14.9467220306396

> <r_i_glide_ecoul>
-1.87997317314148

> <r_i_glide_erotb>
0.465658715675808

> <r_i_glide_esite>
0

> <r_i_glide_emodel>
-31.1254169219134

> <r_i_glide_energy>
-16.8266952037811

> <r_i_glide_einternal>
7.23695278167725

> <i_i_glide_confnum>
1

> <i_i_glide_posenum>
59

> <r_i_glide_eff_state_penalty>
0

> <s_user_duplicate_titles>
CHEMBL2061_lig233

> <i_f3d_flags>
0

> <s_m_subgroup_title>
dock_pv

> <s_m_subgroupid>
dock_pv

> <b_m_subgroup_collapsed>
1

$$$$
CHEMBL2061_lig90 
                    3D
 Schrodinger Suite 2021-1.
 45 47  0  0  1  0            999 V2000
   60.5897   47.2422   27.5131 C   0  0  0  0  0  0
   61.4696   47.6313   28.5066 C   0  0  0  0  0  0
   61.2224   47.2541   29.8157 C   0  0  0  0  0  0
   59.4635   46.4770   27.8236 C   0  0  0  0  0  0
   59.1756   46.1540   29.1533 C   0  0  0  0  0  0
   60.0980   46.4770   30.1400 C   0  0  0  0  0  0
   59.5470   46.0679   31.4428 C   0  0  0  0  0  0
   58.2368   45.5423   31.1161 C   0  0  0  0  0  0
   57.9851   45.5678   29.7959 C   0  0  0  0  0  0
   56.7294   45.1400   29.0394 C   0  0  0  0  0  0
   55.4806   45.9290   29.4520 C   0  0  0  0  0  0
   55.0789   46.8780   28.5867 N   0  0  0  0  0  0
   60.0865   46.1374   32.6830 C   0  0  0  0  0  0
   61.4697   46.4770   33.0634 C   0  0  0  0  0  0
   62.5149   46.0770   32.2347 C   0  0  0  0  0  0
   63.8261   46.2131   32.6135 C   0  0  0  0  0  0
   64.1244   46.7913   33.8394 C   0  0  0  0  0  0
   63.0954   47.2424   34.6765 C   0  0  0  0  0  0
   61.7644   47.0795   34.2891 C   0  0  0  0  0  0
   65.5788   46.9068   34.2493 C   0  0  0  0  0  0
   66.4985   47.2733   33.0725 C   0  0  0  0  0  0
   66.0526   45.6264   34.9389 C   0  0  0  0  0  0
   60.8081   47.6770   26.2606 F   0  0  0  0  0  0
   54.9067   45.6753   30.5159 O   0  0  0  0  0  0
   54.0086   47.7112   28.9392 O   0  0  0  0  0  0
   62.3171   48.2560   28.2669 H   0  0  0  0  0  0
   61.8765   47.6751   30.5592 H   0  0  0  0  0  0
   58.8080   46.1896   27.0261 H   0  0  0  0  0  0
   57.5378   45.1698   31.8499 H   0  0  0  0  0  0
   56.5524   44.0770   29.2025 H   0  0  0  0  0  0
   56.8735   45.2773   27.9758 H   0  0  0  0  0  0
   55.5277   47.1465   27.7216 H   0  0  0  0  0  0
   59.4598   45.8314   33.5085 H   0  0  0  0  0  0
   62.3242   45.5330   31.3227 H   0  0  0  0  0  0
   64.5933   45.8302   31.9585 H   0  0  0  0  0  0
   63.3241   47.6932   35.6312 H   0  0  0  0  0  0
   60.9707   47.3892   34.9545 H   0  0  0  0  0  0
   65.6070   47.7435   34.9386 H   0  0  0  0  0  0
   66.0080   48.0695   32.5391 H   0  0  0  0  0  0
   67.4909   47.6289   33.3390 H   0  0  0  0  0  0
   66.6426   46.4419   32.3832 H   0  0  0  0  0  0
   65.4268   45.3904   35.7996 H   0  0  0  0  0  0
   66.0228   44.7697   34.2636 H   0  0  0  0  0  0
   67.0798   45.7394   35.2792 H   0  0  0  0  0  0
   54.4388   48.5530   29.1314 H   0  0  0  0  0  0
  1  2  2  0  0  0
  1  4  1  0  0  0
  1 23  1  0  0  0
  2  3  1  0  0  0
  2 26  1  0  0  0
  3  6  2  0  0  0
  3 27  1  0  0  0
  4  5  2  0  0  0
  4 28  1  0  0  0
  5  6  1  0  0  0
  5  9  1  0  0  0
  6  7  1  0  0  0
  7  8  1  0  0  0
  7 13  2  0  0  0
  8  9  2  0  0  0
  8 29  1  0  0  0
  9 10  1  0  0  0
 10 11  1  0  0  0
 10 30  1  0  0  0
 10 31  1  0  0  0
 11 12  1  0  0  0
 11 24  2  0  0  0
 12 25  1  0  0  0
 12 32  1  0  0  0
 13 14  1  0  0  0
 13 33  1  0  0  0
 14 15  2  0  0  0
 14 19  1  0  0  0
 15 16  1  0  0  0
 15 34  1  0  0  0
 16 17  2  0  0  0
 16 35  1  0  0  0
 17 18  1  0  0  0
 17 20  1  0  0  0
 18 19  2  0  0  0
 18 36  1  0  0  0
 19 37  1  0  0  0
 20 21  1  0  0  0
 20 22  1  0  0  0
 20 38  1  0  0  0
 21 39  1  0  0  0
 21 40  1  0  0  0
 21 41  1  0  0  0
 22 42  1  0  0  0
 22 43  1  0  0  0
 22 44  1  0  0  0
 25 45  1  0  0  0
M  END
> <s_m_entry_id>
31203

> <s_m_entry_name>
dock_pv.416

> <s_m_Source_Path>
/home/csk/Desktop/cluster/DUD-E-result/rxra

> <s_m_Source_File>
dock_pv.maegz

> <i_m_Source_File_Index>
416

> <chembl_id>
CHEMBL4571143

> <chembl_pref_name>
None

> <i_lp_mmshare_version>
53161

> <r_lp_tautomer_probability>
1

> <s_lp_Force_Field>
OPLS_2005

> <r_lp_Energy>
48.791632

> <b_lp_Chiralities_Consistent>
1

> <s_lp_Variant>
CHEMBL2061_lig90 -1

> <s_i_glide_gridfile>
glide-grid_1mv9

> <i_i_glide_lignum>
129

> <i_i_glide_rotatable_bonds>
6

> <r_i_docking_score>
-8.7548942492889

> <r_i_glide_ligand_efficiency>
-0.350195769971556

> <r_i_glide_ligand_efficiency_sa>
-1.02397864214526

> <r_i_glide_ligand_efficiency_ln>
-2.07517230009072

> <r_i_glide_gscore>
-8.7548942492889

> <r_i_glide_lipo>
-4.9299154859568

> <r_i_glide_hbond>
-0.00320908202721956

> <r_i_glide_metal>
0

> <r_i_glide_rewards>
-2.47024888142913

> <r_i_glide_evdw>
-27.1695442199707

> <r_i_glide_ecoul>
-4.38093137741089

> <r_i_glide_erotb>
0.664096117734426

> <r_i_glide_esite>
0

> <r_i_glide_emodel>
-37.3158013861224

> <r_i_glide_energy>
-31.5504755973816

> <r_i_glide_einternal>
3.94825649261475

> <i_i_glide_confnum>
53

> <i_i_glide_posenum>
248

> <r_i_glide_eff_state_penalty>
0

> <s_user_duplicate_titles>
CHEMBL2061_lig90 

> <i_f3d_flags>
0

> <s_m_subgroup_title>
dock_pv

> <s_m_subgroupid>
dock_pv

> <b_m_subgroup_collapsed>
1

$$$$
CHEMBL2061_lig548
                    3D
 Schrodinger Suite 2021-1.
 36 38  0  0  1  0            999 V2000
   61.5834   46.6287   30.2268 C   0  0  0  0  0  0
   61.7344   47.1606   28.9504 C   0  0  0  0  0  0
   60.6279   47.1288   28.1072 C   0  0  0  0  0  0
   59.4402   46.5821   28.4838 N   0  0  0  0  0  0
   59.3845   46.0625   29.7392 C   0  0  0  0  0  0
   60.4084   46.0770   30.6343 N   0  0  0  0  0  0
   57.8833   45.2769   30.2830 S   0  0  0  0  0  0
   56.5801   45.4373   29.0130 C   0  0  0  0  0  0
   55.2080   45.8105   29.5867 C   0  0  0  0  0  0
   54.6536   46.8769   28.9391 O   0  0  0  0  0  0
   54.6577   45.1995   30.5020 O   0  0  0  0  0  0
   60.8076   47.8074   26.5391 Cl  0  0  0  0  0  0
   62.7066   46.6520   31.0617 N   0  0  0  0  0  0
   62.8916   46.4772   32.4410 C   0  0  0  0  0  0
   63.3511   46.1277   35.1824 C   0  0  0  0  0  0
   62.0796   46.4769   34.7287 C   0  0  0  0  0  0
   61.8481   46.6347   33.3619 C   0  0  0  0  0  0
   64.3976   45.9793   34.2768 C   0  0  0  0  0  0
   64.1749   46.1652   32.9107 C   0  0  0  0  0  0
   65.4474   45.8867   32.1319 C   0  0  0  0  0  0
   66.5246   45.7267   33.2063 C   0  0  0  0  0  0
   65.8123   45.5224   34.5397 C   0  0  0  0  0  0
   62.6676   47.5936   28.6219 H   0  0  0  0  0  0
   56.4454   44.4687   28.5391 H   0  0  0  0  0  0
   56.8926   46.1216   28.2271 H   0  0  0  0  0  0
   55.2335   47.2468   28.2712 H   0  0  0  0  0  0
   63.5696   46.8266   30.5709 H   0  0  0  0  0  0
   63.5300   45.9602   36.2313 H   0  0  0  0  0  0
   61.2670   46.5954   35.4314 H   0  0  0  0  0  0
   60.8518   46.8774   33.0285 H   0  0  0  0  0  0
   65.3569   44.9601   31.5629 H   0  0  0  0  0  0
   65.7082   46.6851   31.4364 H   0  0  0  0  0  0
   67.1364   46.6303   33.2550 H   0  0  0  0  0  0
   67.2005   44.9006   32.9897 H   0  0  0  0  0  0
   66.3047   46.0769   35.3359 H   0  0  0  0  0  0
   65.8321   44.4656   34.8112 H   0  0  0  0  0  0
  1  6  1  0  0  0
  1 13  1  0  0  0
  1  2  2  0  0  0
  2  3  1  0  0  0
  2 23  1  0  0  0
  3 12  1  0  0  0
  3  4  2  0  0  0
  4  5  1  0  0  0
  5  6  2  0  0  0
  5  7  1  0  0  0
  7  8  1  0  0  0
  8  9  1  0  0  0
  8 24  1  0  0  0
  8 25  1  0  0  0
  9 11  2  0  0  0
  9 10  1  0  0  0
 10 26  1  0  0  0
 13 14  1  0  0  0
 13 27  1  0  0  0
 14 19  2  0  0  0
 14 17  1  0  0  0
 15 18  2  0  0  0
 15 16  1  0  0  0
 15 28  1  0  0  0
 16 17  2  0  0  0
 16 29  1  0  0  0
 17 30  1  0  0  0
 18 19  1  0  0  0
 18 22  1  0  0  0
 19 20  1  0  0  0
 20 21  1  0  0  0
 20 31  1  0  0  0
 20 32  1  0  0  0
 21 22  1  0  0  0
 21 33  1  0  0  0
 21 34  1  0  0  0
 22 35  1  0  0  0
 22 36  1  0  0  0
M  END
> <s_m_entry_id>
31204

> <s_m_entry_name>
dock_pv.417

> <s_m_Source_Path>
/home/csk/Desktop/cluster/DUD-E-result/rxra

> <s_m_Source_File>
dock_pv.maegz

> <i_m_Source_File_Index>
417

> <chembl_id>
CHEMBL459521

> <chembl_pref_name>
None

> <i_lp_mmshare_version>
53161

> <r_lp_tautomer_probability>
0.999999998296584

> <s_lp_Force_Field>
OPLS_2005

> <r_lp_Energy>
15.832936

> <b_lp_Chiralities_Consistent>
1

> <s_lp_Variant>
CHEMBL2061_lig548-1

> <s_i_glide_gridfile>
glide-grid_1mv9

> <i_i_glide_lignum>
648

> <i_i_glide_rotatable_bonds>
6

> <r_i_docking_score>
-8.73116140729699

> <r_i_glide_ligand_efficiency>
-0.396870973058954

> <r_i_glide_ligand_efficiency_sa>
-1.11204807456087

> <r_i_glide_ligand_efficiency_ln>
-2.13421432479382

> <r_i_glide_gscore>
-8.73116140729699

> <r_i_glide_lipo>
-4.43275492517284

> <r_i_glide_hbond>
0

> <r_i_glide_metal>
0

> <r_i_glide_rewards>
-2.41426199052944

> <r_i_glide_evdw>
-48.1164665222168

> <r_i_glide_ecoul>
-2.10241746902466

> <r_i_glide_erotb>
0.837041454869837

> <r_i_glide_esite>
0

> <r_i_glide_emodel>
-75.1700154669382

> <r_i_glide_energy>
-50.2188839912415

> <r_i_glide_einternal>
2.83982992172241

> <i_i_glide_confnum>
43

> <i_i_glide_posenum>
216

> <r_i_glide_eff_state_penalty>
0

> <s_user_duplicate_titles>
CHEMBL2061_lig548

> <i_f3d_flags>
0

> <s_m_subgroup_title>
dock_pv

> <s_m_subgroupid>
dock_pv

> <b_m_subgroup_collapsed>
1

$$$$
CHEMBL2061_lig58
                    3D
 Schrodinger Suite 2021-1.
 44 46  0  0  1  0            999 V2000
   55.8229   44.5963   30.6999 N   0  0  0  0  0  0
   54.8808   45.2314   30.0117 C   0  0  0  0  0  0
   57.1135   44.8767   30.5389 C   0  0  0  0  0  0
   55.6637   46.3527   28.8437 S   0  0  0  0  0  0
   57.3009   46.0324   29.5556 C   0  0  2  0  0  0
   63.9291   46.6696   33.9378 C   0  0  0  0  0  0
   64.3257   47.4798   34.9588 N   0  0  0  0  0  0
   53.6704   45.0826   30.1390 O   0  0  0  0  0  0
   64.9418   46.0210   33.1811 N   0  0  0  0  0  0
   58.0080   44.3016   31.1407 O   0  0  0  0  0  0
   58.4492   45.8717   28.5488 C   0  0  0  0  0  0
   59.8468   46.1566   29.1045 C   0  0  0  0  0  0
   62.4543   46.6017   30.0235 C   0  0  0  0  0  0
   60.5648   45.1463   29.7390 C   0  0  0  0  0  0
   60.4392   47.4098   28.9390 C   0  0  0  0  0  0
   61.8734   45.3455   30.1359 C   0  0  0  0  0  0
   61.7283   47.6326   29.4250 C   0  0  0  0  0  0
   63.7171   46.8770   30.4964 O   0  0  0  0  0  0
   64.6708   45.8245   30.6755 C   0  0  0  0  0  0
   64.6218   45.1388   32.0571 C   0  0  0  0  0  0
   62.5605   46.4770   33.6790 C   0  0  0  0  0  0
   63.3936   48.0770   35.7387 C   0  0  0  0  0  0
   66.3540   46.3074   33.4460 C   0  0  0  0  0  0
   61.6080   47.0842   34.4982 C   0  0  0  0  0  0
   62.0258   47.8980   35.5488 C   0  0  0  0  0  0
   55.5654   43.8873   31.3673 H   0  0  0  0  0  0
   57.6081   46.8770   30.1390 H   0  0  0  0  0  0
   58.2993   46.5162   27.6901 H   0  0  0  0  0  0
   58.4080   44.8770   28.1433 H   0  0  0  0  0  0
   60.1403   44.1604   29.8458 H   0  0  0  0  0  0
   59.9057   48.2098   28.4466 H   0  0  0  0  0  0
   62.4206   44.5141   30.5390 H   0  0  0  0  0  0
   62.1830   48.5984   29.3080 H   0  0  0  0  0  0
   65.6614   46.2515   30.5391 H   0  0  0  0  0  0
   64.5840   45.0824   29.8795 H   0  0  0  0  0  0
   65.3785   44.3539   32.0585 H   0  0  0  0  0  0
   63.7063   44.5724   32.2061 H   0  0  0  0  0  0
   62.2141   45.8688   32.8621 H   0  0  0  0  0  0
   63.7719   48.7051   36.5308 H   0  0  0  0  0  0
   66.6002   46.0770   34.4835 H   0  0  0  0  0  0
   67.0166   45.7246   32.8083 H   0  0  0  0  0  0
   66.5653   47.3651   33.2834 H   0  0  0  0  0  0
   60.5552   46.9260   34.3141 H   0  0  0  0  0  0
   61.3083   48.3831   36.1946 H   0  0  0  0  0  0
  1  2  1  0  0  0
  1  3  1  0  0  0
  1 26  1  0  0  0
  2  4  1  0  0  0
  2  8  2  0  0  0
  3  5  1  0  0  0
  3 10  2  0  0  0
  4  5  1  0  0  0
  5 11  1  0  0  0
  5 27  1  0  0  0
  6  9  1  0  0  0
  6  7  2  0  0  0
  6 21  1  0  0  0
  7 22  1  0  0  0
  9 20  1  0  0  0
  9 23  1  0  0  0
 11 12  1  0  0  0
 11 28  1  0  0  0
 11 29  1  0  0  0
 12 14  1  0  0  0
 12 15  2  0  0  0
 13 17  2  0  0  0
 13 18  1  0  0  0
 13 16  1  0  0  0
 14 16  2  0  0  0
 14 30  1  0  0  0
 15 17  1  0  0  0
 15 31  1  0  0  0
 16 32  1  0  0  0
 17 33  1  0  0  0
 18 19  1  0  0  0
 19 20  1  0  0  0
 19 34  1  0  0  0
 19 35  1  0  0  0
 20 36  1  0  0  0
 20 37  1  0  0  0
 21 24  2  0  0  0
 21 38  1  0  0  0
 22 25  2  0  0  0
 22 39  1  0  0  0
 23 40  1  0  0  0
 23 41  1  0  0  0
 23 42  1  0  0  0
 24 25  1  0  0  0
 24 43  1  0  0  0
 25 44  1  0  0  0
M  END
> <s_m_entry_id>
31205

> <s_m_entry_name>
dock_pv.418

> <s_m_Source_Path>
/home/csk/Desktop/cluster/DUD-E-result/rxra

> <s_m_Source_File>
dock_pv.maegz

> <i_m_Source_File_Index>
418

> <chembl_id>
CHEMBL843

> <chembl_pref_name>
ROSIGLITAZONE MALEATE

> <i_lp_mmshare_version>
53161

> <r_lp_tautomer_probability>
0.999986600176988

> <s_lp_Force_Field>
OPLS_2005

> <r_lp_Energy>
18.760303

> <b_lp_Chiralities_Consistent>
1

> <s_lp_Variant>
CHEMBL2061_lig58-2

> <s_i_glide_gridfile>
glide-grid_1mv9

> <i_i_glide_lignum>
82

> <i_i_glide_rotatable_bonds>
7

> <r_i_docking_score>
-8.65654391499339

> <r_i_glide_ligand_efficiency>
-0.346261756599736

> <r_i_glide_ligand_efficiency_sa>
-1.01247551727603

> <r_i_glide_ligand_efficiency_ln>
-2.051860323541

> <r_i_glide_gscore>
-8.65654391499339

> <r_i_glide_lipo>
-4.59029537569346

> <r_i_glide_hbond>
-0.317888420562307

> <r_i_glide_metal>
0

> <r_i_glide_rewards>
-2.53770426334688

> <r_i_glide_evdw>
-36.9427528381348

> <r_i_glide_ecoul>
-1.75076794624329

> <r_i_glide_erotb>
0.899096978452496

> <r_i_glide_esite>
0

> <r_i_glide_emodel>
-48.8277905083287

> <r_i_glide_energy>
-38.6935207843781

> <r_i_glide_einternal>
10.9490766525269

> <i_i_glide_confnum>
6

> <i_i_glide_posenum>
254

> <r_i_glide_eff_state_penalty>
0

> <s_user_duplicate_titles>
CHEMBL2061_lig58,200565

> <i_f3d_flags>
0

> <s_m_subgroup_title>
dock_pv

> <s_m_subgroupid>
dock_pv

> <b_m_subgroup_collapsed>
1

$$$$
CHEMBL2061_lig547 
                    3D
 Schrodinger Suite 2021-1.
 38 39  0  0  1  0            999 V2000
   62.0825   46.6566   30.0253 C   0  0  0  0  0  0
   62.0959   47.2789   28.7760 C   0  0  0  0  0  0
   60.9014   47.2873   28.0576 C   0  0  0  0  0  0
   59.7804   46.6925   28.5175 N   0  0  0  0  0  0
   59.8632   46.0922   29.7363 C   0  0  0  0  0  0
   60.9622   46.0710   30.5257 N   0  0  0  0  0  0
   63.2693   46.6177   30.7611 N   0  0  0  0  0  0
   63.5067   46.3125   32.1116 C   0  0  0  0  0  0
   64.6907   45.6468   32.4885 C   0  0  0  0  0  0
   64.9135   45.3572   33.8488 C   0  0  0  0  0  0
   63.9834   45.7636   34.8101 C   0  0  0  0  0  0
   62.8310   46.4458   34.4347 C   0  0  0  0  0  0
   62.5917   46.7142   33.0923 C   0  0  0  0  0  0
   65.7148   45.2405   31.4222 C   0  0  0  0  0  0
   66.1303   44.5721   34.3142 C   0  0  0  0  0  0
   58.7498   45.4704   30.2622 O   0  0  0  0  0  0
   57.5359   45.5440   29.5214 C   0  0  0  0  0  0
   56.4051   44.8742   30.3124 C   0  0  0  0  0  0
   60.8080   48.0767   26.5387 Cl  0  0  0  0  0  0
   54.9763   45.2546   29.9169 C   0  0  0  0  0  0
   54.8846   46.0789   28.8344 O   0  0  0  0  0  0
   54.0074   44.8510   30.5464 O   0  0  0  0  0  0
   62.9858   47.7454   28.3821 H   0  0  0  0  0  0
   64.0924   46.8778   30.2427 H   0  0  0  0  0  0
   64.1483   45.5466   35.8560 H   0  0  0  0  0  0
   62.1188   46.7602   35.1838 H   0  0  0  0  0  0
   61.6952   47.2491   32.8151 H   0  0  0  0  0  0
   66.6821   44.9476   31.8256 H   0  0  0  0  0  0
   65.3220   44.4262   30.8133 H   0  0  0  0  0  0
   65.9165   46.0765   30.7549 H   0  0  0  0  0  0
   67.0383   45.1719   34.2405 H   0  0  0  0  0  0
   66.0082   44.2295   35.3386 H   0  0  0  0  0  0
   66.2566   43.6764   33.7074 H   0  0  0  0  0  0
   57.6440   45.0768   28.5406 H   0  0  0  0  0  0
   57.3067   46.5965   29.3387 H   0  0  0  0  0  0
   56.5036   45.2008   31.3465 H   0  0  0  0  0  0
   56.5449   43.7941   30.3428 H   0  0  0  0  0  0
   55.7313   46.2506   28.4206 H   0  0  0  0  0  0
  1  2  2  0  0  0
  1  6  1  0  0  0
  1  7  1  0  0  0
  2  3  1  0  0  0
  2 23  1  0  0  0
  3  4  2  0  0  0
  3 19  1  0  0  0
  4  5  1  0  0  0
  5  6  2  0  0  0
  5 16  1  0  0  0
  7  8  1  0  0  0
  7 24  1  0  0  0
  8  9  2  0  0  0
  8 13  1  0  0  0
  9 10  1  0  0  0
  9 14  1  0  0  0
 10 11  2  0  0  0
 10 15  1  0  0  0
 11 12  1  0  0  0
 11 25  1  0  0  0
 12 13  2  0  0  0
 12 26  1  0  0  0
 13 27  1  0  0  0
 14 28  1  0  0  0
 14 29  1  0  0  0
 14 30  1  0  0  0
 15 31  1  0  0  0
 15 32  1  0  0  0
 15 33  1  0  0  0
 16 17  1  0  0  0
 17 18  1  0  0  0
 17 34  1  0  0  0
 17 35  1  0  0  0
 18 20  1  0  0  0
 18 36  1  0  0  0
 18 37  1  0  0  0
 20 21  1  0  0  0
 20 22  2  0  0  0
 21 38  1  0  0  0
M  END
> <s_m_entry_id>
31206

> <s_m_entry_name>
dock_pv.419

> <s_m_Source_Path>
/home/csk/Desktop/cluster/DUD-E-result/rxra

> <s_m_Source_File>
dock_pv.maegz

> <i_m_Source_File_Index>
419

> <chembl_id>
CHEMBL4439891

> <chembl_pref_name>
None

> <i_lp_mmshare_version>
53161

> <r_lp_tautomer_probability>
0.99999999732158

> <s_lp_Force_Field>
OPLS_2005

> <r_lp_Energy>
10.030758

> <b_lp_Chiralities_Consistent>
1

> <s_lp_Variant>
CHEMBL2061_lig547 -1

> <s_i_glide_gridfile>
glide-grid_1mv9

> <i_i_glide_lignum>
647

> <i_i_glide_rotatable_bonds>
7

> <r_i_docking_score>
-8.65467906330243

> <r_i_glide_ligand_efficiency>
-0.393394502877383

> <r_i_glide_ligand_efficiency_sa>
-1.10230686839029

> <r_i_glide_ligand_efficiency_ln>
-2.11551925016027

> <r_i_glide_gscore>
-8.65467906330243

> <r_i_glide_lipo>
-3.95707804857209

> <r_i_glide_hbond>
-0.39115386648047

> <r_i_glide_metal>
0

> <r_i_glide_rewards>
-2.70179310773618

> <r_i_glide_evdw>
-44.4093437194824

> <r_i_glide_ecoul>
-3.11615705490112

> <r_i_glide_erotb>
1.0832367036956

> <r_i_glide_esite>
0

> <r_i_glide_emodel>
-69.6386298697462

> <r_i_glide_energy>
-47.5255007743835

> <r_i_glide_einternal>
8.99615955352783

> <i_i_glide_confnum>
120

> <i_i_glide_posenum>
155

> <r_i_glide_eff_state_penalty>
0

> <s_user_duplicate_titles>
CHEMBL2061_lig547 

> <i_f3d_flags>
0

> <s_m_subgroup_title>
dock_pv

> <s_m_subgroupid>
dock_pv

> <b_m_subgroup_collapsed>
1

$$$$
CHEMBL2061_lig59
                    3D
 Schrodinger Suite 2021-1.
 49 52  0  0  1  0            999 V2000
   65.4467   46.2054   34.6022 C   0  0  0  0  0  0
   66.4703   45.4362   34.0832 C   0  0  0  0  0  0
   66.4295   45.0786   32.7475 C   0  0  0  0  0  0
   65.4299   45.4851   31.8937 C   0  0  0  0  0  0
   64.3561   46.5495   33.7843 C   0  0  0  0  0  0
   64.3034   46.1417   32.4283 C   0  0  0  0  0  0
   63.0872   46.3317   31.7173 C   0  0  0  0  0  0
   61.9188   46.6697   32.4445 C   0  0  0  0  0  0
   62.1191   47.1010   33.7709 C   0  0  0  0  0  0
   63.3326   47.1816   34.3597 N   0  0  0  0  0  0
   63.0346   46.0013   30.2878 C   0  0  0  0  0  0
   63.2074   44.6719   29.8922 C   0  0  0  0  0  0
   62.8596   44.2959   28.6135 C   0  0  0  0  0  0
   62.4080   45.2678   27.7390 C   0  0  0  0  0  0
   62.3438   46.6129   28.0750 C   0  0  0  0  0  0
   62.6611   46.9847   29.3697 C   0  0  0  0  0  0
   62.0080   44.8770   26.5390 F   0  0  0  0  0  0
   60.5253   46.4542   31.9252 C   0  0  0  0  0  0
   60.0859   45.7840   30.8339 C   0  0  0  0  0  0
   58.7090   45.6770   30.4075 C   0  0  0  0  0  0
   61.0318   47.2306   34.8239 C   0  0  0  0  0  0
   61.2080   46.4215   36.0651 C   0  0  0  0  0  0
   61.2413   47.9450   36.1390 C   0  0  0  0  0  0
   57.6533   45.5240   31.2259 C   0  0  0  0  0  0
   56.2766   45.5269   30.7710 C   0  0  0  0  0  0
   55.8483   46.2613   29.7210 C   0  0  0  0  0  0
   54.4701   46.3227   29.3390 C   0  0  0  0  0  0
   54.2115   47.3763   28.5168 O   0  0  0  0  0  0
   53.6080   45.5511   29.7390 O   0  0  0  0  0  0
   65.4387   46.4770   35.6465 H   0  0  0  0  0  0
   67.2933   45.1196   34.7071 H   0  0  0  0  0  0
   67.2080   44.4770   32.3394 H   0  0  0  0  0  0
   65.4813   45.1922   30.8569 H   0  0  0  0  0  0
   63.5025   43.9133   30.6028 H   0  0  0  0  0  0
   62.9097   43.2604   28.3093 H   0  0  0  0  0  0
   61.9986   47.3427   27.3579 H   0  0  0  0  0  0
   62.5347   48.0115   29.6826 H   0  0  0  0  0  0
   59.7393   46.8770   32.5111 H   0  0  0  0  0  0
   60.7566   45.2505   30.1943 H   0  0  0  0  0  0
   58.5345   45.7562   29.3438 H   0  0  0  0  0  0
   60.0166   47.2770   34.4504 H   0  0  0  0  0  0
   60.4080   45.8751   36.5326 H   0  0  0  0  0  0
   62.1271   45.8391   36.1390 H   0  0  0  0  0  0
   62.1878   48.4490   36.3373 H   0  0  0  0  0  0
   60.4080   48.4770   36.5934 H   0  0  0  0  0  0
   57.8287   45.4329   32.2888 H   0  0  0  0  0  0
   55.5768   44.9145   31.3242 H   0  0  0  0  0  0
   56.5330   46.8610   29.1388 H   0  0  0  0  0  0
   54.9919   47.9094   28.3528 H   0  0  0  0  0  0
  1  2  2  0  0  0
  1  5  1  0  0  0
  1 30  1  0  0  0
  2  3  1  0  0  0
  2 31  1  0  0  0
  3  4  2  0  0  0
  3 32  1  0  0  0
  4  6  1  0  0  0
  4 33  1  0  0  0
  5  6  1  0  0  0
  5 10  2  0  0  0
  6  7  2  0  0  0
  7  8  1  0  0  0
  7 11  1  0  0  0
  8  9  2  0  0  0
  8 18  1  0  0  0
  9 10  1  0  0  0
  9 21  1  0  0  0
 11 12  2  0  0  0
 11 16  1  0  0  0
 12 13  1  0  0  0
 12 34  1  0  0  0
 13 14  2  0  0  0
 13 35  1  0  0  0
 14 15  1  0  0  0
 14 17  1  0  0  0
 15 16  2  0  0  0
 15 36  1  0  0  0
 16 37  1  0  0  0
 18 19  2  0  0  0
 18 38  1  0  0  0
 19 20  1  0  0  0
 19 39  1  0  0  0
 20 24  2  0  0  0
 20 40  1  0  0  0
 21 22  1  0  0  0
 21 23  1  0  0  0
 21 41  1  0  0  0
 22 23  1  0  0  0
 22 42  1  0  0  0
 22 43  1  0  0  0
 23 44  1  0  0  0
 23 45  1  0  0  0
 24 25  1  0  0  0
 24 46  1  0  0  0
 25 26  2  0  0  0
 25 47  1  0  0  0
 26 27  1  0  0  0
 26 48  1  0  0  0
 27 28  1  0  0  0
 27 29  2  0  0  0
 28 49  1  0  0  0
M  END
> <s_m_entry_id>
31209

> <s_m_entry_name>
dock_pv.422

> <s_m_Source_Path>
/home/csk/Desktop/cluster/DUD-E-result/rxra

> <s_m_Source_File>
dock_pv.maegz

> <i_m_Source_File_Index>
422

> <chembl_id>
CHEMBL4061160

> <chembl_pref_name>
None

> <i_lp_mmshare_version>
53161

> <r_lp_tautomer_probability>
1

> <s_lp_Force_Field>
OPLS_2005

> <r_lp_Energy>
29.357176

> <b_lp_Chiralities_Consistent>
1

> <s_lp_Variant>
CHEMBL2061_lig59-1

> <s_i_glide_gridfile>
glide-grid_1mv9

> <i_i_glide_lignum>
83

> <i_i_glide_rotatable_bonds>
7

> <r_i_docking_score>
-8.64269715025871

> <r_i_glide_ligand_efficiency>
-0.298024039664094

> <r_i_glide_ligand_efficiency_sa>
-0.915624270491135

> <r_i_glide_ligand_efficiency_ln>
-1.97895848751915

> <r_i_glide_gscore>
-8.64269715025871

> <r_i_glide_lipo>
-5.90039313900397

> <r_i_glide_hbond>
-0.130490696013727

> <r_i_glide_metal>
0

> <r_i_glide_rewards>
-1.60629836153566

> <r_i_glide_evdw>
-24.4437618255615

> <r_i_glide_ecoul>
-3.58669853210449

> <r_i_glide_erotb>
0.785678369549701

> <r_i_glide_esite>
-0.0310004521612992

> <r_i_glide_emodel>
-31.7302302012722

> <r_i_glide_energy>
-28.030460357666

> <r_i_glide_einternal>
8.98452281951904

> <i_i_glide_confnum>
12

> <i_i_glide_posenum>
341

> <r_i_glide_eff_state_penalty>
0

> <s_user_duplicate_titles>
CHEMBL2061_lig59

> <i_f3d_flags>
0

> <s_m_subgroup_title>
dock_pv

> <s_m_subgroupid>
dock_pv

> <b_m_subgroup_collapsed>
1

$$$$
CHEMBL2061_lig120
                    3D
 Schrodinger Suite 2021-1.
 64 64  0  0  1  0            999 V2000
   63.6791   45.7577   30.2829 C   0  0  0  0  0  0
   62.7168   46.7817   30.1419 C   0  0  0  0  0  0
   64.2262   45.4622   31.5611 C   0  0  0  0  0  0
   62.6976   47.0639   32.5662 C   0  0  0  0  0  0
   62.2070   47.3731   31.2938 C   0  0  0  0  0  0
   63.7030   46.1221   32.6707 C   0  0  0  0  0  0
   64.0782   45.0638   29.1609 O   0  0  0  0  0  0
   62.2108   47.2716   28.8204 C   0  0  0  0  0  0
   56.1933   46.1834   28.9549 C   0  0  0  0  0  0
   65.3585   44.4306   31.7971 C   0  0  0  0  0  0
   54.9252   45.7608   29.4856 C   0  0  0  0  0  0
   62.1428   47.7401   33.8264 C   0  0  0  0  0  0
   59.7977   46.7551   29.2501 C   0  0  0  0  0  0
   57.4238   46.0160   29.5069 C   0  0  0  0  0  0
   60.9023   47.2813   28.4621 C   0  0  0  0  0  0
   58.5553   46.5751   28.7661 C   0  0  0  0  0  0
   53.9169   46.4574   29.4144 O   0  0  0  0  0  0
   62.0082   44.0021   28.3741 C   0  0  0  0  0  0
   63.4152   43.8194   28.8866 C   0  0  0  0  0  0
   54.9357   44.5033   30.0076 O   0  0  0  0  0  0
   61.2138   44.4609   29.3356 F   0  0  0  0  0  0
   61.9963   44.8022   27.3073 F   0  0  0  0  0  0
   63.2560   47.8212   27.8568 C   0  0  0  0  0  0
   66.0279   44.5554   33.2034 C   0  0  0  0  0  0
   66.4926   44.6689   30.7471 C   0  0  0  0  0  0
   64.7087   43.0060   31.7698 C   0  0  0  0  0  0
   62.0083   49.2576   33.5501 C   0  0  0  0  0  0
   63.0523   47.6397   35.0892 C   0  0  0  0  0  0
   60.8129   47.0310   34.1845 C   0  0  0  0  0  0
   57.6620   45.3319   30.8608 C   0  0  0  0  0  0
   61.4176   48.0969   31.1739 H   0  0  0  0  0  0
   64.0605   45.8972   33.6534 H   0  0  0  0  0  0
   56.0574   46.7100   28.0232 H   0  0  0  0  0  0
   59.9981   46.4743   30.2709 H   0  0  0  0  0  0
   60.6565   47.6931   27.4939 H   0  0  0  0  0  0
   58.4086   46.8677   27.7369 H   0  0  0  0  0  0
   61.6084   43.0346   28.0847 H   0  0  0  0  0  0
   63.9746   43.2463   28.1452 H   0  0  0  0  0  0
   63.3213   43.1734   29.7441 H   0  0  0  0  0  0
   55.8104   44.1098   29.9135 H   0  0  0  0  0  0
   63.5327   48.8351   28.1361 H   0  0  0  0  0  0
   64.1556   47.2050   27.8351 H   0  0  0  0  0  0
   62.8712   47.8760   26.8347 H   0  0  0  0  0  0
   65.3351   44.3522   34.0199 H   0  0  0  0  0  0
   66.7944   43.8083   33.3514 H   0  0  0  0  0  0
   66.4815   45.5349   33.3687 H   0  0  0  0  0  0
   66.1960   44.4557   29.7343 H   0  0  0  0  0  0
   66.8015   45.7095   30.7981 H   0  0  0  0  0  0
   67.4040   44.0812   30.8682 H   0  0  0  0  0  0
   64.9294   42.4658   30.8500 H   0  0  0  0  0  0
   65.0174   42.3336   32.5749 H   0  0  0  0  0  0
   63.6263   43.0476   31.8912 H   0  0  0  0  0  0
   61.7769   49.5510   32.5338 H   0  0  0  0  0  0
   61.2088   49.6808   34.1390 H   0  0  0  0  0  0
   62.9532   49.7835   33.7457 H   0  0  0  0  0  0
   63.1353   46.6216   35.4748 H   0  0  0  0  0  0
   64.0614   48.0032   34.8870 H   0  0  0  0  0  0
   62.6574   48.2405   35.9110 H   0  0  0  0  0  0
   60.9946   46.0355   34.5871 H   0  0  0  0  0  0
   60.2619   47.5873   34.9444 H   0  0  0  0  0  0
   60.1609   46.8805   33.3236 H   0  0  0  0  0  0
   58.1482   44.3673   30.7118 H   0  0  0  0  0  0
   58.3379   45.9232   31.4750 H   0  0  0  0  0  0
   56.7723   45.2115   31.4806 H   0  0  0  0  0  0
  1  2  1  0  0  0
  1  3  2  0  0  0
  1  7  1  0  0  0
  2  5  2  0  0  0
  2  8  1  0  0  0
  3  6  1  0  0  0
  3 10  1  0  0  0
  4  6  2  0  0  0
  4 12  1  0  0  0
  4  5  1  0  0  0
  5 31  1  0  0  0
  6 32  1  0  0  0
  7 19  1  0  0  0
  8 15  2  0  0  0
  8 23  1  0  0  0
  9 14  2  0  0  0
  9 11  1  0  0  0
  9 33  1  0  0  0
 10 24  1  0  0  0
 10 25  1  0  0  0
 10 26  1  0  0  0
 11 17  2  0  0  0
 11 20  1  0  0  0
 12 27  1  0  0  0
 12 28  1  0  0  0
 12 29  1  0  0  0
 13 15  1  0  0  0
 13 16  2  0  0  0
 13 34  1  0  0  0
 14 16  1  0  0  0
 14 30  1  0  0  0
 15 35  1  0  0  0
 16 36  1  0  0  0
 18 19  1  0  0  0
 18 21  1  0  0  0
 18 22  1  0  0  0
 18 37  1  0  0  0
 19 38  1  0  0  0
 19 39  1  0  0  0
 20 40  1  0  0  0
 23 41  1  0  0  0
 23 42  1  0  0  0
 23 43  1  0  0  0
 24 44  1  0  0  0
 24 45  1  0  0  0
 24 46  1  0  0  0
 25 47  1  0  0  0
 25 48  1  0  0  0
 25 49  1  0  0  0
 26 50  1  0  0  0
 26 51  1  0  0  0
 26 52  1  0  0  0
 27 53  1  0  0  0
 27 54  1  0  0  0
 27 55  1  0  0  0
 28 56  1  0  0  0
 28 57  1  0  0  0
 28 58  1  0  0  0
 29 59  1  0  0  0
 29 60  1  0  0  0
 29 61  1  0  0  0
 30 62  1  0  0  0
 30 63  1  0  0  0
 30 64  1  0  0  0
M  END
> <s_m_entry_id>
31210

> <s_m_entry_name>
dock_pv.423

> <s_m_Source_Path>
/home/csk/Desktop/cluster/DUD-E-result/rxra

> <s_m_Source_File>
dock_pv.maegz

> <i_m_Source_File_Index>
423

> <chembl_id>
CHEMBL42314

> <chembl_pref_name>
None

> <i_lp_mmshare_version>
53161

> <r_lp_tautomer_probability>
1

> <s_lp_Force_Field>
OPLS_2005

> <r_lp_Energy>
35.842339

> <b_lp_Chiralities_Consistent>
1

> <s_lp_Variant>
CHEMBL2061_lig120-1

> <s_i_glide_gridfile>
glide-grid_1mv9

> <i_i_glide_lignum>
159

> <i_i_glide_rotatable_bonds>
10

> <r_i_docking_score>
-8.64234287247609

> <r_i_glide_ligand_efficiency>
-0.288078095749203

> <r_i_glide_ligand_efficiency_sa>
-0.895125622350379

> <r_i_glide_ligand_efficiency_ln>
-1.96363446649426

> <r_i_glide_gscore>
-8.64234287247609

> <r_i_glide_lipo>
-5.63810014326809

> <r_i_glide_hbond>
-0.145150022880629

> <r_i_glide_metal>
0

> <r_i_glide_rewards>
-1.72081067271171

> <r_i_glide_evdw>
-24.8954334259033

> <r_i_glide_ecoul>
-3.76698279380798

> <r_i_glide_erotb>
0.671537056750704

> <r_i_glide_esite>
0

> <r_i_glide_emodel>
-52.0553759345003

> <r_i_glide_energy>
-28.6624162197113

> <r_i_glide_einternal>
3.56285810470581

> <i_i_glide_confnum>
65

> <i_i_glide_posenum>
148

> <r_i_glide_eff_state_penalty>
0

> <s_user_duplicate_titles>
CHEMBL2061_lig120,61070

> <i_f3d_flags>
0

> <s_m_subgroup_title>
dock_pv

> <s_m_subgroupid>
dock_pv

> <b_m_subgroup_collapsed>
1

$$$$
CHEMBL2061_lig80 
                    3D
 Schrodinger Suite 2021-1.
 46 49  0  0  1  0            999 V2000
   61.8845   47.5341   27.5055 C   0  0  0  0  0  0
   62.6384   47.9178   28.6075 C   0  0  0  0  0  0
   62.2122   47.6065   29.9042 C   0  0  0  0  0  0
   60.6986   46.8354   27.6958 C   0  0  0  0  0  0
   60.2823   46.5191   28.9914 C   0  0  0  0  0  0
   61.0302   46.8774   30.0943 C   0  0  0  0  0  0
   60.2762   46.4045   31.2787 C   0  0  0  0  0  0
   59.0700   45.7788   30.8041 C   0  0  0  0  0  0
   59.0964   45.8333   29.4708 C   0  0  0  0  0  0
   58.0080   45.0826   31.6508 C   0  0  0  0  0  0
   58.0681   45.3266   28.5390 C   0  0  0  0  0  0
   56.8775   46.2616   28.4913 C   0  0  0  0  0  0
   55.6766   45.7301   29.1575 C   0  0  0  0  0  0
   54.5510   46.4762   29.1706 N   0  0  0  0  0  0
   53.6077   45.7711   29.7391 N   0  0  0  0  0  0
   54.1748   44.5849   30.1392 N   0  0  0  0  0  0
   55.4939   44.5691   29.7387 N   0  0  0  0  0  0
   60.5649   46.4776   32.5819 C   0  0  0  0  0  0
   61.8315   46.7434   33.1933 C   0  0  0  0  0  0
   61.8617   47.2775   34.4796 C   0  0  0  0  0  0
   62.9866   47.0596   35.2499 C   0  0  0  0  0  0
   64.0248   46.3229   34.6961 C   0  0  0  0  0  0
   64.0624   45.9430   33.3646 C   0  0  0  0  0  0
   62.9486   46.1582   32.6032 C   0  0  0  0  0  0
   65.2080   45.6770   35.7390 S   0  0  0  0  0  0
   66.7218   45.5943   34.7086 C   0  0  0  0  0  0
   62.2157   47.7867   26.5100 H   0  0  0  0  0  0
   63.5464   48.4737   28.4419 H   0  0  0  0  0  0
   62.8012   47.9581   30.7374 H   0  0  0  0  0  0
   60.1193   46.5544   26.8314 H   0  0  0  0  0  0
   58.3808   44.7938   32.6313 H   0  0  0  0  0  0
   57.1432   45.7298   31.7943 H   0  0  0  0  0  0
   57.6815   44.1585   31.1759 H   0  0  0  0  0  0
   58.5076   45.2770   27.5503 H   0  0  0  0  0  0
   57.8271   44.3213   28.8886 H   0  0  0  0  0  0
   57.1251   47.2280   28.9390 H   0  0  0  0  0  0
   56.5909   46.4466   27.4586 H   0  0  0  0  0  0
   54.4251   47.3957   28.7719 H   0  0  0  0  0  0
   59.8085   46.1897   33.2951 H   0  0  0  0  0  0
   60.9840   47.7148   34.9339 H   0  0  0  0  0  0
   63.0015   47.3538   36.2889 H   0  0  0  0  0  0
   64.8655   45.3565   32.9461 H   0  0  0  0  0  0
   62.9111   45.6992   31.6264 H   0  0  0  0  0  0
   67.6323   45.6770   35.3007 H   0  0  0  0  0  0
   66.7443   46.4109   33.9868 H   0  0  0  0  0  0
   66.7581   44.6511   34.1643 H   0  0  0  0  0  0
  1  2  2  0  0  0
  1  4  1  0  0  0
  1 27  1  0  0  0
  2  3  1  0  0  0
  2 28  1  0  0  0
  3  6  2  0  0  0
  3 29  1  0  0  0
  4  5  2  0  0  0
  4 30  1  0  0  0
  5  6  1  0  0  0
  5  9  1  0  0  0
  6  7  1  0  0  0
  7  8  1  0  0  0
  7 18  2  0  0  0
  8  9  2  0  0  0
  8 10  1  0  0  0
  9 11  1  0  0  0
 10 31  1  0  0  0
 10 32  1  0  0  0
 10 33  1  0  0  0
 11 12  1  0  0  0
 11 34  1  0  0  0
 11 35  1  0  0  0
 12 13  1  0  0  0
 12 36  1  0  0  0
 12 37  1  0  0  0
 13 14  1  0  0  0
 13 17  2  0  0  0
 14 15  1  0  0  0
 14 38  1  0  0  0
 15 16  2  0  0  0
 16 17  1  0  0  0
 18 19  1  0  0  0
 18 39  1  0  0  0
 19 20  2  0  0  0
 19 24  1  0  0  0
 20 21  1  0  0  0
 20 40  1  0  0  0
 21 22  2  0  0  0
 21 41  1  0  0  0
 22 23  1  0  0  0
 22 25  1  0  0  0
 23 24  2  0  0  0
 23 42  1  0  0  0
 24 43  1  0  0  0
 25 26  1  0  0  0
 26 44  1  0  0  0
 26 45  1  0  0  0
 26 46  1  0  0  0
M  END
> <s_m_entry_id>
31211

> <s_m_entry_name>
dock_pv.424

> <s_m_Source_Path>
/home/csk/Desktop/cluster/DUD-E-result/rxra

> <s_m_Source_File>
dock_pv.maegz

> <i_m_Source_File_Index>
424

> <chembl_id>
CHEMBL4458119

> <chembl_pref_name>
None

> <i_lp_mmshare_version>
53161

> <r_lp_tautomer_probability>
0.3

> <s_lp_Force_Field>
OPLS_2005

> <r_lp_Energy>
40.350654

> <b_lp_Chiralities_Consistent>
1

> <s_lp_Variant>
CHEMBL2061_lig80 -1

> <s_i_glide_gridfile>
glide-grid_1mv9

> <i_i_glide_lignum>
109

> <i_i_glide_rotatable_bonds>
5

> <r_i_docking_score>
-8.62920672957275

> <r_i_glide_ligand_efficiency>
-0.331892566522029

> <r_i_glide_ligand_efficiency_sa>
-0.983230422387322

> <r_i_glide_ligand_efficiency_ln>
-2.02654088570343

> <r_i_glide_gscore>
-8.62920672957275

> <r_i_glide_lipo>
-5.31898933579253

> <r_i_glide_hbond>
0

> <r_i_glide_metal>
0

> <r_i_glide_rewards>
-2.27035939501176

> <r_i_glide_evdw>
-28.0220603942871

> <r_i_glide_ecoul>
-0.672966301441193

> <r_i_glide_erotb>
0.59039419181314

> <r_i_glide_esite>
-0.128204225651064

> <r_i_glide_emodel>
-38.5821062621969

> <r_i_glide_energy>
-28.6950266957283

> <r_i_glide_einternal>
5.30515432357788

> <i_i_glide_confnum>
1

> <i_i_glide_posenum>
398

> <r_i_glide_eff_state_penalty>
0

> <s_user_duplicate_titles>
CHEMBL2061_lig80 ,CHEMBL2061_lig80 

> <i_f3d_flags>
0

> <s_m_subgroup_title>
dock_pv

> <s_m_subgroupid>
dock_pv

> <b_m_subgroup_collapsed>
1

$$$$
CHEMBL2061_lig319
                    3D
 Schrodinger Suite 2021-1.
 47 48  0  0  1  0            999 V2000
   63.7728   46.4763   32.4933 C   0  0  0  0  0  0
   62.6313   46.6012   31.6919 C   0  0  0  0  0  0
   62.6118   46.2402   30.3343 C   0  0  0  0  0  0
   63.7374   46.7596   34.0100 C   0  0  0  0  0  0
   61.3408   46.2657   29.5599 C   0  0  0  0  0  0
   55.9287   46.6296   29.2836 C   0  0  0  0  0  0
   54.5573   46.8769   28.9268 C   0  0  0  0  0  0
   64.9413   45.9882   31.8718 C   0  0  0  0  0  0
   58.8375   45.9487   29.6446 C   0  0  0  0  0  0
   56.3911   45.6178   30.0566 C   0  0  0  0  0  0
   60.1819   45.9567   30.1858 C   0  0  0  0  0  0
   66.1528   45.8556   32.5190 O   0  0  0  0  0  0
   57.7961   45.6018   30.4257 C   0  0  0  0  0  0
   63.7954   45.7649   29.7593 C   0  0  0  0  0  0
   53.6069   46.2423   29.3501 O   0  0  0  0  0  0
   64.9532   45.6466   30.5225 C   0  0  0  0  0  0
   54.4080   47.9787   28.1443 O   0  0  0  0  0  0
   66.0656   45.6525   33.9255 C   0  0  0  0  0  0
   65.1893   46.7495   34.5541 C   0  0  0  0  0  0
   63.1094   48.1366   34.3169 C   0  0  0  0  0  0
   62.9430   45.6380   34.6977 C   0  0  0  0  0  0
   61.4318   46.6838   28.0943 C   0  0  0  0  0  0
   55.5265   44.4772   30.5652 C   0  0  0  0  0  0
   61.7271   46.9637   32.1566 H   0  0  0  0  0  0
   56.6273   47.3690   28.9390 H   0  0  0  0  0  0
   58.6584   46.2334   28.6189 H   0  0  0  0  0  0
   60.2509   45.6795   31.2265 H   0  0  0  0  0  0
   58.0089   45.2990   31.4421 H   0  0  0  0  0  0
   63.8249   45.4609   28.7235 H   0  0  0  0  0  0
   65.8624   45.2802   30.0673 H   0  0  0  0  0  0
   55.2356   48.4434   28.0163 H   0  0  0  0  0  0
   65.6517   44.6647   34.1356 H   0  0  0  0  0  0
   67.0709   45.6783   34.3482 H   0  0  0  0  0  0
   65.1833   46.6264   35.6369 H   0  0  0  0  0  0
   65.6634   47.7091   34.3479 H   0  0  0  0  0  0
   63.2090   48.3962   35.3719 H   0  0  0  0  0  0
   63.5809   48.9235   33.7413 H   0  0  0  0  0  0
   62.0449   48.1633   34.0840 H   0  0  0  0  0  0
   62.9736   45.7274   35.7843 H   0  0  0  0  0  0
   61.8923   45.6772   34.4065 H   0  0  0  0  0  0
   63.3239   44.6503   34.4362 H   0  0  0  0  0  0
   62.0596   47.5695   27.9899 H   0  0  0  0  0  0
   61.8656   45.8799   27.4991 H   0  0  0  0  0  0
   60.4646   46.9202   27.6551 H   0  0  0  0  0  0
   56.1417   43.6636   30.9396 H   0  0  0  0  0  0
   54.8406   44.8214   31.3384 H   0  0  0  0  0  0
   54.9235   44.0773   29.7498 H   0  0  0  0  0  0
  1  2  1  0  0  0
  1  4  1  0  0  0
  1  8  2  0  0  0
  2  3  2  0  0  0
  2 24  1  0  0  0
  3  5  1  0  0  0
  3 14  1  0  0  0
  4 19  1  0  0  0
  4 20  1  0  0  0
  4 21  1  0  0  0
  5 11  2  0  0  0
  5 22  1  0  0  0
  6 10  2  0  0  0
  6  7  1  0  0  0
  6 25  1  0  0  0
  7 15  2  0  0  0
  7 17  1  0  0  0
  8 12  1  0  0  0
  8 16  1  0  0  0
  9 11  1  0  0  0
  9 13  2  0  0  0
  9 26  1  0  0  0
 10 13  1  0  0  0
 10 23  1  0  0  0
 11 27  1  0  0  0
 12 18  1  0  0  0
 13 28  1  0  0  0
 14 16  2  0  0  0
 14 29  1  0  0  0
 16 30  1  0  0  0
 17 31  1  0  0  0
 18 19  1  0  0  0
 18 32  1  0  0  0
 18 33  1  0  0  0
 19 34  1  0  0  0
 19 35  1  0  0  0
 20 36  1  0  0  0
 20 37  1  0  0  0
 20 38  1  0  0  0
 21 39  1  0  0  0
 21 40  1  0  0  0
 21 41  1  0  0  0
 22 42  1  0  0  0
 22 43  1  0  0  0
 22 44  1  0  0  0
 23 45  1  0  0  0
 23 46  1  0  0  0
 23 47  1  0  0  0
M  END
> <s_m_entry_id>
31212

> <s_m_entry_name>
dock_pv.425

> <s_m_Source_Path>
/home/csk/Desktop/cluster/DUD-E-result/rxra

> <s_m_Source_File>
dock_pv.maegz

> <i_m_Source_File_Index>
425

> <chembl_id>
CHEMBL35136

> <chembl_pref_name>
None

> <i_lp_mmshare_version>
53161

> <r_lp_tautomer_probability>
1

> <s_lp_Force_Field>
OPLS_2005

> <r_lp_Energy>
26.061788

> <b_lp_Chiralities_Consistent>
1

> <s_lp_Variant>
CHEMBL2061_lig319-1

> <s_i_glide_gridfile>
glide-grid_1mv9

> <i_i_glide_lignum>
367

> <i_i_glide_rotatable_bonds>
5

> <r_i_docking_score>
-8.61074979005041

> <r_i_glide_ligand_efficiency>
-0.374380425654366

> <r_i_glide_ligand_efficiency_sa>
-1.06468812930845

> <r_i_glide_ligand_efficiency_ln>
-2.08215737719652

> <r_i_glide_gscore>
-8.61074979005041

> <r_i_glide_lipo>
-4.85982347467991

> <r_i_glide_hbond>
-0.207206694540476

> <r_i_glide_metal>
0

> <r_i_glide_rewards>
-2.09728822451457

> <r_i_glide_evdw>
-34.0770606994629

> <r_i_glide_ecoul>
-3.35491156578064

> <r_i_glide_erotb>
0.760658373524793

> <r_i_glide_esite>
0

> <r_i_glide_emodel>
-50.8486523394047

> <r_i_glide_energy>
-37.4319722652435

> <r_i_glide_einternal>
3.89543986320496

> <i_i_glide_confnum>
104

> <i_i_glide_posenum>
196

> <r_i_glide_eff_state_penalty>
0

> <s_user_duplicate_titles>
CHEMBL2061_lig319

> <i_f3d_flags>
0

> <s_m_subgroup_title>
dock_pv

> <s_m_subgroupid>
dock_pv

> <b_m_subgroup_collapsed>
1

$$$$
CHEMBL2061_lig469
                    3D
 Schrodinger Suite 2021-1.
 55 56  0  0  1  0            999 V2000
   64.1805   45.8945   30.8864 C   0  0  0  0  0  0
   63.0940   46.5174   31.5232 C   0  0  0  0  0  0
   61.8828   46.6810   30.8341 C   0  0  0  0  0  0
   61.7260   46.1907   29.5290 C   0  0  0  0  0  0
   62.8238   45.5782   28.9126 C   0  0  0  0  0  0
   64.0362   45.4490   29.5725 C   0  0  0  0  0  0
   65.4573   45.4819   31.6306 C   0  0  0  0  0  0
   65.2080   44.0775   32.1881 C   0  0  0  0  0  0
   66.0057   46.4386   32.7167 C   0  0  0  0  0  0
   63.2879   46.9720   32.8030 O   0  0  0  0  0  0
   60.5073   46.2961   28.8146 N   0  0  0  0  0  0
   59.1773   46.0185   29.2495 C   0  0  0  0  0  0
   60.6686   46.9259   27.4882 C   0  0  0  0  0  0
   60.4989   48.4426   27.5721 C   0  0  0  0  0  0
   58.1638   46.0771   28.3405 N   0  0  0  0  0  0
   56.8906   45.8103   28.7135 C   0  0  0  0  0  0
   56.5497   45.4320   30.0111 C   0  0  0  0  0  0
   57.5927   45.2777   30.9304 C   0  0  0  0  0  0
   58.8955   45.6133   30.5575 C   0  0  0  0  0  0
   55.1210   45.2162   30.4154 C   0  0  0  0  0  0
   54.8080   44.4754   31.3389 O   0  0  0  0  0  0
   54.2163   45.9764   29.7329 O   0  0  0  0  0  0
   62.2587   46.9245   33.7697 C   0  0  0  0  0  0
   62.9442   47.0328   35.1196 C   0  0  0  0  0  0
   63.6616   46.0686   35.7365 C   0  0  0  0  0  0
   63.8422   44.6530   35.2345 C   0  0  0  0  0  0
   64.4088   46.3181   37.0165 C   0  0  0  0  0  0
   61.0723   47.2056   31.3137 H   0  0  0  0  0  0
   62.7375   45.1605   27.9206 H   0  0  0  0  0  0
   64.8464   44.9347   29.0769 H   0  0  0  0  0  0
   66.2554   45.4084   30.8886 H   0  0  0  0  0  0
   65.2072   43.3563   31.3729 H   0  0  0  0  0  0
   65.9453   43.7868   32.9391 H   0  0  0  0  0  0
   64.2243   43.9827   32.6332 H   0  0  0  0  0  0
   65.9286   47.4824   32.4318 H   0  0  0  0  0  0
   65.4778   46.3355   33.6611 H   0  0  0  0  0  0
   67.0528   46.2307   32.9379 H   0  0  0  0  0  0
   61.6409   46.7359   27.0355 H   0  0  0  0  0  0
   59.9680   46.5055   26.7706 H   0  0  0  0  0  0
   60.4081   48.8752   26.5787 H   0  0  0  0  0  0
   59.6083   48.7162   28.1391 H   0  0  0  0  0  0
   61.3651   48.8870   28.0615 H   0  0  0  0  0  0
   56.1563   45.8988   27.9252 H   0  0  0  0  0  0
   57.4003   44.9855   31.9514 H   0  0  0  0  0  0
   59.6619   45.5682   31.3059 H   0  0  0  0  0  0
   54.6576   46.5511   29.1048 H   0  0  0  0  0  0
   61.6534   46.0193   33.7044 H   0  0  0  0  0  0
   61.6076   47.7861   33.6397 H   0  0  0  0  0  0
   62.8654   48.0031   35.5880 H   0  0  0  0  0  0
   64.8793   44.4844   34.9485 H   0  0  0  0  0  0
   63.2081   44.4579   34.3784 H   0  0  0  0  0  0
   63.6005   43.9290   36.0124 H   0  0  0  0  0  0
   65.4626   46.0770   36.8864 H   0  0  0  0  0  0
   64.3349   47.3559   37.3374 H   0  0  0  0  0  0
   64.0195   45.6705   37.7992 H   0  0  0  0  0  0
  1  2  2  0  0  0
  1  7  1  0  0  0
  1  6  1  0  0  0
  2 10  1  0  0  0
  2  3  1  0  0  0
  3  4  2  0  0  0
  3 28  1  0  0  0
  4  5  1  0  0  0
  4 11  1  0  0  0
  5  6  2  0  0  0
  5 29  1  0  0  0
  6 30  1  0  0  0
  7  8  1  0  0  0
  7  9  1  0  0  0
  7 31  1  0  0  0
  8 32  1  0  0  0
  8 33  1  0  0  0
  8 34  1  0  0  0
  9 35  1  0  0  0
  9 36  1  0  0  0
  9 37  1  0  0  0
 10 23  1  0  0  0
 11 12  1  0  0  0
 11 13  1  0  0  0
 12 15  2  0  0  0
 12 19  1  0  0  0
 13 14  1  0  0  0
 13 38  1  0  0  0
 13 39  1  0  0  0
 14 40  1  0  0  0
 14 41  1  0  0  0
 14 42  1  0  0  0
 15 16  1  0  0  0
 16 17  2  0  0  0
 16 43  1  0  0  0
 17 18  1  0  0  0
 17 20  1  0  0  0
 18 19  2  0  0  0
 18 44  1  0  0  0
 19 45  1  0  0  0
 20 21  2  0  0  0
 20 22  1  0  0  0
 22 46  1  0  0  0
 23 24  1  0  0  0
 23 47  1  0  0  0
 23 48  1  0  0  0
 24 25  2  0  0  0
 24 49  1  0  0  0
 25 26  1  0  0  0
 25 27  1  0  0  0
 26 50  1  0  0  0
 26 51  1  0  0  0
 26 52  1  0  0  0
 27 53  1  0  0  0
 27 54  1  0  0  0
 27 55  1  0  0  0
M  END
> <s_m_entry_id>
31213

> <s_m_entry_name>
dock_pv.426

> <s_m_Source_Path>
/home/csk/Desktop/cluster/DUD-E-result/rxra

> <s_m_Source_File>
dock_pv.maegz

> <i_m_Source_File_Index>
426

> <chembl_id>
CHEMBL1688386

> <chembl_pref_name>
None

> <i_lp_mmshare_version>
53161

> <r_lp_tautomer_probability>
1

> <s_lp_Force_Field>
OPLS_2005

> <r_lp_Energy>
21.120926

> <b_lp_Chiralities_Consistent>
1

> <s_lp_Variant>
CHEMBL2061_lig469-1

> <s_i_glide_gridfile>
glide-grid_1mv9

> <i_i_glide_lignum>
558

> <i_i_glide_rotatable_bonds>
9

> <r_i_docking_score>
-8.60367521451552

> <r_i_glide_ligand_efficiency>
-0.318654637574649

> <r_i_glide_ligand_efficiency_sa>
-0.955963911673713

> <r_i_glide_ligand_efficiency_ln>
-2.00279374726769

> <r_i_glide_gscore>
-8.60367521451552

> <r_i_glide_lipo>
-5.91106966344173

> <r_i_glide_hbond>
-0.133111569451694

> <r_i_glide_metal>
0

> <r_i_glide_rewards>
-0.828749539728316

> <r_i_glide_evdw>
-41.9872627258301

> <r_i_glide_ecoul>
-3.21986484527588

> <r_i_glide_erotb>
0.85159842118911

> <r_i_glide_esite>
0

> <r_i_glide_emodel>
-58.0896505178215

> <r_i_glide_energy>
-45.207127571106

> <r_i_glide_einternal>
12.5542516708374

> <i_i_glide_confnum>
37

> <i_i_glide_posenum>
60

> <r_i_glide_eff_state_penalty>
0

> <s_user_duplicate_titles>
CHEMBL2061_lig469

> <i_f3d_flags>
0

> <s_m_subgroup_title>
dock_pv

> <s_m_subgroupid>
dock_pv

> <b_m_subgroup_collapsed>
1

$$$$
CHEMBL2061_lig78 
                    3D
 Schrodinger Suite 2021-1.
 48 52  0  0  1  0            999 V2000
   58.7302   45.5389   33.2182 C   0  0  0  0  0  0
   59.9305   45.7155   33.8840 C   0  0  0  0  0  0
   61.0640   46.0770   33.1910 C   0  0  0  0  0  0
   58.6863   45.6770   31.8407 C   0  0  0  0  0  0
   59.8418   46.0770   31.1489 C   0  0  0  0  0  0
   61.0446   46.2722   31.8086 C   0  0  0  0  0  0
   62.0685   46.6009   30.8006 C   0  0  0  0  0  0
   61.3179   46.8147   29.5598 C   0  0  0  0  0  0
   60.0101   46.5575   29.7867 C   0  0  0  0  0  0
   61.8969   47.3546   28.2591 C   0  0  0  0  0  0
   58.7849   46.7649   28.9168 C   0  0  0  0  0  0
   57.9179   45.5074   28.7658 C   0  0  0  0  0  0
   56.4394   45.6500   29.0868 C   0  0  0  0  0  0
   55.6067   46.5905   28.5463 N   0  0  0  0  0  0
   54.3884   46.4996   29.0737 N   0  0  0  0  0  0
   54.4691   45.4265   29.9391 N   0  0  0  0  0  0
   55.7579   44.8976   29.9199 N   0  0  0  0  0  0
   63.4176   46.6715   30.9309 C   0  0  0  0  0  0
   64.3040   46.4178   32.0906 C   0  0  0  0  0  0
   65.3997   45.5976   31.8195 C   0  0  0  0  0  0
   66.1916   45.0979   32.8396 C   0  0  0  0  0  0
   65.8764   45.3397   34.1640 C   0  0  0  0  0  0
   64.1123   46.8765   33.4371 C   0  0  0  0  0  0
   64.8264   46.2230   34.4896 C   0  0  0  0  0  0
   64.4673   46.4769   35.8338 C   0  0  0  0  0  0
   63.5430   47.4573   36.1385 C   0  0  0  0  0  0
   62.9117   48.1628   35.1338 C   0  0  0  0  0  0
   63.2077   47.9175   33.7995 C   0  0  0  0  0  0
   57.8379   45.2784   33.7563 H   0  0  0  0  0  0
   60.0101   45.5253   34.9390 H   0  0  0  0  0  0
   61.9447   45.9709   33.7786 H   0  0  0  0  0  0
   57.7298   45.5784   31.3666 H   0  0  0  0  0  0
   62.7601   47.9932   28.4474 H   0  0  0  0  0  0
   62.2106   46.5314   27.6163 H   0  0  0  0  0  0
   61.1720   47.9588   27.7141 H   0  0  0  0  0  0
   58.2034   47.5833   29.3389 H   0  0  0  0  0  0
   59.0981   47.1273   27.9377 H   0  0  0  0  0  0
   58.0577   45.2770   27.7380 H   0  0  0  0  0  0
   58.3374   44.6550   29.3058 H   0  0  0  0  0  0
   55.8658   47.2963   27.8738 H   0  0  0  0  0  0
   63.9667   46.8799   30.0265 H   0  0  0  0  0  0
   65.6205   45.2968   30.8048 H   0  0  0  0  0  0
   67.0341   44.4769   32.6013 H   0  0  0  0  0  0
   66.4568   44.8733   34.9416 H   0  0  0  0  0  0
   64.9799   45.9571   36.6309 H   0  0  0  0  0  0
   63.3225   47.6770   37.1665 H   0  0  0  0  0  0
   62.1548   48.8770   35.4019 H   0  0  0  0  0  0
   62.6780   48.4546   33.0261 H   0  0  0  0  0  0
  1  2  2  0  0  0
  1  4  1  0  0  0
  1 29  1  0  0  0
  2  3  1  0  0  0
  2 30  1  0  0  0
  3  6  2  0  0  0
  3 31  1  0  0  0
  4  5  2  0  0  0
  4 32  1  0  0  0
  5  6  1  0  0  0
  5  9  1  0  0  0
  6  7  1  0  0  0
  7  8  1  0  0  0
  7 18  2  0  0  0
  8  9  2  0  0  0
  8 10  1  0  0  0
  9 11  1  0  0  0
 10 33  1  0  0  0
 10 34  1  0  0  0
 10 35  1  0  0  0
 11 12  1  0  0  0
 11 36  1  0  0  0
 11 37  1  0  0  0
 12 13  1  0  0  0
 12 38  1  0  0  0
 12 39  1  0  0  0
 13 14  1  0  0  0
 13 17  2  0  0  0
 14 15  1  0  0  0
 14 40  1  0  0  0
 15 16  2  0  0  0
 16 17  1  0  0  0
 18 19  1  0  0  0
 18 41  1  0  0  0
 19 20  2  0  0  0
 19 23  1  0  0  0
 20 21  1  0  0  0
 20 42  1  0  0  0
 21 22  2  0  0  0
 21 43  1  0  0  0
 22 24  1  0  0  0
 22 44  1  0  0  0
 23 24  1  0  0  0
 23 28  2  0  0  0
 24 25  2  0  0  0
 25 26  1  0  0  0
 25 45  1  0  0  0
 26 27  2  0  0  0
 26 46  1  0  0  0
 27 28  1  0  0  0
 27 47  1  0  0  0
 28 48  1  0  0  0
M  END
> <s_m_entry_id>
31214

> <s_m_entry_name>
dock_pv.427

> <s_m_Source_Path>
/home/csk/Desktop/cluster/DUD-E-result/rxra

> <s_m_Source_File>
dock_pv.maegz

> <i_m_Source_File_Index>
427

> <chembl_id>
CHEMBL4450189

> <chembl_pref_name>
None

> <i_lp_mmshare_version>
53161

> <r_lp_tautomer_probability>
0.3

> <s_lp_Force_Field>
OPLS_2005

> <r_lp_Energy>
45.710244

> <b_lp_Chiralities_Consistent>
1

> <s_lp_Variant>
CHEMBL2061_lig78 -1

> <s_i_glide_gridfile>
glide-grid_1mv9

> <i_i_glide_lignum>
105

> <i_i_glide_rotatable_bonds>
4

> <r_i_docking_score>
-8.60173207552838

> <r_i_glide_ligand_efficiency>
-0.307204716983156

> <r_i_glide_ligand_efficiency_sa>
-0.932854454663083

> <r_i_glide_ligand_efficiency_ln>
-1.98553232086001

> <r_i_glide_gscore>
-8.60173207552838

> <r_i_glide_lipo>
-5.80884031985705

> <r_i_glide_hbond>
0

> <r_i_glide_metal>
0

> <r_i_glide_rewards>
-2.27425636363636

> <r_i_glide_evdw>
-19.232307434082

> <r_i_glide_ecoul>
0.199696272611618

> <r_i_glide_erotb>
0.43423675493982

> <r_i_glide_esite>
-0.0212112161624235

> <r_i_glide_emodel>
-19.3239630348603

> <r_i_glide_energy>
-19.0326111614704

> <r_i_glide_einternal>
7.98579597473145

> <i_i_glide_confnum>
1

> <i_i_glide_posenum>
98

> <r_i_glide_eff_state_penalty>
0

> <s_user_duplicate_titles>
CHEMBL2061_lig78 

> <i_f3d_flags>
0

> <s_m_subgroup_title>
dock_pv

> <s_m_subgroupid>
dock_pv

> <b_m_subgroup_collapsed>
1

$$$$
CHEMBL2061_lig481
                    3D
 Schrodinger Suite 2021-1.
 47 50  0  0  1  0            999 V2000
   64.4093   42.6235   30.6893 N   0  0  0  0  0  0
   64.5071   44.0331   30.9740 C   0  0  0  0  0  0
   64.6000   44.8617   29.6760 C   0  0  0  0  0  0
   64.1615   46.3301   29.7875 C   0  0  0  0  0  0
   62.7649   46.4831   30.2303 N   0  0  0  0  0  0
   61.8088   46.5735   29.2337 C   0  0  0  0  0  0
   62.0797   46.8154   28.0526 O   0  0  0  0  0  0
   60.3843   46.2904   29.7063 C   0  0  0  0  0  0
   59.3315   46.2826   28.7829 C   0  0  0  0  0  0
   58.0303   45.9664   29.1909 C   0  0  0  0  0  0
   57.0100   46.0763   28.2445 N   0  0  0  0  0  0
   55.7003   45.4492   28.3673 C   0  0  0  0  0  0
   54.7265   46.2234   29.2622 C   0  0  0  0  0  0
   54.0171   45.6805   30.1079 O   0  0  0  0  0  0
   54.6776   47.5462   28.9389 O   0  0  0  0  0  0
   57.7861   45.5947   30.5114 C   0  0  0  0  0  0
   58.8075   45.6769   31.4459 C   0  0  0  0  0  0
   60.0966   46.0771   31.0593 C   0  0  0  0  0  0
   61.1777   46.3483   32.0286 C   0  0  0  0  0  0
   62.4409   46.5030   31.5846 C   0  0  0  0  0  0
   63.3472   46.5371   32.7737 C   0  0  0  0  0  0
   64.7380   46.5162   32.9836 C   0  0  0  0  0  0
   65.2586   46.4780   34.2777 C   0  0  0  0  0  0
   64.4081   46.5021   35.3816 C   0  0  0  0  0  0
   63.0309   46.5501   35.1925 C   0  0  0  0  0  0
   62.5242   46.5400   33.8936 C   0  0  0  0  0  0
   61.1353   46.4749   33.4675 C   0  0  0  0  0  0
   60.1159   46.4387   34.1405 O   0  0  0  0  0  0
   65.2098   42.2991   30.1642 H   0  0  0  0  0  0
   64.3873   42.0876   31.5461 H   0  0  0  0  0  0
   65.3598   44.2263   31.6245 H   0  0  0  0  0  0
   63.6091   44.2579   31.5391 H   0  0  0  0  0  0
   64.0109   44.3949   28.8831 H   0  0  0  0  0  0
   65.6361   44.8771   29.3386 H   0  0  0  0  0  0
   64.3234   46.8038   28.8170 H   0  0  0  0  0  0
   64.8202   46.8770   30.4429 H   0  0  0  0  0  0
   59.5238   46.5211   27.7456 H   0  0  0  0  0  0
   57.3324   46.2502   27.3056 H   0  0  0  0  0  0
   55.7778   44.4095   28.6822 H   0  0  0  0  0  0
   55.3007   45.4815   27.3545 H   0  0  0  0  0  0
   55.4143   47.7711   28.3660 H   0  0  0  0  0  0
   56.7997   45.3200   30.8495 H   0  0  0  0  0  0
   58.5747   45.4661   32.4786 H   0  0  0  0  0  0
   65.4650   46.4892   32.1934 H   0  0  0  0  0  0
   66.3274   46.4373   34.4252 H   0  0  0  0  0  0
   64.8142   46.4796   36.3828 H   0  0  0  0  0  0
   62.3718   46.5558   36.0483 H   0  0  0  0  0  0
  1  2  1  0  0  0
  1 29  1  0  0  0
  1 30  1  0  0  0
  2  3  1  0  0  0
  2 31  1  0  0  0
  2 32  1  0  0  0
  3  4  1  0  0  0
  3 33  1  0  0  0
  3 34  1  0  0  0
  4  5  1  0  0  0
  4 35  1  0  0  0
  4 36  1  0  0  0
  5  6  1  0  0  0
  5 20  1  0  0  0
  6  7  2  0  0  0
  6  8  1  0  0  0
  8  9  2  0  0  0
  8 18  1  0  0  0
  9 10  1  0  0  0
  9 37  1  0  0  0
 10 11  1  0  0  0
 10 16  2  0  0  0
 11 12  1  0  0  0
 11 38  1  0  0  0
 12 13  1  0  0  0
 12 39  1  0  0  0
 12 40  1  0  0  0
 13 14  2  0  0  0
 13 15  1  0  0  0
 15 41  1  0  0  0
 16 17  1  0  0  0
 16 42  1  0  0  0
 17 18  2  0  0  0
 17 43  1  0  0  0
 18 19  1  0  0  0
 19 20  2  0  0  0
 19 27  1  0  0  0
 20 21  1  0  0  0
 21 22  2  0  0  0
 21 26  1  0  0  0
 22 23  1  0  0  0
 22 44  1  0  0  0
 23 24  2  0  0  0
 23 45  1  0  0  0
 24 25  1  0  0  0
 24 46  1  0  0  0
 25 26  2  0  0  0
 25 47  1  0  0  0
 26 27  1  0  0  0
 27 28  2  0  0  0
M  END
> <s_m_entry_id>
31215

> <s_m_entry_name>
dock_pv.428

> <s_m_Source_Path>
/home/csk/Desktop/cluster/DUD-E-result/rxra

> <s_m_Source_File>
dock_pv.maegz

> <i_m_Source_File_Index>
428

> <chembl_id>
CHEMBL2322964

> <chembl_pref_name>
None

> <i_lp_mmshare_version>
53161

> <r_lp_tautomer_probability>
1

> <s_lp_Force_Field>
OPLS_2005

> <r_lp_Energy>
50.504966

> <b_lp_Chiralities_Consistent>
1

> <s_lp_Variant>
CHEMBL2061_lig481-1

> <s_i_glide_gridfile>
glide-grid_1mv9

> <i_i_glide_lignum>
570

> <i_i_glide_rotatable_bonds>
7

> <r_i_docking_score>
-8.59197447476663

> <r_i_glide_ligand_efficiency>
-0.306856231241665

> <r_i_glide_ligand_efficiency_sa>
-0.93179624670479

> <r_i_glide_ligand_efficiency_ln>
-1.98327998010859

> <r_i_glide_gscore>
-8.59197447476663

> <r_i_glide_lipo>
-4.81436619159946

> <r_i_glide_hbond>
-0.160969072632166

> <r_i_glide_metal>
0

> <r_i_glide_rewards>
-2.20809423392607

> <r_i_glide_evdw>
-32.9752922058105

> <r_i_glide_ecoul>
-2.93141770362854

> <r_i_glide_erotb>
0.67993228922588

> <r_i_glide_esite>
0

> <r_i_glide_emodel>
-42.5951876925548

> <r_i_glide_energy>
-35.9067099094391

> <r_i_glide_einternal>
7.3039608001709

> <i_i_glide_confnum>
51

> <i_i_glide_posenum>
212

> <r_i_glide_eff_state_penalty>
0

> <s_user_duplicate_titles>
CHEMBL2061_lig481

> <i_f3d_flags>
0

> <s_m_subgroup_title>
dock_pv

> <s_m_subgroupid>
dock_pv

> <b_m_subgroup_collapsed>
1

$$$$
CHEMBL2061_lig422
                    3D
 Schrodinger Suite 2021-1.
 63 63  0  0  1  0            999 V2000
   62.7413   46.7737   32.5072 C   0  0  0  0  0  0
   63.5704   45.6772   32.2745 C   0  0  0  0  0  0
   63.7355   45.1435   30.9976 C   0  0  0  0  0  0
   63.1181   45.7756   29.9263 C   0  0  0  0  0  0
   62.4381   46.9734   30.0932 C   0  0  0  0  0  0
   62.2278   47.4658   31.3902 C   0  0  0  0  0  0
   62.3551   47.1460   33.9557 C   0  0  0  0  0  0
   60.8761   46.7392   34.1844 C   0  0  0  0  0  0
   62.5526   48.6486   34.1952 C   0  0  0  0  0  0
   63.2069   46.4432   35.0562 C   0  0  0  0  0  0
   64.6004   43.9051   30.7708 C   0  0  0  0  0  0
   64.0836   43.0187   29.6074 C   0  0  0  0  0  0
   64.5959   42.9643   32.0109 C   0  0  0  0  0  0
   66.0095   44.4635   30.4438 C   0  0  0  0  0  0
   61.9098   47.5965   28.9393 N   0  0  0  0  0  0
   60.7063   47.1942   28.4237 C   0  0  0  0  0  0
   59.7560   46.5798   29.3366 C   0  0  0  0  0  0
   60.4082   47.3748   27.2402 O   0  0  0  0  0  0
   58.4912   46.2700   28.9935 C   0  0  0  0  0  0
   57.5056   45.7057   29.9090 C   0  0  0  0  0  0
   56.2428   45.6238   29.4288 C   0  0  0  0  0  0
   57.8941   45.3275   31.3446 C   0  0  0  0  0  0
   55.0749   45.1820   30.1365 C   0  0  0  0  0  0
   55.2758   44.1010   30.9354 O   0  0  0  0  0  0
   53.9920   45.7291   30.0058 O   0  0  0  0  0  0
   62.8789   48.2588   28.0268 C   0  0  0  0  0  0
   63.9321   47.3301   27.3851 C   0  0  0  0  0  0
   64.8762   48.0531   26.4385 C   0  0  0  0  0  0
   64.0427   45.1762   33.1005 H   0  0  0  0  0  0
   63.1992   45.3739   28.9319 H   0  0  0  0  0  0
   61.6156   48.3447   31.5229 H   0  0  0  0  0  0
   60.7889   45.6803   34.4277 H   0  0  0  0  0  0
   60.4171   47.2907   35.0059 H   0  0  0  0  0  0
   60.2563   46.8772   33.2998 H   0  0  0  0  0  0
   63.6044   48.9298   34.1386 H   0  0  0  0  0  0
   62.0083   49.2814   33.4991 H   0  0  0  0  0  0
   62.2166   48.8767   35.2047 H   0  0  0  0  0  0
   64.2716   46.6497   34.9373 H   0  0  0  0  0  0
   62.9309   46.7797   36.0557 H   0  0  0  0  0  0
   63.0766   45.3605   35.0557 H   0  0  0  0  0  0
   64.0090   43.5238   28.6477 H   0  0  0  0  0  0
   64.7896   42.2058   29.4484 H   0  0  0  0  0  0
   63.1092   42.5758   29.8130 H   0  0  0  0  0  0
   65.2101   43.3336   32.8302 H   0  0  0  0  0  0
   63.6019   42.8258   32.4184 H   0  0  0  0  0  0
   64.9337   41.9613   31.7575 H   0  0  0  0  0  0
   66.4515   44.9723   31.3022 H   0  0  0  0  0  0
   66.6978   43.6783   30.1389 H   0  0  0  0  0  0
   65.9811   45.1818   29.6218 H   0  0  0  0  0  0
   60.0953   46.3801   30.3373 H   0  0  0  0  0  0
   58.1815   46.4702   27.9750 H   0  0  0  0  0  0
   56.0136   45.9454   28.4221 H   0  0  0  0  0  0
   58.5745   46.0648   31.7654 H   0  0  0  0  0  0
   57.0652   45.3460   32.0500 H   0  0  0  0  0  0
   58.4050   44.3651   31.3653 H   0  0  0  0  0  0
   56.1851   43.8019   30.8693 H   0  0  0  0  0  0
   62.3525   48.8130   27.2478 H   0  0  0  0  0  0
   63.4199   49.0427   28.5393 H   0  0  0  0  0  0
   64.5734   46.8915   28.1482 H   0  0  0  0  0  0
   63.4353   46.5198   26.8505 H   0  0  0  0  0  0
   65.6058   47.3613   26.0183 H   0  0  0  0  0  0
   64.3209   48.4769   25.6137 H   0  0  0  0  0  0
   65.4213   48.8533   26.9420 H   0  0  0  0  0  0
  1  7  1  0  0  0
  1  6  1  0  0  0
  1  2  2  0  0  0
  2  3  1  0  0  0
  2 29  1  0  0  0
  3  4  2  0  0  0
  3 11  1  0  0  0
  4  5  1  0  0  0
  4 30  1  0  0  0
  5 15  1  0  0  0
  5  6  2  0  0  0
  6 31  1  0  0  0
  7  8  1  0  0  0
  7  9  1  0  0  0
  7 10  1  0  0  0
  8 32  1  0  0  0
  8 33  1  0  0  0
  8 34  1  0  0  0
  9 35  1  0  0  0
  9 36  1  0  0  0
  9 37  1  0  0  0
 10 38  1  0  0  0
 10 39  1  0  0  0
 10 40  1  0  0  0
 11 14  1  0  0  0
 11 12  1  0  0  0
 11 13  1  0  0  0
 12 41  1  0  0  0
 12 42  1  0  0  0
 12 43  1  0  0  0
 13 44  1  0  0  0
 13 45  1  0  0  0
 13 46  1  0  0  0
 14 47  1  0  0  0
 14 48  1  0  0  0
 14 49  1  0  0  0
 15 16  1  0  0  0
 15 26  1  0  0  0
 16 17  1  0  0  0
 16 18  2  0  0  0
 17 19  2  0  0  0
 17 50  1  0  0  0
 19 20  1  0  0  0
 19 51  1  0  0  0
 20 21  2  0  0  0
 20 22  1  0  0  0
 21 23  1  0  0  0
 21 52  1  0  0  0
 22 53  1  0  0  0
 22 54  1  0  0  0
 22 55  1  0  0  0
 23 24  1  0  0  0
 23 25  2  0  0  0
 24 56  1  0  0  0
 26 27  1  0  0  0
 26 57  1  0  0  0
 26 58  1  0  0  0
 27 28  1  0  0  0
 27 59  1  0  0  0
 27 60  1  0  0  0
 28 61  1  0  0  0
 28 62  1  0  0  0
 28 63  1  0  0  0
M  END
> <s_m_entry_id>
31216

> <s_m_entry_name>
dock_pv.429

> <s_m_Source_Path>
/home/csk/Desktop/cluster/DUD-E-result/rxra

> <s_m_Source_File>
dock_pv.maegz

> <i_m_Source_File_Index>
429

> <chembl_id>
CHEMBL206005

> <chembl_pref_name>
None

> <i_lp_mmshare_version>
53161

> <r_lp_tautomer_probability>
1

> <s_lp_Force_Field>
OPLS_2005

> <r_lp_Energy>
40.999898

> <b_lp_Chiralities_Consistent>
1

> <s_lp_Variant>
CHEMBL2061_lig422-1

> <s_i_glide_gridfile>
glide-grid_1mv9

> <i_i_glide_lignum>
493

> <i_i_glide_rotatable_bonds>
10

> <r_i_docking_score>
-8.59024661501549

> <r_i_glide_ligand_efficiency>
-0.306794521964839

> <r_i_glide_ligand_efficiency_sa>
-0.931608860995525

> <r_i_glide_ligand_efficiency_ln>
-1.98288113934586

> <r_i_glide_gscore>
-8.59024661501549

> <r_i_glide_lipo>
-5.62647390184322

> <r_i_glide_hbond>
-0.16

> <r_i_glide_metal>
0

> <r_i_glide_rewards>
-0.755990815166268

> <r_i_glide_evdw>
-43.9320640563965

> <r_i_glide_ecoul>
-4.2430477142334

> <r_i_glide_erotb>
0.785278461948835

> <r_i_glide_esite>
0

> <r_i_glide_emodel>
-47.1561488583675

> <r_i_glide_energy>
-48.1751117706299

> <r_i_glide_einternal>
6.66474580764771

> <i_i_glide_confnum>
95

> <i_i_glide_posenum>
26

> <r_i_glide_eff_state_penalty>
0

> <s_user_duplicate_titles>
CHEMBL2061_lig422,345648

> <i_f3d_flags>
0

> <s_m_subgroup_title>
dock_pv

> <s_m_subgroupid>
dock_pv

> <b_m_subgroup_collapsed>
1

$$$$
CHEMBL2061_lig43
                    3D
 Schrodinger Suite 2021-1.
 42 44  0  0  1  0            999 V2000
   59.8163   46.1005   31.2001 C   0  0  0  0  0  0
   58.2050   45.7836   29.5886 C   0  0  0  0  0  0
   58.4940   45.5909   30.8848 C   0  0  0  0  0  0
   59.3816   46.4174   28.9924 C   0  0  0  0  0  0
   60.3531   46.6525   29.9496 C   0  0  0  0  0  0
   60.3716   46.1287   32.4286 C   0  0  0  0  0  0
   66.0080   46.4770   34.1390 S   0  0  2  0  0  0
   56.9322   45.4244   28.8052 C   0  0  0  0  0  0
   61.4830   47.4285   29.6321 C   0  0  0  0  0  0
   55.6313   46.0670   29.3244 C   0  0  0  0  0  0
   59.6067   46.8291   27.6985 C   0  0  0  0  0  0
   64.3300   46.5419   33.6285 C   0  0  0  0  0  0
   66.8080   46.8770   32.9081 O   0  0  0  0  0  0
   55.0191   45.6770   30.3167 O   0  0  0  0  0  0
   61.7405   46.4770   32.7863 C   0  0  0  0  0  0
   64.0691   46.0770   32.3554 C   0  0  0  0  0  0
   63.3456   47.0466   34.4745 C   0  0  0  0  0  0
   60.7209   47.5828   27.3744 C   0  0  0  0  0  0
   61.6722   47.8867   28.3345 C   0  0  0  0  0  0
   57.6080   44.8773   31.8508 C   0  0  0  0  0  0
   55.2080   47.0948   28.5390 O   0  0  0  0  0  0
   62.7643   46.0287   31.9490 C   0  0  0  0  0  0
   62.0266   47.0200   34.0394 C   0  0  0  0  0  0
   60.8210   48.0770   26.1390 F   0  0  0  0  0  0
   66.1719   44.6430   34.2646 C   0  0  0  0  0  0
   59.7799   45.7805   33.2622 H   0  0  0  0  0  0
   57.0461   45.6770   27.7520 H   0  0  0  0  0  0
   56.8014   44.3454   28.8748 H   0  0  0  0  0  0
   62.1931   47.7663   30.3673 H   0  0  0  0  0  0
   58.8822   46.6203   26.9391 H   0  0  0  0  0  0
   64.8550   45.7010   31.7153 H   0  0  0  0  0  0
   63.5932   47.4205   35.4575 H   0  0  0  0  0  0
   62.5204   48.5065   28.0853 H   0  0  0  0  0  0
   58.2055   44.3850   32.6144 H   0  0  0  0  0  0
   56.9385   45.5929   32.3310 H   0  0  0  0  0  0
   57.0216   44.1145   31.3390 H   0  0  0  0  0  0
   54.4329   47.5168   28.9081 H   0  0  0  0  0  0
   62.5539   45.5319   31.0134 H   0  0  0  0  0  0
   61.2349   47.3433   34.7002 H   0  0  0  0  0  0
   65.5062   44.2341   35.0229 H   0  0  0  0  0  0
   65.9777   44.1575   33.3092 H   0  0  0  0  0  0
   67.2077   44.4613   34.5390 H   0  0  0  0  0  0
  1  3  1  0  0  0
  1  5  1  0  0  0
  1  6  2  0  0  0
  2  3  2  0  0  0
  2  8  1  0  0  0
  2  4  1  0  0  0
  3 20  1  0  0  0
  4  5  2  0  0  0
  4 11  1  0  0  0
  5  9  1  0  0  0
  6 15  1  0  0  0
  6 26  1  0  0  0
  7 12  1  0  0  0
  7 13  2  0  0  0
  7 25  1  0  0  0
  8 10  1  0  0  0
  8 27  1  0  0  0
  8 28  1  0  0  0
  9 19  2  0  0  0
  9 29  1  0  0  0
 10 14  2  0  0  0
 10 21  1  0  0  0
 11 18  2  0  0  0
 11 30  1  0  0  0
 12 17  2  0  0  0
 12 16  1  0  0  0
 15 22  1  0  0  0
 15 23  2  0  0  0
 16 22  2  0  0  0
 16 31  1  0  0  0
 17 23  1  0  0  0
 17 32  1  0  0  0
 18 19  1  0  0  0
 18 24  1  0  0  0
 19 33  1  0  0  0
 20 34  1  0  0  0
 20 35  1  0  0  0
 20 36  1  0  0  0
 21 37  1  0  0  0
 22 38  1  0  0  0
 23 39  1  0  0  0
 25 40  1  0  0  0
 25 41  1  0  0  0
 25 42  1  0  0  0
M  END
> <s_m_entry_id>
31217

> <s_m_entry_name>
dock_pv.430

> <s_m_Source_Path>
/home/csk/Desktop/cluster/DUD-E-result/rxra

> <s_m_Source_File>
dock_pv.maegz

> <i_m_Source_File_Index>
430

> <chembl_id>
CHEMBL15770

> <chembl_pref_name>
SULINDAC

> <i_lp_mmshare_version>
53161

> <r_lp_tautomer_probability>
1

> <s_lp_Force_Field>
OPLS_2005

> <r_lp_Energy>
36.142568

> <b_lp_Chiralities_Consistent>
1

> <s_lp_Variant>
CHEMBL2061_lig43-1

> <s_i_glide_gridfile>
glide-grid_1mv9

> <i_i_glide_lignum>
59

> <i_i_glide_rotatable_bonds>
5

> <r_i_docking_score>
-8.55756888168411

> <r_i_glide_ligand_efficiency>
-0.342302755267365

> <r_i_glide_ligand_efficiency_sa>
-1.00089932716699

> <r_i_glide_ligand_efficiency_ln>
-2.0284002746043

> <r_i_glide_gscore>
-8.55756888168411

> <r_i_glide_lipo>
-4.8212368725518

> <r_i_glide_hbond>
0

> <r_i_glide_metal>
0

> <r_i_glide_rewards>
-2.55826200528594

> <r_i_glide_evdw>
-29.899694442749

> <r_i_glide_ecoul>
-0.899461627006531

> <r_i_glide_erotb>
0.451833962342058

> <r_i_glide_esite>
0

> <r_i_glide_emodel>
-39.2342625925638

> <r_i_glide_energy>
-30.7991560697556

> <r_i_glide_einternal>
5.80042123794556

> <i_i_glide_confnum>
15

> <i_i_glide_posenum>
362

> <r_i_glide_eff_state_penalty>
0

> <s_user_duplicate_titles>
CHEMBL2061_lig43

> <i_f3d_flags>
0

> <s_m_subgroup_title>
dock_pv

> <s_m_subgroupid>
dock_pv

> <b_m_subgroup_collapsed>
1

$$$$
CHEMBL2061_lig479
                    3D
 Schrodinger Suite 2021-1.
 44 47  0  0  1  0            999 V2000
   57.2998   45.3700   31.0996 C   0  0  0  0  0  0
   57.0998   45.5373   29.7338 C   0  0  0  0  0  0
   58.1794   45.8969   28.9251 C   0  0  0  0  0  0
   58.5355   45.6770   31.6665 C   0  0  0  0  0  0
   59.6160   46.0769   30.8638 C   0  0  0  0  0  0
   59.4446   46.1080   29.4757 C   0  0  0  0  0  0
   60.5939   46.4262   28.5423 C   0  0  0  0  0  0
   61.8306   46.4468   29.1535 N   0  0  0  0  0  0
   60.4162   46.6453   27.3387 O   0  0  0  0  0  0
   62.9507   46.6446   28.2266 C   0  0  0  0  0  0
   63.1354   48.1298   27.8477 C   0  0  0  0  0  0
   64.5344   48.4245   27.3390 C   0  0  0  0  0  0
   64.8081   47.6770   26.1390 N   0  0  0  0  0  0
   55.8099   45.3687   29.2207 N   0  0  0  0  0  0
   60.9642   46.3410   31.4069 C   0  0  0  0  0  0
   61.9993   46.4454   30.5428 C   0  0  0  0  0  0
   61.4259   46.4770   32.7823 C   0  0  0  0  0  0
   62.8797   46.5067   32.6848 C   0  0  0  0  0  0
   63.2601   46.4765   31.3447 C   0  0  0  0  0  0
   64.6366   46.4469   31.0608 C   0  0  0  0  0  0
   65.5772   46.4336   32.0948 C   0  0  0  0  0  0
   65.1688   46.4771   33.4249 C   0  0  0  0  0  0
   63.8111   46.5234   33.7258 C   0  0  0  0  0  0
   60.7181   46.4770   33.7888 O   0  0  0  0  0  0
   55.4243   46.2553   28.1345 C   0  0  0  0  0  0
   56.4789   45.0882   31.7388 H   0  0  0  0  0  0
   58.0460   45.9796   27.8571 H   0  0  0  0  0  0
   58.6448   45.5892   32.7367 H   0  0  0  0  0  0
   63.8508   46.2000   28.6208 H   0  0  0  0  0  0
   62.8071   46.0706   27.3082 H   0  0  0  0  0  0
   62.3937   48.4348   27.1077 H   0  0  0  0  0  0
   62.9559   48.7494   28.7207 H   0  0  0  0  0  0
   64.7045   49.4904   27.1841 H   0  0  0  0  0  0
   65.2080   48.0800   28.1095 H   0  0  0  0  0  0
   64.1521   47.9236   25.4094 H   0  0  0  0  0  0
   65.7270   47.9048   25.7867 H   0  0  0  0  0  0
   55.0981   45.1537   29.9002 H   0  0  0  0  0  0
   65.0491   46.4245   30.0694 H   0  0  0  0  0  0
   66.6291   46.3985   31.8608 H   0  0  0  0  0  0
   65.9019   46.4750   34.2187 H   0  0  0  0  0  0
   63.4975   46.5467   34.7600 H   0  0  0  0  0  0
   54.4015   46.0773   27.8564 H   0  0  0  0  0  0
   55.5204   47.3024   28.4254 H   0  0  0  0  0  0
   56.0081   46.0765   27.2358 H   0  0  0  0  0  0
  1  2  2  0  0  0
  1  4  1  0  0  0
  1 26  1  0  0  0
  2  3  1  0  0  0
  2 14  1  0  0  0
  3  6  2  0  0  0
  3 27  1  0  0  0
  4  5  2  0  0  0
  4 28  1  0  0  0
  5  6  1  0  0  0
  5 15  1  0  0  0
  6  7  1  0  0  0
  7  8  1  0  0  0
  7  9  2  0  0  0
  8 16  1  0  0  0
  8 10  1  0  0  0
 10 11  1  0  0  0
 10 29  1  0  0  0
 10 30  1  0  0  0
 11 12  1  0  0  0
 11 31  1  0  0  0
 11 32  1  0  0  0
 12 13  1  0  0  0
 12 33  1  0  0  0
 12 34  1  0  0  0
 13 35  1  0  0  0
 13 36  1  0  0  0
 14 25  1  0  0  0
 14 37  1  0  0  0
 15 16  2  0  0  0
 15 17  1  0  0  0
 16 19  1  0  0  0
 17 18  1  0  0  0
 17 24  2  0  0  0
 18 19  2  0  0  0
 18 23  1  0  0  0
 19 20  1  0  0  0
 20 21  2  0  0  0
 20 38  1  0  0  0
 21 22  1  0  0  0
 21 39  1  0  0  0
 22 23  2  0  0  0
 22 40  1  0  0  0
 23 41  1  0  0  0
 25 42  1  0  0  0
 25 43  1  0  0  0
 25 44  1  0  0  0
M  END
> <s_m_entry_id>
31218

> <s_m_entry_name>
dock_pv.431

> <s_m_Source_Path>
/home/csk/Desktop/cluster/DUD-E-result/rxra

> <s_m_Source_File>
dock_pv.maegz

> <i_m_Source_File_Index>
431

> <chembl_id>
CHEMBL2172208

> <chembl_pref_name>
None

> <i_lp_mmshare_version>
53161

> <r_lp_tautomer_probability>
1

> <s_lp_Force_Field>
OPLS_2005

> <r_lp_Energy>
47.522637

> <b_lp_Chiralities_Consistent>
1

> <s_lp_Variant>
CHEMBL2061_lig479-1

> <s_i_glide_gridfile>
glide-grid_1mv9

> <i_i_glide_lignum>
568

> <i_i_glide_rotatable_bonds>
4

> <r_i_docking_score>
-8.55561003149105

> <r_i_glide_ligand_efficiency>
-0.342224401259642

> <r_i_glide_ligand_efficiency_sa>
-1.00067021865879

> <r_i_glide_ligand_efficiency_ln>
-2.02793596840654

> <r_i_glide_gscore>
-8.55561003149105

> <r_i_glide_lipo>
-4.99513191437902

> <r_i_glide_hbond>
0

> <r_i_glide_metal>
0

> <r_i_glide_rewards>
-2.44067097579635

> <r_i_glide_evdw>
-32.6625900268555

> <r_i_glide_ecoul>
1.16121578216553

> <r_i_glide_erotb>
0.339139992702264

> <r_i_glide_esite>
0

> <r_i_glide_emodel>
-30.9660635695391

> <r_i_glide_energy>
-31.5013742446899

> <r_i_glide_einternal>
9.64542865753174

> <i_i_glide_confnum>
6

> <i_i_glide_posenum>
95

> <r_i_glide_eff_state_penalty>
0

> <s_user_duplicate_titles>
CHEMBL2061_lig479

> <i_f3d_flags>
0

> <s_m_subgroup_title>
dock_pv

> <s_m_subgroupid>
dock_pv

> <b_m_subgroup_collapsed>
1

$$$$
CHEMBL2061_lig420
                    3D
 Schrodinger Suite 2021-1.
 61 61  0  0  1  0            999 V2000
   63.7643   45.3449   30.8019 C   0  0  0  0  0  0
   63.5027   45.7355   32.1117 C   0  0  0  0  0  0
   62.6809   46.8254   32.3977 C   0  0  0  0  0  0
   62.1779   47.5823   31.3200 C   0  0  0  0  0  0
   62.4865   47.2491   29.9958 C   0  0  0  0  0  0
   63.2790   46.1353   29.7600 C   0  0  0  0  0  0
   64.5229   44.0506   30.4929 C   0  0  0  0  0  0
   63.8054   43.2949   29.3388 C   0  0  0  0  0  0
   64.5361   43.0507   31.6848 C   0  0  0  0  0  0
   65.9715   44.4767   30.1391 C   0  0  0  0  0  0
   62.3003   47.1401   33.8604 C   0  0  0  0  0  0
   60.8415   46.6743   34.0916 C   0  0  0  0  0  0
   62.4708   48.6466   34.1398 C   0  0  0  0  0  0
   63.1880   46.4297   34.9247 C   0  0  0  0  0  0
   61.9066   47.9392   28.9089 N   0  0  0  0  0  0
   60.7594   47.2510   28.2941 C   0  0  0  0  0  0
   59.7200   46.6430   29.2232 C   0  0  0  0  0  0
   58.4644   46.3037   28.8801 C   0  0  0  0  0  0
   57.4722   45.7285   29.7869 C   0  0  0  0  0  0
   56.2401   45.4856   29.2780 C   0  0  0  0  0  0
   57.8292   45.3801   31.2364 C   0  0  0  0  0  0
   55.1199   44.9924   30.0386 C   0  0  0  0  0  0
   54.4080   44.0770   29.3391 O   0  0  0  0  0  0
   54.8073   45.3641   31.1670 O   0  0  0  0  0  0
   62.8322   48.6122   27.9787 C   0  0  0  0  0  0
   63.5759   47.7310   26.9602 C   0  0  0  0  0  0
   63.8978   45.1404   32.9153 H   0  0  0  0  0  0
   61.5167   48.4153   31.4965 H   0  0  0  0  0  0
   63.4780   45.8668   28.7408 H   0  0  0  0  0  0
   63.6093   43.8799   28.4469 H   0  0  0  0  0  0
   64.4081   42.4762   28.9880 H   0  0  0  0  0  0
   62.8423   42.8870   29.6522 H   0  0  0  0  0  0
   65.2079   43.3604   32.4854 H   0  0  0  0  0  0
   63.5679   42.9373   32.1508 H   0  0  0  0  0  0
   64.8080   42.0433   31.3721 H   0  0  0  0  0  0
   66.4595   44.9469   30.9935 H   0  0  0  0  0  0
   66.6138   43.6536   29.8320 H   0  0  0  0  0  0
   65.9861   45.2132   29.3362 H   0  0  0  0  0  0
   60.7899   45.5948   34.2315 H   0  0  0  0  0  0
   60.4087   47.1315   34.9802 H   0  0  0  0  0  0
   60.1871   46.8770   33.2455 H   0  0  0  0  0  0
   63.5240   48.9313   34.1391 H   0  0  0  0  0  0
   61.9791   49.3010   33.4251 H   0  0  0  0  0  0
   62.0834   48.8769   35.1309 H   0  0  0  0  0  0
   64.2471   46.6496   34.7790 H   0  0  0  0  0  0
   62.9328   46.7498   35.9363 H   0  0  0  0  0  0
   63.0716   45.3454   34.9116 H   0  0  0  0  0  0
   61.1327   46.4298   27.6806 H   0  0  0  0  0  0
   60.2464   47.9467   27.6277 H   0  0  0  0  0  0
   60.0541   46.4748   30.2307 H   0  0  0  0  0  0
   58.1790   46.4770   27.8529 H   0  0  0  0  0  0
   56.0230   45.6805   28.2372 H   0  0  0  0  0  0
   58.8912   45.2770   31.4271 H   0  0  0  0  0  0
   57.3818   46.0770   31.9440 H   0  0  0  0  0  0
   57.4272   44.3964   31.4637 H   0  0  0  0  0  0
   54.8214   43.8083   28.5105 H   0  0  0  0  0  0
   62.2642   49.3773   27.4483 H   0  0  0  0  0  0
   63.6073   49.1475   28.5326 H   0  0  0  0  0  0
   63.9517   48.3384   26.1383 H   0  0  0  0  0  0
   64.4489   47.2553   27.4059 H   0  0  0  0  0  0
   62.9417   46.9552   26.5387 H   0  0  0  0  0  0
  1  2  2  0  0  0
  1  7  1  0  0  0
  1  6  1  0  0  0
  2  3  1  0  0  0
  2 27  1  0  0  0
  3  4  2  0  0  0
  3 11  1  0  0  0
  4  5  1  0  0  0
  4 28  1  0  0  0
  5 15  1  0  0  0
  5  6  2  0  0  0
  6 29  1  0  0  0
  7  8  1  0  0  0
  7  9  1  0  0  0
  7 10  1  0  0  0
  8 30  1  0  0  0
  8 31  1  0  0  0
  8 32  1  0  0  0
  9 33  1  0  0  0
  9 34  1  0  0  0
  9 35  1  0  0  0
 10 36  1  0  0  0
 10 37  1  0  0  0
 10 38  1  0  0  0
 11 13  1  0  0  0
 11 14  1  0  0  0
 11 12  1  0  0  0
 12 39  1  0  0  0
 12 40  1  0  0  0
 12 41  1  0  0  0
 13 42  1  0  0  0
 13 43  1  0  0  0
 13 44  1  0  0  0
 14 45  1  0  0  0
 14 46  1  0  0  0
 14 47  1  0  0  0
 15 16  1  0  0  0
 15 25  1  0  0  0
 16 17  1  0  0  0
 16 48  1  0  0  0
 16 49  1  0  0  0
 17 18  2  0  0  0
 17 50  1  0  0  0
 18 19  1  0  0  0
 18 51  1  0  0  0
 19 20  2  0  0  0
 19 21  1  0  0  0
 20 22  1  0  0  0
 20 52  1  0  0  0
 21 53  1  0  0  0
 21 54  1  0  0  0
 21 55  1  0  0  0
 22 23  1  0  0  0
 22 24  2  0  0  0
 23 56  1  0  0  0
 25 26  1  0  0  0
 25 57  1  0  0  0
 25 58  1  0  0  0
 26 59  1  0  0  0
 26 60  1  0  0  0
 26 61  1  0  0  0
M  END
> <s_m_entry_id>
31219

> <s_m_entry_name>
dock_pv.432

> <s_m_Source_Path>
/home/csk/Desktop/cluster/DUD-E-result/rxra

> <s_m_Source_File>
dock_pv.maegz

> <i_m_Source_File_Index>
432

> <chembl_id>
CHEMBL205634

> <chembl_pref_name>
None

> <i_lp_mmshare_version>
53161

> <r_lp_tautomer_probability>
1

> <s_lp_Force_Field>
OPLS_2005

> <r_lp_Energy>
24.124429

> <b_lp_Chiralities_Consistent>
1

> <s_lp_Variant>
CHEMBL2061_lig420-1

> <s_i_glide_gridfile>
glide-grid_1mv9

> <i_i_glide_lignum>
491

> <i_i_glide_rotatable_bonds>
9

> <r_i_docking_score>
-8.55129175635201

> <r_i_glide_ligand_efficiency>
-0.32889583678277

> <r_i_glide_ligand_efficiency_sa>
-0.974352622326329

> <r_i_glide_ligand_efficiency_ln>
-2.00824280990242

> <r_i_glide_gscore>
-8.55129175635201

> <r_i_glide_lipo>
-5.55441633324695

> <r_i_glide_hbond>
-0.0450183036203109

> <r_i_glide_metal>
0

> <r_i_glide_rewards>
-0.896510544530969

> <r_i_glide_evdw>
-39.5225563049316

> <r_i_glide_ecoul>
-5.52057647705078

> <r_i_glide_erotb>
0.748867711850422

> <r_i_glide_esite>
0

> <r_i_glide_emodel>
-48.9644781248176

> <r_i_glide_energy>
-45.0431327819824

> <r_i_glide_einternal>
19.4561767578125

> <i_i_glide_confnum>
35

> <i_i_glide_posenum>
316

> <r_i_glide_eff_state_penalty>
0

> <s_user_duplicate_titles>
CHEMBL2061_lig420,345658

> <i_f3d_flags>
0

> <s_m_subgroup_title>
dock_pv

> <s_m_subgroupid>
dock_pv

> <b_m_subgroup_collapsed>
1

$$$$
CHEMBL2061_lig89 
                    3D
 Schrodinger Suite 2021-1.
 46 49  0  0  1  0            999 V2000
   61.4902   46.8275   27.8690 C   0  0  0  0  0  0
   62.2762   47.4599   28.8283 C   0  0  0  0  0  0
   61.9326   47.3672   30.1737 C   0  0  0  0  0  0
   60.3379   46.1454   28.2523 C   0  0  0  0  0  0
   59.9882   46.0652   29.6039 C   0  0  0  0  0  0
   60.8077   46.6181   30.5639 C   0  0  0  0  0  0
   60.1763   46.3174   31.8709 C   0  0  0  0  0  0
   58.8664   45.7796   31.5816 C   0  0  0  0  0  0
   58.7917   45.5264   30.2666 C   0  0  0  0  0  0
   57.7948   45.5537   32.6222 C   0  0  0  0  0  0
   57.6453   44.9433   29.4819 C   0  0  0  0  0  0
   57.0582   46.0003   28.5351 C   0  0  0  0  0  0
   55.6598   46.4133   28.8819 C   0  0  0  0  0  0
   55.1604   47.6264   28.5405 N   0  0  0  0  0  0
   53.8776   47.6952   28.7905 N   0  0  0  0  0  0
   53.6084   46.4779   29.3376 N   0  0  0  0  0  0
   54.7307   45.6844   29.4312 N   0  0  0  0  0  0
   60.6662   46.4794   33.1178 C   0  0  0  0  0  0
   62.0607   46.6836   33.4360 C   0  0  0  0  0  0
   62.4761   47.3478   34.5928 C   0  0  0  0  0  0
   63.8309   47.3378   34.9112 C   0  0  0  0  0  0
   64.7238   46.7138   34.0366 C   0  0  0  0  0  0
   64.3157   46.1731   32.8321 C   0  0  0  0  0  0
   62.9846   46.0776   32.5902 C   0  0  0  0  0  0
   66.0103   46.5455   34.4033 O   0  0  0  0  0  0
   66.5139   45.2216   34.2685 C   0  0  0  0  0  0
   67.6298   45.2715   34.9248 F   0  0  0  0  0  0
   66.8080   44.8756   33.0217 F   0  0  0  0  0  0
   65.7172   44.3168   34.8340 F   0  0  0  0  0  0
   61.7703   46.8912   26.8308 H   0  0  0  0  0  0
   63.1464   48.0183   28.5280 H   0  0  0  0  0  0
   62.5354   47.8961   30.8906 H   0  0  0  0  0  0
   59.7187   45.6958   27.4917 H   0  0  0  0  0  0
   57.6293   46.4753   33.1788 H   0  0  0  0  0  0
   56.8412   45.2779   32.1857 H   0  0  0  0  0  0
   58.1349   44.8085   33.3339 H   0  0  0  0  0  0
   57.9930   44.0665   28.9449 H   0  0  0  0  0  0
   56.9180   44.5176   30.1638 H   0  0  0  0  0  0
   57.6970   46.8776   28.5207 H   0  0  0  0  0  0
   57.1023   45.6769   27.5009 H   0  0  0  0  0  0
   55.6877   48.3987   28.1660 H   0  0  0  0  0  0
   60.0188   46.3188   33.9701 H   0  0  0  0  0  0
   61.7615   47.7940   35.2703 H   0  0  0  0  0  0
   64.1796   47.7650   35.8421 H   0  0  0  0  0  0
   64.9865   45.7260   32.1227 H   0  0  0  0  0  0
   62.7008   45.4969   31.7326 H   0  0  0  0  0  0
  1  2  2  0  0  0
  1  4  1  0  0  0
  1 30  1  0  0  0
  2  3  1  0  0  0
  2 31  1  0  0  0
  3  6  2  0  0  0
  3 32  1  0  0  0
  4  5  2  0  0  0
  4 33  1  0  0  0
  5  6  1  0  0  0
  5  9  1  0  0  0
  6  7  1  0  0  0
  7  8  1  0  0  0
  7 18  2  0  0  0
  8  9  2  0  0  0
  8 10  1  0  0  0
  9 11  1  0  0  0
 10 34  1  0  0  0
 10 35  1  0  0  0
 10 36  1  0  0  0
 11 12  1  0  0  0
 11 37  1  0  0  0
 11 38  1  0  0  0
 12 13  1  0  0  0
 12 39  1  0  0  0
 12 40  1  0  0  0
 13 14  1  0  0  0
 13 17  2  0  0  0
 14 15  1  0  0  0
 14 41  1  0  0  0
 15 16  2  0  0  0
 16 17  1  0  0  0
 18 19  1  0  0  0
 18 42  1  0  0  0
 19 20  2  0  0  0
 19 24  1  0  0  0
 20 21  1  0  0  0
 20 43  1  0  0  0
 21 22  2  0  0  0
 21 44  1  0  0  0
 22 23  1  0  0  0
 22 25  1  0  0  0
 23 24  2  0  0  0
 23 45  1  0  0  0
 24 46  1  0  0  0
 25 26  1  0  0  0
 26 27  1  0  0  0
 26 28  1  0  0  0
 26 29  1  0  0  0
M  END
> <s_m_entry_id>
31220

> <s_m_entry_name>
dock_pv.433

> <s_m_Source_Path>
/home/csk/Desktop/cluster/DUD-E-result/rxra

> <s_m_Source_File>
dock_pv.maegz

> <i_m_Source_File_Index>
433

> <chembl_id>
CHEMBL4535171

> <chembl_pref_name>
None

> <i_lp_mmshare_version>
53161

> <r_lp_tautomer_probability>
0.3

> <s_lp_Force_Field>
OPLS_2005

> <r_lp_Energy>
40.057763

> <b_lp_Chiralities_Consistent>
1

> <s_lp_Variant>
CHEMBL2061_lig89 -1

> <s_i_glide_gridfile>
glide-grid_1mv9

> <i_i_glide_lignum>
127

> <i_i_glide_rotatable_bonds>
6

> <r_i_docking_score>
-8.53043645165282

> <r_i_glide_ligand_efficiency>
-0.294152981091476

> <r_i_glide_ligand_efficiency_sa>
-0.903731152118617

> <r_i_glide_ligand_efficiency_ln>
-1.9532536342241

> <r_i_glide_gscore>
-8.53043645165282

> <r_i_glide_lipo>
-5.30313365479406

> <r_i_glide_hbond>
-0.135456783846951

> <r_i_glide_metal>
0

> <r_i_glide_rewards>
-2.03129259366813

> <r_i_glide_evdw>
-23.5355339050293

> <r_i_glide_ecoul>
-2.1003475189209

> <r_i_glide_erotb>
0.616986724459163

> <r_i_glide_esite>
-0.185711320713237

> <r_i_glide_emodel>
-27.5885801451693

> <r_i_glide_energy>
-25.6358814239502

> <r_i_glide_einternal>
7.03775787353516

> <i_i_glide_confnum>
39

> <i_i_glide_posenum>
18

> <r_i_glide_eff_state_penalty>
0

> <s_user_duplicate_titles>
CHEMBL2061_lig89 

> <i_f3d_flags>
0

> <s_m_subgroup_title>
dock_pv

> <s_m_subgroupid>
dock_pv

> <b_m_subgroup_collapsed>
1

$$$$
CHEMBL2061_lig480
                    3D
 Schrodinger Suite 2021-1.
 41 44  0  0  1  0            999 V2000
   64.8080   47.6770   26.1390 N   0  0  0  0  0  0
   64.5334   48.4172   27.3391 C   0  0  0  0  0  0
   63.1152   48.1465   27.8209 C   0  0  0  0  0  0
   62.8583   46.6602   28.1549 C   0  0  0  0  0  0
   61.7167   46.4821   29.0628 N   0  0  0  0  0  0
   60.4848   46.4770   28.4406 C   0  0  0  0  0  0
   60.3343   46.7075   27.2380 O   0  0  0  0  0  0
   59.3188   46.1493   29.3552 C   0  0  0  0  0  0
   58.0497   45.9482   28.7976 C   0  0  0  0  0  0
   56.9832   45.5340   29.5908 C   0  0  0  0  0  0
   55.7400   45.2771   29.0169 N   0  0  0  0  0  0
   57.1690   45.3658   30.9589 C   0  0  0  0  0  0
   58.4026   45.6742   31.5365 C   0  0  0  0  0  0
   59.4869   46.0769   30.7430 C   0  0  0  0  0  0
   60.8292   46.3374   31.3040 C   0  0  0  0  0  0
   61.8704   46.4604   30.4515 C   0  0  0  0  0  0
   63.1238   46.4897   31.2617 C   0  0  0  0  0  0
   64.5008   46.4766   30.9833 C   0  0  0  0  0  0
   65.4360   46.4543   32.0212 C   0  0  0  0  0  0
   65.0207   46.4771   33.3502 C   0  0  0  0  0  0
   63.6610   46.5150   33.6449 C   0  0  0  0  0  0
   62.7350   46.5061   32.5989 C   0  0  0  0  0  0
   61.2796   46.4770   32.6847 C   0  0  0  0  0  0
   60.5641   46.4770   33.6859 O   0  0  0  0  0  0
   65.7531   47.8512   25.8278 H   0  0  0  0  0  0
   64.7431   46.6868   26.3197 H   0  0  0  0  0  0
   64.7160   49.4808   27.1838 H   0  0  0  0  0  0
   65.2080   48.0706   28.1109 H   0  0  0  0  0  0
   62.3995   48.4909   27.0724 H   0  0  0  0  0  0
   62.9365   48.7561   28.7015 H   0  0  0  0  0  0
   63.7281   46.1566   28.5492 H   0  0  0  0  0  0
   62.6992   46.1227   27.2173 H   0  0  0  0  0  0
   57.9000   46.0633   27.7390 H   0  0  0  0  0  0
   55.1095   44.7090   29.5600 H   0  0  0  0  0  0
   55.7191   45.1953   28.0106 H   0  0  0  0  0  0
   56.3497   45.0516   31.5864 H   0  0  0  0  0  0
   58.5080   45.5711   32.6057 H   0  0  0  0  0  0
   64.9169   46.4766   29.9935 H   0  0  0  0  0  0
   66.4885   46.4315   31.7895 H   0  0  0  0  0  0
   65.7499   46.4696   34.1475 H   0  0  0  0  0  0
   63.3418   46.5270   34.6776 H   0  0  0  0  0  0
  1  2  1  0  0  0
  1 25  1  0  0  0
  1 26  1  0  0  0
  2  3  1  0  0  0
  2 27  1  0  0  0
  2 28  1  0  0  0
  3  4  1  0  0  0
  3 29  1  0  0  0
  3 30  1  0  0  0
  4  5  1  0  0  0
  4 31  1  0  0  0
  4 32  1  0  0  0
  5  6  1  0  0  0
  5 16  1  0  0  0
  6  7  2  0  0  0
  6  8  1  0  0  0
  8  9  2  0  0  0
  8 14  1  0  0  0
  9 10  1  0  0  0
  9 33  1  0  0  0
 10 11  1  0  0  0
 10 12  2  0  0  0
 11 34  1  0  0  0
 11 35  1  0  0  0
 12 13  1  0  0  0
 12 36  1  0  0  0
 13 14  2  0  0  0
 13 37  1  0  0  0
 14 15  1  0  0  0
 15 16  2  0  0  0
 15 23  1  0  0  0
 16 17  1  0  0  0
 17 18  2  0  0  0
 17 22  1  0  0  0
 18 19  1  0  0  0
 18 38  1  0  0  0
 19 20  2  0  0  0
 19 39  1  0  0  0
 20 21  1  0  0  0
 20 40  1  0  0  0
 21 22  2  0  0  0
 21 41  1  0  0  0
 22 23  1  0  0  0
 23 24  2  0  0  0
M  END
> <s_m_entry_id>
31221

> <s_m_entry_name>
dock_pv.434

> <s_m_Source_Path>
/home/csk/Desktop/cluster/DUD-E-result/rxra

> <s_m_Source_File>
dock_pv.maegz

> <i_m_Source_File_Index>
434

> <chembl_id>
CHEMBL2172212

> <chembl_pref_name>
None

> <i_lp_mmshare_version>
53161

> <r_lp_tautomer_probability>
1

> <s_lp_Force_Field>
OPLS_2005

> <r_lp_Energy>
46.877759

> <b_lp_Chiralities_Consistent>
1

> <s_lp_Variant>
CHEMBL2061_lig480-1

> <s_i_glide_gridfile>
glide-grid_1mv9

> <i_i_glide_lignum>
569

> <i_i_glide_rotatable_bonds>
3

> <r_i_docking_score>
-8.5097386240567

> <r_i_glide_ligand_efficiency>
-0.354572442669029

> <r_i_glide_ligand_efficiency_sa>
-1.02276390508104

> <r_i_glide_ligand_efficiency_ln>
-2.03677093919779

> <r_i_glide_gscore>
-8.5097386240567

> <r_i_glide_lipo>
-4.95103636836781

> <r_i_glide_hbond>
0

> <r_i_glide_metal>
0

> <r_i_glide_rewards>
-2.59342148584917

> <r_i_glide_evdw>
-30.9844017028809

> <r_i_glide_ecoul>
1.45374763011932

> <r_i_glide_erotb>
0.365877170786424

> <r_i_glide_esite>
0

> <r_i_glide_emodel>
-35.3371308724823

> <r_i_glide_energy>
-29.5306540727615

> <r_i_glide_einternal>
3.09328937530518

> <i_i_glide_confnum>
2

> <i_i_glide_posenum>
291

> <r_i_glide_eff_state_penalty>
0

> <s_user_duplicate_titles>
CHEMBL2061_lig480

> <i_f3d_flags>
0

> <s_m_subgroup_title>
dock_pv

> <s_m_subgroupid>
dock_pv

> <b_m_subgroup_collapsed>
1

$$$$
CHEMBL2061_lig486
                    3D
 Schrodinger Suite 2021-1.
 43 46  0  0  1  0            999 V2000
   65.1191   46.1632   34.9409 C   0  0  0  0  0  0
   66.1776   45.7900   34.1179 C   0  0  0  0  0  0
   65.9760   45.6765   32.7467 C   0  0  0  0  0  0
   63.8678   46.4446   34.4042 C   0  0  0  0  0  0
   63.6396   46.2943   33.0320 C   0  0  0  0  0  0
   64.7027   45.8974   32.2028 C   0  0  0  0  0  0
   64.4993   45.6259   30.7227 C   0  0  0  0  0  0
   63.2044   45.7832   30.2719 N   0  0  0  0  0  0
   62.2937   46.3940   32.4349 C   0  0  0  0  0  0
   62.1459   46.1259   31.1155 C   0  0  0  0  0  0
   60.9897   46.4752   33.0794 C   0  0  0  0  0  0
   60.0355   46.0776   32.0275 C   0  0  0  0  0  0
   60.6924   46.0765   30.8028 C   0  0  0  0  0  0
   59.9309   45.8773   29.6418 C   0  0  0  0  0  0
   58.5718   45.5754   29.7287 C   0  0  0  0  0  0
   57.9448   45.4311   30.9740 C   0  0  0  0  0  0
   58.6896   45.6778   32.1296 C   0  0  0  0  0  0
   60.7934   46.6673   34.2785 O   0  0  0  0  0  0
   65.4257   45.2527   29.9987 O   0  0  0  0  0  0
   62.9786   45.3670   28.8698 C   0  0  0  0  0  0
   63.2025   46.5123   27.8664 C   0  0  0  0  0  0
   62.3793   47.7747   28.1565 C   0  0  0  0  0  0
   62.8836   48.8464   27.3414 N   0  0  0  0  0  0
   56.6080   45.1261   31.1338 O   0  0  0  0  0  0
   55.8980   44.5705   30.0327 C   0  0  0  0  0  0
   65.2625   46.2395   36.0082 H   0  0  0  0  0  0
   67.1516   45.5874   34.5390 H   0  0  0  0  0  0
   66.8032   45.3674   32.1227 H   0  0  0  0  0  0
   63.0776   46.7295   35.0803 H   0  0  0  0  0  0
   60.3451   45.8978   28.6502 H   0  0  0  0  0  0
   58.0265   45.4202   28.8107 H   0  0  0  0  0  0
   58.1993   45.6223   33.0911 H   0  0  0  0  0  0
   63.6548   44.5537   28.5967 H   0  0  0  0  0  0
   62.0121   44.8921   28.7605 H   0  0  0  0  0  0
   64.2673   46.7582   27.8736 H   0  0  0  0  0  0
   62.9897   46.1536   26.8598 H   0  0  0  0  0  0
   61.3236   47.6294   27.9313 H   0  0  0  0  0  0
   62.4621   48.0819   29.1992 H   0  0  0  0  0  0
   62.8118   48.5904   26.3661 H   0  0  0  0  0  0
   62.3008   49.6629   27.4697 H   0  0  0  0  0  0
   54.9000   44.2759   30.3578 H   0  0  0  0  0  0
   55.7808   45.2915   29.2220 H   0  0  0  0  0  0
   56.3985   43.6784   29.6534 H   0  0  0  0  0  0
  1  2  2  0  0  0
  1  4  1  0  0  0
  1 26  1  0  0  0
  2  3  1  0  0  0
  2 27  1  0  0  0
  3  6  2  0  0  0
  3 28  1  0  0  0
  4  5  2  0  0  0
  4 29  1  0  0  0
  5  9  1  0  0  0
  5  6  1  0  0  0
  6  7  1  0  0  0
  7  8  1  0  0  0
  7 19  2  0  0  0
  8 10  1  0  0  0
  8 20  1  0  0  0
  9 11  1  0  0  0
  9 10  2  0  0  0
 10 13  1  0  0  0
 11 18  2  0  0  0
 11 12  1  0  0  0
 12 13  2  0  0  0
 12 17  1  0  0  0
 13 14  1  0  0  0
 14 15  2  0  0  0
 14 30  1  0  0  0
 15 16  1  0  0  0
 15 31  1  0  0  0
 16 17  2  0  0  0
 16 24  1  0  0  0
 17 32  1  0  0  0
 20 21  1  0  0  0
 20 33  1  0  0  0
 20 34  1  0  0  0
 21 22  1  0  0  0
 21 35  1  0  0  0
 21 36  1  0  0  0
 22 23  1  0  0  0
 22 37  1  0  0  0
 22 38  1  0  0  0
 23 39  1  0  0  0
 23 40  1  0  0  0
 24 25  1  0  0  0
 25 41  1  0  0  0
 25 42  1  0  0  0
 25 43  1  0  0  0
M  END
> <s_m_entry_id>
31222

> <s_m_entry_name>
dock_pv.435

> <s_m_Source_Path>
/home/csk/Desktop/cluster/DUD-E-result/rxra

> <s_m_Source_File>
dock_pv.maegz

> <i_m_Source_File_Index>
435

> <chembl_id>
CHEMBL242857

> <chembl_pref_name>
None

> <i_lp_mmshare_version>
53161

> <r_lp_tautomer_probability>
1

> <s_lp_Force_Field>
OPLS_2005

> <r_lp_Energy>
48.99972

> <b_lp_Chiralities_Consistent>
1

> <s_lp_Variant>
CHEMBL2061_lig486-1

> <s_i_glide_gridfile>
glide-grid_1mv9

> <i_i_glide_lignum>
575

> <i_i_glide_rotatable_bonds>
4

> <r_i_docking_score>
-8.49352990229046

> <r_i_glide_ligand_efficiency>
-0.339741196091618

> <r_i_glide_ligand_efficiency_sa>
-0.993409282707661

> <r_i_glide_ligand_efficiency_ln>
-2.01322111739466

> <r_i_glide_gscore>
-8.49352990229046

> <r_i_glide_lipo>
-4.98641221328106

> <r_i_glide_hbond>
0

> <r_i_glide_metal>
0

> <r_i_glide_rewards>
-2.55224680722535

> <r_i_glide_evdw>
-29.0342674255371

> <r_i_glide_ecoul>
1.06311941146851

> <r_i_glide_erotb>
0.337374577772525

> <r_i_glide_esite>
0

> <r_i_glide_emodel>
-33.5029107711834

> <r_i_glide_energy>
-27.9711480140686

> <r_i_glide_einternal>
4.45442628860474

> <i_i_glide_confnum>
2

> <i_i_glide_posenum>
2

> <r_i_glide_eff_state_penalty>
0

> <s_user_duplicate_titles>
CHEMBL2061_lig486

> <i_f3d_flags>
0

> <s_m_subgroup_title>
dock_pv

> <s_m_subgroupid>
dock_pv

> <b_m_subgroup_collapsed>
1

$$$$
CHEMBL2061_lig472
                    3D
 Schrodinger Suite 2021-1.
 54 55  0  0  1  0            999 V2000
   63.8862   45.6739   31.8252 C   0  0  0  0  0  0
   62.8516   46.5751   32.1285 C   0  0  0  0  0  0
   61.8320   46.8054   31.2068 C   0  0  0  0  0  0
   61.8155   46.1495   29.9752 C   0  0  0  0  0  0
   62.8473   45.2529   29.6725 C   0  0  0  0  0  0
   63.8737   45.0188   30.5871 C   0  0  0  0  0  0
   65.0054   45.3821   32.8306 C   0  0  0  0  0  0
   66.3886   45.7944   32.3055 C   0  0  0  0  0  0
   62.8345   47.2678   33.3118 O   0  0  0  0  0  0
   60.7689   46.4143   29.0621 N   0  0  0  0  0  0
   59.4034   46.0771   29.3077 C   0  0  0  0  0  0
   61.1850   46.7820   27.6874 C   0  0  0  0  0  0
   62.4779   47.6164   27.5525 C   0  0  0  0  0  0
   59.0633   45.6041   30.5390 N   0  0  0  0  0  0
   57.7724   45.2852   30.8227 C   0  0  0  0  0  0
   56.7260   45.4703   29.9083 C   0  0  0  0  0  0
   57.0737   45.9325   28.6387 C   0  0  0  0  0  0
   58.4077   46.2068   28.3336 C   0  0  0  0  0  0
   55.2745   45.2894   30.2763 C   0  0  0  0  0  0
   54.3652   45.8540   29.6711 O   0  0  0  0  0  0
   55.0430   44.4771   31.3387 O   0  0  0  0  0  0
   61.9277   46.7655   34.2844 C   0  0  0  0  0  0
   64.9746   43.9233   33.3287 C   0  0  0  0  0  0
   62.2731   47.3934   35.6445 C   0  0  0  0  0  0
   63.7237   47.1403   36.1155 C   0  0  0  0  0  0
   64.0873   45.6725   36.3959 C   0  0  0  0  0  0
   61.0547   47.5121   31.4514 H   0  0  0  0  0  0
   62.8510   44.7294   28.7279 H   0  0  0  0  0  0
   64.6564   44.3180   30.3342 H   0  0  0  0  0  0
   64.8416   46.0050   33.7060 H   0  0  0  0  0  0
   66.3985   46.8504   32.0330 H   0  0  0  0  0  0
   67.1517   45.6524   33.0721 H   0  0  0  0  0  0
   66.6821   45.2162   31.4286 H   0  0  0  0  0  0
   61.2636   45.8744   27.0874 H   0  0  0  0  0  0
   60.4194   47.3930   27.2146 H   0  0  0  0  0  0
   62.5912   47.9836   26.5322 H   0  0  0  0  0  0
   62.4582   48.4853   28.2111 H   0  0  0  0  0  0
   63.3754   47.0406   27.7771 H   0  0  0  0  0  0
   57.6051   44.9649   31.8401 H   0  0  0  0  0  0
   56.3183   46.0819   27.8795 H   0  0  0  0  0  0
   58.6283   46.5416   27.3392 H   0  0  0  0  0  0
   55.8426   44.0370   31.6304 H   0  0  0  0  0  0
   61.9723   45.6772   34.3492 H   0  0  0  0  0  0
   60.9047   47.0211   34.0037 H   0  0  0  0  0  0
   63.9908   43.6548   33.7140 H   0  0  0  0  0  0
   65.2077   43.2152   32.5380 H   0  0  0  0  0  0
   65.6958   43.7653   34.1319 H   0  0  0  0  0  0
   61.5538   47.0480   36.3854 H   0  0  0  0  0  0
   62.1175   48.4709   35.5745 H   0  0  0  0  0  0
   63.9214   47.7141   37.0155 H   0  0  0  0  0  0
   64.4111   47.5466   35.3730 H   0  0  0  0  0  0
   65.1632   45.5771   36.5382 H   0  0  0  0  0  0
   63.8094   45.0187   35.5747 H   0  0  0  0  0  0
   63.6089   45.2769   37.2897 H   0  0  0  0  0  0
  1  6  1  0  0  0
  1  2  2  0  0  0
  1  7  1  0  0  0
  2  9  1  0  0  0
  2  3  1  0  0  0
  3  4  2  0  0  0
  3 27  1  0  0  0
  4  5  1  0  0  0
  4 10  1  0  0  0
  5  6  2  0  0  0
  5 28  1  0  0  0
  6 29  1  0  0  0
  7  8  1  0  0  0
  7 23  1  0  0  0
  7 30  1  0  0  0
  8 31  1  0  0  0
  8 32  1  0  0  0
  8 33  1  0  0  0
  9 22  1  0  0  0
 10 11  1  0  0  0
 10 12  1  0  0  0
 11 14  2  0  0  0
 11 18  1  0  0  0
 12 13  1  0  0  0
 12 34  1  0  0  0
 12 35  1  0  0  0
 13 36  1  0  0  0
 13 37  1  0  0  0
 13 38  1  0  0  0
 14 15  1  0  0  0
 15 16  2  0  0  0
 15 39  1  0  0  0
 16 17  1  0  0  0
 16 19  1  0  0  0
 17 18  2  0  0  0
 17 40  1  0  0  0
 18 41  1  0  0  0
 19 20  2  0  0  0
 19 21  1  0  0  0
 21 42  1  0  0  0
 22 24  1  0  0  0
 22 43  1  0  0  0
 22 44  1  0  0  0
 23 45  1  0  0  0
 23 46  1  0  0  0
 23 47  1  0  0  0
 24 25  1  0  0  0
 24 48  1  0  0  0
 24 49  1  0  0  0
 25 26  1  0  0  0
 25 50  1  0  0  0
 25 51  1  0  0  0
 26 52  1  0  0  0
 26 53  1  0  0  0
 26 54  1  0  0  0
M  END
> <s_m_entry_id>
31223

> <s_m_entry_name>
dock_pv.436

> <s_m_Source_Path>
/home/csk/Desktop/cluster/DUD-E-result/rxra

> <s_m_Source_File>
dock_pv.maegz

> <i_m_Source_File_Index>
436

> <chembl_id>
CHEMBL1688389

> <chembl_pref_name>
None

> <i_lp_mmshare_version>
53161

> <r_lp_tautomer_probability>
1

> <s_lp_Force_Field>
OPLS_2005

> <r_lp_Energy>
21.461011

> <b_lp_Chiralities_Consistent>
1

> <s_lp_Variant>
CHEMBL2061_lig472-1

> <s_i_glide_gridfile>
glide-grid_1mv9

> <i_i_glide_lignum>
561

> <i_i_glide_rotatable_bonds>
10

> <r_i_docking_score>
-8.4847334291651

> <r_i_glide_ligand_efficiency>
-0.326335901121734

> <r_i_glide_ligand_efficiency_sa>
-0.966768823003373

> <r_i_glide_ligand_efficiency_ln>
-1.99261180515825

> <r_i_glide_gscore>
-8.4847334291651

> <r_i_glide_lipo>
-5.75830159821944

> <r_i_glide_hbond>
-0.0126208137494519

> <r_i_glide_metal>
0

> <r_i_glide_rewards>
-1.0627883961836

> <r_i_glide_evdw>
-45.7219543457031

> <r_i_glide_ecoul>
-1.78920316696167

> <r_i_glide_erotb>
0.903455571316802

> <r_i_glide_esite>
0

> <r_i_glide_emodel>
-66.9575120074053

> <r_i_glide_energy>
-47.5111575126648

> <r_i_glide_einternal>
12.6805686950684

> <i_i_glide_confnum>
102

> <i_i_glide_posenum>
270

> <r_i_glide_eff_state_penalty>
0

> <s_user_duplicate_titles>
CHEMBL2061_lig472

> <i_f3d_flags>
0

> <s_m_subgroup_title>
dock_pv

> <s_m_subgroupid>
dock_pv

> <b_m_subgroup_collapsed>
1

$$$$
CHEMBL2061_lig142
                    3D
 Schrodinger Suite 2021-1.
 67 67  0  0  1  0            999 V2000
   62.7447   46.2868   30.9028 C   0  0  0  0  0  0
   63.9781   45.2409   32.7614 C   0  0  0  0  0  0
   63.6407   45.2877   31.3772 C   0  0  0  0  0  0
   62.6110   47.2398   33.1440 C   0  0  0  0  0  0
   62.2125   47.2075   31.8058 C   0  0  0  0  0  0
   63.4008   46.1925   33.6048 C   0  0  0  0  0  0
   62.3737   46.5271   29.4724 C   0  0  0  0  0  0
   56.2760   45.8849   29.2823 C   0  0  0  0  0  0
   65.0607   44.3028   33.3778 C   0  0  0  0  0  0
   54.9425   45.6348   29.7813 C   0  0  0  0  0  0
   62.3329   48.4374   34.0939 C   0  0  0  0  0  0
   59.9185   46.0907   29.7686 C   0  0  0  0  0  0
   57.4449   45.7276   29.9575 C   0  0  0  0  0  0
   61.1010   46.4662   29.0035 C   0  0  0  0  0  0
   58.6761   46.0742   29.2405 C   0  0  0  0  0  0
   54.6100   44.7253   30.5392 O   0  0  0  0  0  0
   64.2591   44.4360   30.4818 O   0  0  0  0  0  0
   54.0621   46.5516   29.2926 O   0  0  0  0  0  0
   63.4981   46.9389   28.5291 C   0  0  0  0  0  0
   65.1374   44.3249   34.9363 C   0  0  0  0  0  0
   66.4208   44.8263   32.8537 C   0  0  0  0  0  0
   64.8049   42.8084   33.0564 C   0  0  0  0  0  0
   62.0079   49.7657   33.3245 C   0  0  0  0  0  0
   63.6252   48.7535   34.8925 C   0  0  0  0  0  0
   61.2157   48.0412   35.0840 C   0  0  0  0  0  0
   57.5223   45.2707   31.4175 C   0  0  0  0  0  0
   63.6087   43.2000   30.1487 C   0  0  0  0  0  0
   62.3095   43.3560   29.3365 C   0  0  0  0  0  0
   62.6138   43.5430   27.8980 C   0  0  0  0  0  0
   61.5327   47.9369   31.3994 H   0  0  0  0  0  0
   63.6370   46.1861   34.6519 H   0  0  0  0  0  0
   56.2988   46.2371   28.2640 H   0  0  0  0  0  0
   60.0588   45.8124   30.8016 H   0  0  0  0  0  0
   60.9433   46.7060   27.9600 H   0  0  0  0  0  0
   58.5922   46.3519   28.1986 H   0  0  0  0  0  0
   54.5162   47.1974   28.7460 H   0  0  0  0  0  0
   64.4524   46.4967   28.8133 H   0  0  0  0  0  0
   63.2823   46.6563   27.4965 H   0  0  0  0  0  0
   63.6007   48.0232   28.5312 H   0  0  0  0  0  0
   64.1648   44.1287   35.3858 H   0  0  0  0  0  0
   65.8112   43.5528   35.3173 H   0  0  0  0  0  0
   65.5087   45.2708   35.3288 H   0  0  0  0  0  0
   66.6241   44.4846   31.8413 H   0  0  0  0  0  0
   66.4362   45.9152   32.8317 H   0  0  0  0  0  0
   67.2612   44.5550   33.4877 H   0  0  0  0  0  0
   65.2009   42.5417   32.0856 H   0  0  0  0  0  0
   65.3153   42.0958   33.7029 H   0  0  0  0  0  0
   63.7442   42.5587   33.1281 H   0  0  0  0  0  0
   61.7376   49.6606   32.2871 H   0  0  0  0  0  0
   61.2074   50.3474   33.7389 H   0  0  0  0  0  0
   62.8098   50.4926   33.3361 H   0  0  0  0  0  0
   63.8995   47.9918   35.6197 H   0  0  0  0  0  0
   64.4256   48.8418   34.1549 H   0  0  0  0  0  0
   63.6082   49.6759   35.4636 H   0  0  0  0  0  0
   61.5421   47.2407   35.7530 H   0  0  0  0  0  0
   60.9007   48.8758   35.7104 H   0  0  0  0  0  0
   60.3371   47.6537   34.5710 H   0  0  0  0  0  0
   58.1731   45.9446   31.9762 H   0  0  0  0  0  0
   56.5802   45.2967   31.9535 H   0  0  0  0  0  0
   57.9770   44.2832   31.4879 H   0  0  0  0  0  0
   64.3343   42.5858   29.6143 H   0  0  0  0  0  0
   63.3862   42.5853   31.0137 H   0  0  0  0  0  0
   61.6972   42.4773   29.3777 H   0  0  0  0  0  0
   61.6523   44.1076   29.7346 H   0  0  0  0  0  0
   61.7456   43.5856   27.2512 H   0  0  0  0  0  0
   63.2141   44.4340   27.7392 H   0  0  0  0  0  0
   63.1950   42.6432   27.7228 H   0  0  0  0  0  0
  1  3  1  0  0  0
  1  5  2  0  0  0
  1  7  1  0  0  0
  2  3  2  0  0  0
  2  9  1  0  0  0
  2  6  1  0  0  0
  3 17  1  0  0  0
  4  5  1  0  0  0
  4  6  2  0  0  0
  4 11  1  0  0  0
  5 30  1  0  0  0
  6 31  1  0  0  0
  7 14  2  0  0  0
  7 19  1  0  0  0
  8 13  2  0  0  0
  8 10  1  0  0  0
  8 32  1  0  0  0
  9 20  1  0  0  0
  9 21  1  0  0  0
  9 22  1  0  0  0
 10 16  2  0  0  0
 10 18  1  0  0  0
 11 23  1  0  0  0
 11 24  1  0  0  0
 11 25  1  0  0  0
 12 14  1  0  0  0
 12 15  2  0  0  0
 12 33  1  0  0  0
 13 15  1  0  0  0
 13 26  1  0  0  0
 14 34  1  0  0  0
 15 35  1  0  0  0
 17 27  1  0  0  0
 18 36  1  0  0  0
 19 37  1  0  0  0
 19 38  1  0  0  0
 19 39  1  0  0  0
 20 40  1  0  0  0
 20 41  1  0  0  0
 20 42  1  0  0  0
 21 43  1  0  0  0
 21 44  1  0  0  0
 21 45  1  0  0  0
 22 46  1  0  0  0
 22 47  1  0  0  0
 22 48  1  0  0  0
 23 49  1  0  0  0
 23 50  1  0  0  0
 23 51  1  0  0  0
 24 52  1  0  0  0
 24 53  1  0  0  0
 24 54  1  0  0  0
 25 55  1  0  0  0
 25 56  1  0  0  0
 25 57  1  0  0  0
 26 58  1  0  0  0
 26 59  1  0  0  0
 26 60  1  0  0  0
 27 28  1  0  0  0
 27 61  1  0  0  0
 27 62  1  0  0  0
 28 29  1  0  0  0
 28 63  1  0  0  0
 28 64  1  0  0  0
 29 65  1  0  0  0
 29 66  1  0  0  0
 29 67  1  0  0  0
M  END
> <s_m_entry_id>
31225

> <s_m_entry_name>
dock_pv.438

> <s_m_Source_Path>
/home/csk/Desktop/cluster/DUD-E-result/rxra

> <s_m_Source_File>
dock_pv.maegz

> <i_m_Source_File_Index>
438

> <chembl_id>
CHEMBL420249

> <chembl_pref_name>
None

> <i_lp_mmshare_version>
53161

> <r_lp_tautomer_probability>
1

> <s_lp_Force_Field>
OPLS_2005

> <r_lp_Energy>
37.507278

> <b_lp_Chiralities_Consistent>
1

> <s_lp_Variant>
CHEMBL2061_lig142-1

> <s_i_glide_gridfile>
glide-grid_1mv9

> <i_i_glide_lignum>
181

> <i_i_glide_rotatable_bonds>
10

> <r_i_docking_score>
-8.4758492992083

> <r_i_glide_ligand_efficiency>
-0.292270665489941

> <r_i_glide_ligand_efficiency_sa>
-0.897948082231261

> <r_i_glide_ligand_efficiency_ln>
-1.94075456052505

> <r_i_glide_gscore>
-8.4758492992083

> <r_i_glide_lipo>
-5.4825843113434

> <r_i_glide_hbond>
-0.0652923318770871

> <r_i_glide_metal>
0

> <r_i_glide_rewards>
-1.80890848155202

> <r_i_glide_evdw>
-26.922420501709

> <r_i_glide_ecoul>
-3.41779184341431

> <r_i_glide_erotb>
0.739725627161808

> <r_i_glide_esite>
0

> <r_i_glide_emodel>
-56.822243113203

> <r_i_glide_energy>
-30.3402123451233

> <r_i_glide_einternal>
5.06620359420776

> <i_i_glide_confnum>
83

> <i_i_glide_posenum>
19

> <r_i_glide_eff_state_penalty>
0

> <s_user_duplicate_titles>
CHEMBL2061_lig142,147288

> <i_f3d_flags>
0

> <s_m_subgroup_title>
dock_pv

> <s_m_subgroupid>
dock_pv

> <b_m_subgroup_collapsed>
1

$$$$
CHEMBL2061_lig542 
                    3D
 Schrodinger Suite 2021-1.
 40 42  0  0  1  0            999 V2000
   62.5616   47.5500   33.3638 C   0  0  0  0  0  0
   62.6224   47.2770   32.0017 C   0  0  0  0  0  0
   63.5211   46.3299   31.4803 C   0  0  0  0  0  0
   64.3862   45.6827   32.3830 C   0  0  0  0  0  0
   63.3872   46.8560   34.2367 C   0  0  0  0  0  0
   64.3013   45.9241   33.7534 C   0  0  0  0  0  0
   65.1355   45.3647   34.8841 C   0  0  0  0  0  0
   64.4123   45.8473   36.1454 C   0  0  0  0  0  0
   63.4948   46.9987   35.7256 C   0  0  0  0  0  0
   63.5240   46.0163   30.0936 N   0  0  0  0  0  0
   62.6715   46.7356   29.1271 C   0  0  0  0  0  0
   61.1733   46.3909   29.1703 C   0  0  0  0  0  0
   60.5851   45.6770   30.2151 C   0  0  0  0  0  0
   59.2171   45.4111   30.2436 C   0  0  0  0  0  0
   58.3992   45.8229   29.1976 C   0  0  0  0  0  0
   58.9969   46.5262   28.1495 C   0  0  0  0  0  0
   60.3562   46.8233   28.1313 C   0  0  0  0  0  0
   56.9144   45.5310   29.2005 C   0  0  0  0  0  0
   56.5231   44.5822   30.0981 O   0  0  0  0  0  0
   56.1274   46.0770   28.4311 O   0  0  0  0  0  0
   64.5698   45.1490   29.5552 C   0  0  0  0  0  0
   61.8749   48.2949   33.7322 H   0  0  0  0  0  0
   61.9543   47.8276   31.3594 H   0  0  0  0  0  0
   65.1154   44.9670   32.0412 H   0  0  0  0  0  0
   65.2100   44.2767   34.8683 H   0  0  0  0  0  0
   66.1481   45.7704   34.8550 H   0  0  0  0  0  0
   65.1057   46.1281   36.9386 H   0  0  0  0  0  0
   63.8039   45.0332   36.5428 H   0  0  0  0  0  0
   63.9231   47.9595   36.0143 H   0  0  0  0  0  0
   62.4954   46.9093   36.1393 H   0  0  0  0  0  0
   63.0234   46.5434   28.1121 H   0  0  0  0  0  0
   62.7912   47.8106   29.2695 H   0  0  0  0  0  0
   61.1902   45.2973   31.0198 H   0  0  0  0  0  0
   58.8080   44.8819   31.0918 H   0  0  0  0  0  0
   58.4079   46.8767   27.3390 H   0  0  0  0  0  0
   60.7687   47.3839   27.3046 H   0  0  0  0  0  0
   57.2878   44.1581   30.4874 H   0  0  0  0  0  0
   64.6458   44.2172   30.1162 H   0  0  0  0  0  0
   64.3686   44.8770   28.5243 H   0  0  0  0  0  0
   65.5380   45.6493   29.5974 H   0  0  0  0  0  0
  1  5  1  0  0  0
  1  2  2  0  0  0
  1 22  1  0  0  0
  2  3  1  0  0  0
  2 23  1  0  0  0
  3  4  2  0  0  0
  3 10  1  0  0  0
  4  6  1  0  0  0
  4 24  1  0  0  0
  5  6  2  0  0  0
  5  9  1  0  0  0
  6  7  1  0  0  0
  7  8  1  0  0  0
  7 25  1  0  0  0
  7 26  1  0  0  0
  8  9  1  0  0  0
  8 27  1  0  0  0
  8 28  1  0  0  0
  9 29  1  0  0  0
  9 30  1  0  0  0
 10 11  1  0  0  0
 10 21  1  0  0  0
 11 12  1  0  0  0
 11 31  1  0  0  0
 11 32  1  0  0  0
 12 13  2  0  0  0
 12 17  1  0  0  0
 13 14  1  0  0  0
 13 33  1  0  0  0
 14 15  2  0  0  0
 14 34  1  0  0  0
 15 16  1  0  0  0
 15 18  1  0  0  0
 16 17  2  0  0  0
 16 35  1  0  0  0
 17 36  1  0  0  0
 18 19  1  0  0  0
 18 20  2  0  0  0
 19 37  1  0  0  0
 21 38  1  0  0  0
 21 39  1  0  0  0
 21 40  1  0  0  0
M  END
> <s_m_entry_id>
31226

> <s_m_entry_name>
dock_pv.439

> <s_m_Source_Path>
/home/csk/Desktop/cluster/DUD-E-result/rxra

> <s_m_Source_File>
dock_pv.maegz

> <i_m_Source_File_Index>
439

> <chembl_id>
CHEMBL4464986

> <chembl_pref_name>
None

> <i_lp_mmshare_version>
53161

> <r_lp_tautomer_probability>
1

> <s_lp_Force_Field>
OPLS_2005

> <r_lp_Energy>
27.936676

> <b_lp_Chiralities_Consistent>
1

> <s_lp_Variant>
CHEMBL2061_lig542 -1

> <s_i_glide_gridfile>
glide-grid_1mv9

> <i_i_glide_lignum>
642

> <i_i_glide_rotatable_bonds>
5

> <r_i_docking_score>
-8.45103410710749

> <r_i_glide_ligand_efficiency>
-0.402430195576547

> <r_i_glide_ligand_efficiency_sa>
-1.11027439475517

> <r_i_glide_ligand_efficiency_ln>
-2.08950110605998

> <r_i_glide_gscore>
-8.45103410710749

> <r_i_glide_lipo>
-4.43789941351963

> <r_i_glide_hbond>
0

> <r_i_glide_metal>
0

> <r_i_glide_rewards>
-3.12491930047118

> <r_i_glide_evdw>
-34.8649711608887

> <r_i_glide_ecoul>
-0.389072805643082

> <r_i_glide_erotb>
0.913394085774219

> <r_i_glide_esite>
0

> <r_i_glide_emodel>
-53.2093672314169

> <r_i_glide_energy>
-35.2540439665318

> <r_i_glide_einternal>
2.59551072120667

> <i_i_glide_confnum>
8

> <i_i_glide_posenum>
147

> <r_i_glide_eff_state_penalty>
0

> <s_user_duplicate_titles>
CHEMBL2061_lig542 

> <i_f3d_flags>
0

> <s_m_subgroup_title>
dock_pv

> <s_m_subgroupid>
dock_pv

> <b_m_subgroup_collapsed>
1

$$$$
CHEMBL2061_lig251
                    3D
 Schrodinger Suite 2021-1.
 51 52  0  0  1  0            999 V2000
   63.4431   46.2978   31.3162 C   0  0  0  0  0  0
   54.5124   45.3881   29.7390 C   0  0  0  0  0  0
   62.5751   46.7537   32.2625 C   0  0  0  0  0  0
   64.6133   45.3426   31.6768 C   0  0  0  0  0  0
   63.4107   46.8192   29.8626 C   0  0  0  0  0  0
   60.2807   45.5683   29.4558 C   0  0  0  0  0  0
   56.0043   45.4395   29.6591 C   0  0  0  0  0  0
   61.1602   46.2599   28.6945 C   0  0  0  0  0  0
   53.7986   46.3534   29.4680 O   0  0  0  0  0  0
   56.6182   46.4769   28.9630 C   0  0  0  0  0  0
   56.7905   44.4770   30.2906 C   0  0  0  0  0  0
   58.8022   45.5881   29.5302 C   0  0  0  0  0  0
   62.6464   45.9651   28.8240 C   0  0  0  0  0  0
   54.0080   44.1610   30.0229 O   0  0  0  0  0  0
   58.1725   44.5368   30.1973 C   0  0  0  0  0  0
   58.0081   46.5640   28.9390 C   0  0  0  0  0  0
   62.5897   46.2955   33.7240 C   0  0  0  0  0  0
   64.3372   44.5917   33.0103 C   0  0  0  0  0  0
   61.4185   47.6867   31.9561 C   0  0  0  0  0  0
   65.8952   46.1831   31.8849 C   0  0  0  0  0  0
   64.7545   44.2876   30.5631 C   0  0  0  0  0  0
   63.8555   45.5247   34.1267 C   0  0  0  0  0  0
   60.8068   47.2959   27.6340 C   0  0  0  0  0  0
   63.0567   47.8470   29.8202 H   0  0  0  0  0  0
   64.4446   46.8770   29.5247 H   0  0  0  0  0  0
   60.7323   44.8652   30.1390 H   0  0  0  0  0  0
   56.0080   47.2629   28.5390 H   0  0  0  0  0  0
   56.3411   43.6770   30.8544 H   0  0  0  0  0  0
   63.1152   46.0833   27.8460 H   0  0  0  0  0  0
   62.7556   44.9029   29.0314 H   0  0  0  0  0  0
   53.0925   44.1509   29.7390 H   0  0  0  0  0  0
   58.7530   43.7470   30.6458 H   0  0  0  0  0  0
   58.4545   47.4381   28.5090 H   0  0  0  0  0  0
   61.7079   45.6770   33.8856 H   0  0  0  0  0  0
   62.4279   47.1388   34.3969 H   0  0  0  0  0  0
   65.2331   44.0641   33.3429 H   0  0  0  0  0  0
   63.6080   43.8006   32.8562 H   0  0  0  0  0  0
   61.6080   48.6576   32.4128 H   0  0  0  0  0  0
   61.2230   47.8545   30.9012 H   0  0  0  0  0  0
   60.5047   47.2721   32.3799 H   0  0  0  0  0  0
   66.6740   45.6149   32.3948 H   0  0  0  0  0  0
   66.3269   46.4770   30.9390 H   0  0  0  0  0  0
   65.7143   47.0884   32.4664 H   0  0  0  0  0  0
   65.6080   43.6770   30.7539 H   0  0  0  0  0  0
   63.8898   43.6265   30.4914 H   0  0  0  0  0  0
   64.9582   44.7180   29.5850 H   0  0  0  0  0  0
   63.6672   44.9542   35.0372 H   0  0  0  0  0  0
   64.6448   46.2327   34.3822 H   0  0  0  0  0  0
   61.6305   47.4706   26.9415 H   0  0  0  0  0  0
   59.9639   46.9688   27.0278 H   0  0  0  0  0  0
   60.5756   48.2536   28.1009 H   0  0  0  0  0  0
  1  3  2  0  0  0
  1  4  1  0  0  0
  1  5  1  0  0  0
  2  7  1  0  0  0
  2  9  2  0  0  0
  2 14  1  0  0  0
  3 17  1  0  0  0
  3 19  1  0  0  0
  4 18  1  0  0  0
  4 20  1  0  0  0
  4 21  1  0  0  0
  5 13  1  0  0  0
  5 24  1  0  0  0
  5 25  1  0  0  0
  6  8  2  0  0  0
  6 12  1  0  0  0
  6 26  1  0  0  0
  7 10  2  0  0  0
  7 11  1  0  0  0
  8 13  1  0  0  0
  8 23  1  0  0  0
 10 16  1  0  0  0
 10 27  1  0  0  0
 11 15  2  0  0  0
 11 28  1  0  0  0
 12 15  1  0  0  0
 12 16  2  0  0  0
 13 29  1  0  0  0
 13 30  1  0  0  0
 14 31  1  0  0  0
 15 32  1  0  0  0
 16 33  1  0  0  0
 17 22  1  0  0  0
 17 34  1  0  0  0
 17 35  1  0  0  0
 18 22  1  0  0  0
 18 36  1  0  0  0
 18 37  1  0  0  0
 19 38  1  0  0  0
 19 39  1  0  0  0
 19 40  1  0  0  0
 20 41  1  0  0  0
 20 42  1  0  0  0
 20 43  1  0  0  0
 21 44  1  0  0  0
 21 45  1  0  0  0
 21 46  1  0  0  0
 22 47  1  0  0  0
 22 48  1  0  0  0
 23 49  1  0  0  0
 23 50  1  0  0  0
 23 51  1  0  0  0
M  END
> <s_m_entry_id>
31227

> <s_m_entry_name>
dock_pv.440

> <s_m_Source_Path>
/home/csk/Desktop/cluster/DUD-E-result/rxra

> <s_m_Source_File>
dock_pv.maegz

> <i_m_Source_File_Index>
440

> <chembl_id>
CHEMBL36718

> <chembl_pref_name>
None

> <i_lp_mmshare_version>
53161

> <r_lp_tautomer_probability>
1

> <s_lp_Force_Field>
OPLS_2005

> <r_lp_Energy>
26.882266

> <b_lp_Chiralities_Consistent>
1

> <s_lp_Variant>
CHEMBL2061_lig251-1

> <s_i_glide_gridfile>
glide-grid_1mv9

> <i_i_glide_lignum>
293

> <i_i_glide_rotatable_bonds>
6

> <r_i_docking_score>
-8.42957722237423

> <r_i_glide_ligand_efficiency>
-0.366503357494532

> <r_i_glide_ligand_efficiency_sa>
-1.04228679529407

> <r_i_glide_ligand_efficiency_ln>
-2.0383482075504

> <r_i_glide_gscore>
-8.42957722237423

> <r_i_glide_lipo>
-5.26916410523225

> <r_i_glide_hbond>
-0.197154766285761

> <r_i_glide_metal>
0

> <r_i_glide_rewards>
-2.41305781880296

> <r_i_glide_evdw>
-27.753978729248

> <r_i_glide_ecoul>
-0.753961801528931

> <r_i_glide_erotb>
0.950592674638487

> <r_i_glide_esite>
0

> <r_i_glide_emodel>
-34.6819130572575

> <r_i_glide_energy>
-28.507940530777

> <r_i_glide_einternal>
3.41049814224243

> <i_i_glide_confnum>
202

> <i_i_glide_posenum>
83

> <r_i_glide_eff_state_penalty>
0

> <s_user_duplicate_titles>
CHEMBL2061_lig251

> <i_f3d_flags>
0

> <s_m_subgroup_title>
dock_pv

> <s_m_subgroupid>
dock_pv

> <b_m_subgroup_collapsed>
1

$$$$
CHEMBL2061_lig550 
                    3D
 Schrodinger Suite 2021-1.
 35 36  0  0  1  0            999 V2000
   62.0027   46.6606   30.0362 C   0  0  0  0  0  0
   61.9890   47.2673   28.7822 C   0  0  0  0  0  0
   60.7816   47.2679   28.0857 C   0  0  0  0  0  0
   59.6619   46.6667   28.5728 N   0  0  0  0  0  0
   59.7763   46.0781   29.7937 C   0  0  0  0  0  0
   60.8954   46.0764   30.5587 N   0  0  0  0  0  0
   63.2046   46.6383   30.7497 N   0  0  0  0  0  0
   63.4756   46.4204   32.1111 C   0  0  0  0  0  0
   64.6796   45.8041   32.5085 C   0  0  0  0  0  0
   64.9566   45.6413   33.8841 C   0  0  0  0  0  0
   64.0607   46.1518   34.8400 C   0  0  0  0  0  0
   62.8761   46.7583   34.4327 C   0  0  0  0  0  0
   62.5795   46.8803   33.0798 C   0  0  0  0  0  0
   58.3665   45.2768   30.4996 S   0  0  0  0  0  0
   56.9410   45.5464   29.4119 C   0  0  0  0  0  0
   55.6104   45.2476   30.1066 C   0  0  0  0  0  0
   54.7966   44.4773   29.3394 O   0  0  0  0  0  0
   55.2998   45.6762   31.2149 O   0  0  0  0  0  0
   60.7234   48.0764   26.5682 Cl  0  0  0  0  0  0
   64.3946   46.0753   36.5391 Cl  0  0  0  0  0  0
   65.6837   45.3330   31.4485 C   0  0  0  0  0  0
   66.1948   44.8791   34.3490 C   0  0  0  0  0  0
   62.8677   47.7397   28.3701 H   0  0  0  0  0  0
   64.0138   46.8931   30.2089 H   0  0  0  0  0  0
   62.1867   47.1463   35.1686 H   0  0  0  0  0  0
   61.6635   47.3718   32.7883 H   0  0  0  0  0  0
   57.0689   44.9094   28.5394 H   0  0  0  0  0  0
   56.9367   46.5757   29.0557 H   0  0  0  0  0  0
   55.2080   44.1403   28.5378 H   0  0  0  0  0  0
   66.7083   45.3128   31.8180 H   0  0  0  0  0  0
   65.4133   44.3431   31.0806 H   0  0  0  0  0  0
   65.7131   46.0112   30.5966 H   0  0  0  0  0  0
   66.4451   44.0724   33.6620 H   0  0  0  0  0  0
   67.0534   45.5431   34.4547 H   0  0  0  0  0  0
   66.0089   44.3773   35.2966 H   0  0  0  0  0  0
  1  2  2  0  0  0
  1  6  1  0  0  0
  1  7  1  0  0  0
  2  3  1  0  0  0
  2 23  1  0  0  0
  3  4  2  0  0  0
  3 19  1  0  0  0
  4  5  1  0  0  0
  5  6  2  0  0  0
  5 14  1  0  0  0
  7  8  1  0  0  0
  7 24  1  0  0  0
  8  9  2  0  0  0
  8 13  1  0  0  0
  9 10  1  0  0  0
  9 21  1  0  0  0
 10 11  2  0  0  0
 10 22  1  0  0  0
 11 12  1  0  0  0
 11 20  1  0  0  0
 12 13  2  0  0  0
 12 25  1  0  0  0
 13 26  1  0  0  0
 14 15  1  0  0  0
 15 16  1  0  0  0
 15 27  1  0  0  0
 15 28  1  0  0  0
 16 17  1  0  0  0
 16 18  2  0  0  0
 17 29  1  0  0  0
 21 30  1  0  0  0
 21 31  1  0  0  0
 21 32  1  0  0  0
 22 33  1  0  0  0
 22 34  1  0  0  0
 22 35  1  0  0  0
M  END
> <s_m_entry_id>
31228

> <s_m_entry_name>
dock_pv.441

> <s_m_Source_Path>
/home/csk/Desktop/cluster/DUD-E-result/rxra

> <s_m_Source_File>
dock_pv.maegz

> <i_m_Source_File_Index>
441

> <chembl_id>
CHEMBL4443400

> <chembl_pref_name>
None

> <i_lp_mmshare_version>
53161

> <r_lp_tautomer_probability>
0.999999998296584

> <s_lp_Force_Field>
OPLS_2005

> <r_lp_Energy>
6.215527

> <b_lp_Chiralities_Consistent>
1

> <s_lp_Variant>
CHEMBL2061_lig550 -1

> <s_i_glide_gridfile>
glide-grid_1mv9

> <i_i_glide_lignum>
650

> <i_i_glide_rotatable_bonds>
6

> <r_i_docking_score>
-8.4287583648649

> <r_i_glide_ligand_efficiency>
-0.383125380221132

> <r_i_glide_ligand_efficiency_sa>
-1.0735323828458

> <r_i_glide_ligand_efficiency_ln>
-2.06029599080444

> <r_i_glide_gscore>
-8.4287583648649

> <r_i_glide_lipo>
-4.12816143759744

> <r_i_glide_hbond>
0

> <r_i_glide_metal>
0

> <r_i_glide_rewards>
-2.24749490124535

> <r_i_glide_evdw>
-47.3508110046387

> <r_i_glide_ecoul>
-2.87848544120789

> <r_i_glide_erotb>
0.746211340391004

> <r_i_glide_esite>
0

> <r_i_glide_emodel>
-72.7659018690356

> <r_i_glide_energy>
-50.2292964458466

> <r_i_glide_einternal>
4.67855787277222

> <i_i_glide_confnum>
146

> <i_i_glide_posenum>
20

> <r_i_glide_eff_state_penalty>
0

> <s_user_duplicate_titles>
CHEMBL2061_lig550 

> <i_f3d_flags>
0

> <s_m_subgroup_title>
dock_pv

> <s_m_subgroupid>
dock_pv

> <b_m_subgroup_collapsed>
1

$$$$
CHEMBL2061_lig63
                    3D
 Schrodinger Suite 2021-1.
 45 47  0  0  1  0            999 V2000
   61.0580   45.7138   29.6660 N   0  0  0  0  0  0
   62.2916   46.0104   30.1412 N   0  0  0  0  0  0
   62.2548   46.5019   31.5272 C   0  0  1  0  0  0
   60.7747   46.3817   31.8498 C   0  0  0  0  0  0
   60.1722   45.9133   30.5390 C   0  0  0  0  0  0
   63.3609   46.0096   29.3179 C   0  0  0  0  0  0
   63.1120   46.0435   27.7962 C   0  0  0  0  0  0
   64.5182   46.0769   29.7315 O   0  0  0  0  0  0
   64.0723   47.0427   27.1092 C   0  0  0  0  0  0
   63.6983   48.4907   27.3390 C   0  0  0  0  0  0
   64.8080   49.2770   27.3390 O   0  0  0  0  0  0
   62.5486   48.8770   27.5221 O   0  0  0  0  0  0
   63.2276   45.9586   32.5986 C   0  0  0  0  0  0
   58.7296   45.7004   30.3199 C   0  0  0  0  0  0
   64.0086   44.8137   32.3722 C   0  0  0  0  0  0
   64.8695   44.3234   33.3530 C   0  0  0  0  0  0
   64.9725   44.9754   34.5775 C   0  0  0  0  0  0
   64.2062   46.1109   34.8242 C   0  0  0  0  0  0
   63.3348   46.6006   33.8494 C   0  0  0  0  0  0
   57.8790   45.3998   31.3895 C   0  0  0  0  0  0
   56.5081   45.2770   31.1749 C   0  0  0  0  0  0
   55.9865   45.3810   29.8903 C   0  0  0  0  0  0
   56.8248   45.6770   28.8200 C   0  0  0  0  0  0
   58.1904   45.8400   29.0327 C   0  0  0  0  0  0
   54.5112   45.1508   29.6510 C   0  0  0  0  0  0
   62.4082   48.0101   34.2367 Cl  0  0  0  0  0  0
   62.5313   47.5561   31.4335 H   0  0  0  0  0  0
   60.5846   45.6775   32.6581 H   0  0  0  0  0  0
   60.4080   47.3520   32.1390 H   0  0  0  0  0  0
   63.2082   45.0210   27.4420 H   0  0  0  0  0  0
   62.0883   46.2798   27.5005 H   0  0  0  0  0  0
   65.1258   46.8770   27.3388 H   0  0  0  0  0  0
   63.9908   46.9196   26.0434 H   0  0  0  0  0  0
   65.6178   48.7835   27.1948 H   0  0  0  0  0  0
   63.9386   44.2707   31.4421 H   0  0  0  0  0  0
   65.4527   43.4340   33.1674 H   0  0  0  0  0  0
   65.6399   44.5972   35.3375 H   0  0  0  0  0  0
   64.2870   46.6119   35.7780 H   0  0  0  0  0  0
   58.2587   45.3056   32.3970 H   0  0  0  0  0  0
   55.8426   45.1095   32.0065 H   0  0  0  0  0  0
   56.4233   45.7692   27.8209 H   0  0  0  0  0  0
   58.8247   46.0769   28.1895 H   0  0  0  0  0  0
   53.9780   44.8786   30.5618 H   0  0  0  0  0  0
   54.0532   46.0405   29.2177 H   0  0  0  0  0  0
   54.4080   44.3303   28.9396 H   0  0  0  0  0  0
  1  2  1  0  0  0
  1  5  2  0  0  0
  2  3  1  0  0  0
  2  6  1  0  0  0
  3  4  1  0  0  0
  3 13  1  0  0  0
  3 27  1  0  0  0
  4  5  1  0  0  0
  4 28  1  0  0  0
  4 29  1  0  0  0
  5 14  1  0  0  0
  6  7  1  0  0  0
  6  8  2  0  0  0
  7  9  1  0  0  0
  7 30  1  0  0  0
  7 31  1  0  0  0
  9 10  1  0  0  0
  9 32  1  0  0  0
  9 33  1  0  0  0
 10 11  1  0  0  0
 10 12  2  0  0  0
 11 34  1  0  0  0
 13 15  2  0  0  0
 13 19  1  0  0  0
 14 20  2  0  0  0
 14 24  1  0  0  0
 15 16  1  0  0  0
 15 35  1  0  0  0
 16 17  2  0  0  0
 16 36  1  0  0  0
 17 18  1  0  0  0
 17 37  1  0  0  0
 18 19  2  0  0  0
 18 38  1  0  0  0
 19 26  1  0  0  0
 20 21  1  0  0  0
 20 39  1  0  0  0
 21 22  2  0  0  0
 21 40  1  0  0  0
 22 23  1  0  0  0
 22 25  1  0  0  0
 23 24  2  0  0  0
 23 41  1  0  0  0
 24 42  1  0  0  0
 25 43  1  0  0  0
 25 44  1  0  0  0
 25 45  1  0  0  0
M  END
> <s_m_entry_id>
31230

> <s_m_entry_name>
dock_pv.443

> <s_m_Source_Path>
/home/csk/Desktop/cluster/DUD-E-result/rxra

> <s_m_Source_File>
dock_pv.maegz

> <i_m_Source_File_Index>
443

> <chembl_id>
CHEMBL3827169

> <chembl_pref_name>
None

> <i_lp_mmshare_version>
53161

> <r_lp_tautomer_probability>
1

> <s_lp_Force_Field>
OPLS_2005

> <r_lp_Energy>
25.30582

> <b_lp_Chiralities_Consistent>
1

> <s_lp_Variant>
CHEMBL2061_lig63-2

> <s_i_glide_gridfile>
glide-grid_1mv9

> <i_i_glide_lignum>
88

> <i_i_glide_rotatable_bonds>
7

> <r_i_docking_score>
-8.42265752378905

> <r_i_glide_ligand_efficiency>
-0.323948366299579

> <r_i_glide_ligand_efficiency_sa>
-0.959695760487233

> <r_i_glide_ligand_efficiency_ln>
-1.97803348246835

> <r_i_glide_gscore>
-8.42265752378905

> <r_i_glide_lipo>
-4.71850170951437

> <r_i_glide_hbond>
0

> <r_i_glide_metal>
0

> <r_i_glide_rewards>
-2.84420093135427

> <r_i_glide_evdw>
-38.0181121826172

> <r_i_glide_ecoul>
1.32675158977509

> <r_i_glide_erotb>
0.841937987744182

> <r_i_glide_esite>
0

> <r_i_glide_emodel>
-45.4258687851679

> <r_i_glide_energy>
-36.6913605928421

> <r_i_glide_einternal>
9.32064056396484

> <i_i_glide_confnum>
24

> <i_i_glide_posenum>
211

> <r_i_glide_eff_state_penalty>
0

> <s_user_duplicate_titles>
CHEMBL2061_lig63

> <i_f3d_flags>
0

> <s_m_subgroup_title>
dock_pv

> <s_m_subgroupid>
dock_pv

> <b_m_subgroup_collapsed>
1

$$$$
CHEMBL2061_lig421
                    3D
 Schrodinger Suite 2021-1.
 58 58  0  0  1  0            999 V2000
   62.5368   46.5589   32.2132 C   0  0  0  0  0  0
   63.5736   45.6601   31.9850 C   0  0  0  0  0  0
   63.7752   45.0901   30.7298 C   0  0  0  0  0  0
   63.0543   45.5825   29.6460 C   0  0  0  0  0  0
   62.0319   46.5134   29.7993 C   0  0  0  0  0  0
   61.7749   46.9771   31.1067 C   0  0  0  0  0  0
   62.1773   46.9957   33.6545 C   0  0  0  0  0  0
   62.3228   48.5254   33.7947 C   0  0  0  0  0  0
   63.0692   46.3670   34.7633 C   0  0  0  0  0  0
   60.7291   46.5436   33.9691 C   0  0  0  0  0  0
   64.6801   43.8663   30.5680 C   0  0  0  0  0  0
   66.0845   44.3888   30.1398 C   0  0  0  0  0  0
   64.1259   42.8887   29.5071 C   0  0  0  0  0  0
   64.6515   43.0051   31.8703 C   0  0  0  0  0  0
   61.2883   46.9069   28.6506 N   0  0  0  0  0  0
   60.1988   47.8621   28.7219 C   0  0  0  0  0  0
   58.7897   47.3558   28.9398 C   0  0  0  0  0  0
   58.4103   46.0798   29.1620 C   0  0  0  0  0  0
   57.0549   45.5991   29.4353 C   0  0  0  0  0  0
   55.9771   46.4099   29.2621 C   0  0  0  0  0  0
   56.9243   44.1586   29.9035 C   0  0  0  0  0  0
   54.5898   46.0770   29.4870 C   0  0  0  0  0  0
   53.7766   47.0244   28.9389 O   0  0  0  0  0  0
   54.1586   45.1287   30.1403 O   0  0  0  0  0  0
   61.5160   46.3021   27.3390 C   0  0  0  0  0  0
   64.1714   45.3163   32.8099 H   0  0  0  0  0  0
   63.2731   45.2047   28.6652 H   0  0  0  0  0  0
   60.9648   47.6548   31.3024 H   0  0  0  0  0  0
   62.0027   49.0765   32.9119 H   0  0  0  0  0  0
   61.7448   48.8765   34.6475 H   0  0  0  0  0  0
   63.3576   48.8169   33.9742 H   0  0  0  0  0  0
   63.0151   45.2781   34.7648 H   0  0  0  0  0  0
   64.1184   46.6451   34.6520 H   0  0  0  0  0  0
   62.7625   46.6989   35.7561 H   0  0  0  0  0  0
   60.6475   45.4571   34.0076 H   0  0  0  0  0  0
   60.4003   46.9192   34.9379 H   0  0  0  0  0  0
   60.0077   46.8770   33.2270 H   0  0  0  0  0  0
   66.5947   44.8766   30.9718 H   0  0  0  0  0  0
   66.7532   43.6187   29.7435 H   0  0  0  0  0  0
   65.9989   45.1385   29.3505 H   0  0  0  0  0  0
   63.1554   42.4767   29.7833 H   0  0  0  0  0  0
   64.0079   43.3197   28.5223 H   0  0  0  0  0  0
   64.8389   42.0770   29.3862 H   0  0  0  0  0  0
   63.6267   42.8636   32.2244 H   0  0  0  0  0  0
   65.0298   41.9963   31.7106 H   0  0  0  0  0  0
   65.2083   43.4464   32.6940 H   0  0  0  0  0  0
   60.2269   48.5245   27.8556 H   0  0  0  0  0  0
   60.4074   48.4770   29.5771 H   0  0  0  0  0  0
   58.0656   48.1515   28.9391 H   0  0  0  0  0  0
   59.1960   45.3382   29.1581 H   0  0  0  0  0  0
   56.1150   47.4250   28.9386 H   0  0  0  0  0  0
   57.8295   43.5755   29.7383 H   0  0  0  0  0  0
   56.6314   44.1157   30.9496 H   0  0  0  0  0  0
   56.1298   43.6770   29.3400 H   0  0  0  0  0  0
   54.2855   47.6933   28.4755 H   0  0  0  0  0  0
   62.5212   46.5292   26.9804 H   0  0  0  0  0  0
   61.4168   45.2179   27.3920 H   0  0  0  0  0  0
   60.8029   46.6649   26.5972 H   0  0  0  0  0  0
  1  6  1  0  0  0
  1  2  2  0  0  0
  1  7  1  0  0  0
  2  3  1  0  0  0
  2 26  1  0  0  0
  3  4  2  0  0  0
  3 11  1  0  0  0
  4  5  1  0  0  0
  4 27  1  0  0  0
  5 15  1  0  0  0
  5  6  2  0  0  0
  6 28  1  0  0  0
  7  8  1  0  0  0
  7  9  1  0  0  0
  7 10  1  0  0  0
  8 29  1  0  0  0
  8 30  1  0  0  0
  8 31  1  0  0  0
  9 32  1  0  0  0
  9 33  1  0  0  0
  9 34  1  0  0  0
 10 35  1  0  0  0
 10 36  1  0  0  0
 10 37  1  0  0  0
 11 13  1  0  0  0
 11 14  1  0  0  0
 11 12  1  0  0  0
 12 38  1  0  0  0
 12 39  1  0  0  0
 12 40  1  0  0  0
 13 41  1  0  0  0
 13 42  1  0  0  0
 13 43  1  0  0  0
 14 44  1  0  0  0
 14 45  1  0  0  0
 14 46  1  0  0  0
 15 16  1  0  0  0
 15 25  1  0  0  0
 16 17  1  0  0  0
 16 47  1  0  0  0
 16 48  1  0  0  0
 17 18  2  0  0  0
 17 49  1  0  0  0
 18 19  1  0  0  0
 18 50  1  0  0  0
 19 20  2  0  0  0
 19 21  1  0  0  0
 20 22  1  0  0  0
 20 51  1  0  0  0
 21 52  1  0  0  0
 21 53  1  0  0  0
 21 54  1  0  0  0
 22 23  1  0  0  0
 22 24  2  0  0  0
 23 55  1  0  0  0
 25 56  1  0  0  0
 25 57  1  0  0  0
 25 58  1  0  0  0
M  END
> <s_m_entry_id>
31231

> <s_m_entry_name>
dock_pv.444

> <s_m_Source_Path>
/home/csk/Desktop/cluster/DUD-E-result/rxra

> <s_m_Source_File>
dock_pv.maegz

> <i_m_Source_File_Index>
444

> <chembl_id>
CHEMBL208213

> <chembl_pref_name>
None

> <i_lp_mmshare_version>
53161

> <r_lp_tautomer_probability>
1

> <s_lp_Force_Field>
OPLS_2005

> <r_lp_Energy>
22.874186

> <b_lp_Chiralities_Consistent>
1

> <s_lp_Variant>
CHEMBL2061_lig421-1

> <s_i_glide_gridfile>
glide-grid_1mv9

> <i_i_glide_lignum>
492

> <i_i_glide_rotatable_bonds>
8

> <r_i_docking_score>
-8.41733917160752

> <r_i_glide_ligand_efficiency>
-0.336693566864301

> <r_i_glide_ligand_efficiency_sa>
-0.984497960797049

> <r_i_glide_ligand_efficiency_ln>
-1.99516163097085

> <r_i_glide_gscore>
-8.41733917160752

> <r_i_glide_lipo>
-4.65194961773053

> <r_i_glide_hbond>
-0.0603558298810609

> <r_i_glide_metal>
0

> <r_i_glide_rewards>
-2.14664055452341

> <r_i_glide_evdw>
-33.9614944458008

> <r_i_glide_ecoul>
-4.29857158660889

> <r_i_glide_erotb>
0.804098351855558

> <r_i_glide_esite>
-0.0196310610467023

> <r_i_glide_emodel>
-41.3356163150496

> <r_i_glide_energy>
-38.2600660324097

> <r_i_glide_einternal>
8.23710918426514

> <i_i_glide_confnum>
38

> <i_i_glide_posenum>
354

> <r_i_glide_eff_state_penalty>
0

> <s_user_duplicate_titles>
CHEMBL2061_lig421,345657

> <i_f3d_flags>
0

> <s_m_subgroup_title>
dock_pv

> <s_m_subgroupid>
dock_pv

> <b_m_subgroup_collapsed>
1

$$$$
CHEMBL2061_lig554
                    3D
 Schrodinger Suite 2021-1.
 38 39  0  0  1  0            999 V2000
   60.9556   46.5795   30.9920 C   0  0  0  0  0  0
   59.7445   46.0769   30.6202 N   0  0  0  0  0  0
   59.3292   46.2547   29.3464 C   0  0  0  0  0  0
   60.0426   46.8824   28.3797 N   0  0  0  0  0  0
   61.3489   46.4769   32.3553 N   0  0  0  0  0  0
   62.6331   46.6513   32.9359 C   0  0  0  0  0  0
   61.7518   47.2458   30.0490 C   0  0  0  0  0  0
   61.2584   47.3712   28.7453 C   0  0  0  0  0  0
   63.8076   46.0330   32.4285 C   0  0  0  0  0  0
   57.7027   45.6854   28.9391 S   0  0  0  0  0  0
   55.4235   45.0387   30.4256 C   0  0  0  0  0  0
   65.0157   46.1514   33.1455 C   0  0  0  0  0  0
   54.8101   45.5816   31.3389 O   0  0  0  0  0  0
   56.9469   44.9070   30.4036 C   0  0  0  0  0  0
   62.2062   48.1990   27.5651 Cl  0  0  0  0  0  0
   54.8257   44.4772   29.3391 O   0  0  0  0  0  0
   62.7213   47.3890   34.1290 C   0  0  0  0  0  0
   60.3251   46.0433   33.3362 C   0  0  0  0  0  0
   63.7935   45.1416   31.1812 C   0  0  0  0  0  0
   63.9109   47.4772   34.8397 C   0  0  0  0  0  0
   65.0457   46.8443   34.3533 C   0  0  0  0  0  0
   66.3193   45.5389   32.6508 C   0  0  0  0  0  0
   62.7034   47.6762   30.3213 H   0  0  0  0  0  0
   57.3551   45.3391   31.3173 H   0  0  0  0  0  0
   57.2088   43.8487   30.4098 H   0  0  0  0  0  0
   55.4468   44.1000   28.7088 H   0  0  0  0  0  0
   61.8465   47.8760   34.5345 H   0  0  0  0  0  0
   60.7704   45.6182   34.2367 H   0  0  0  0  0  0
   59.7147   46.8769   33.6658 H   0  0  0  0  0  0
   59.6402   45.2841   32.9561 H   0  0  0  0  0  0
   64.4034   44.2510   31.3334 H   0  0  0  0  0  0
   62.8083   44.7565   30.9359 H   0  0  0  0  0  0
   64.1941   45.6757   30.3193 H   0  0  0  0  0  0
   63.9501   48.0222   35.7718 H   0  0  0  0  0  0
   65.9571   46.8769   34.9297 H   0  0  0  0  0  0
   66.4180   45.6609   31.5717 H   0  0  0  0  0  0
   67.1854   46.0279   33.0999 H   0  0  0  0  0  0
   66.3562   44.4762   32.8871 H   0  0  0  0  0  0
  1  2  2  0  0  0
  1  5  1  0  0  0
  1  7  1  0  0  0
  2  3  1  0  0  0
  3 10  1  0  0  0
  3  4  2  0  0  0
  4  8  1  0  0  0
  5  6  1  0  0  0
  5 18  1  0  0  0
  6  9  1  0  0  0
  6 17  2  0  0  0
  7  8  2  0  0  0
  7 23  1  0  0  0
  8 15  1  0  0  0
  9 12  2  0  0  0
  9 19  1  0  0  0
 10 14  1  0  0  0
 11 14  1  0  0  0
 11 13  2  0  0  0
 11 16  1  0  0  0
 12 22  1  0  0  0
 12 21  1  0  0  0
 14 24  1  0  0  0
 14 25  1  0  0  0
 16 26  1  0  0  0
 17 20  1  0  0  0
 17 27  1  0  0  0
 18 28  1  0  0  0
 18 29  1  0  0  0
 18 30  1  0  0  0
 19 31  1  0  0  0
 19 32  1  0  0  0
 19 33  1  0  0  0
 20 21  2  0  0  0
 20 34  1  0  0  0
 21 35  1  0  0  0
 22 36  1  0  0  0
 22 37  1  0  0  0
 22 38  1  0  0  0
M  END
> <s_m_entry_id>
31232

> <s_m_entry_name>
dock_pv.445

> <s_m_Source_Path>
/home/csk/Desktop/cluster/DUD-E-result/rxra

> <s_m_Source_File>
dock_pv.maegz

> <i_m_Source_File_Index>
445

> <chembl_id>
CHEMBL44078

> <chembl_pref_name>
None

> <i_lp_mmshare_version>
53161

> <r_lp_tautomer_probability>
1

> <s_lp_Force_Field>
OPLS_2005

> <r_lp_Energy>
8.804341

> <b_lp_Chiralities_Consistent>
1

> <s_lp_Variant>
CHEMBL2061_lig554-1

> <s_i_glide_gridfile>
glide-grid_1mv9

> <i_i_glide_lignum>
654

> <i_i_glide_rotatable_bonds>
6

> <r_i_docking_score>
-8.41344546170542

> <r_i_glide_ligand_efficiency>
-0.382429339168428

> <r_i_glide_ligand_efficiency_sa>
-1.07158204844238

> <r_i_glide_ligand_efficiency_ln>
-2.05655295872055

> <r_i_glide_gscore>
-8.41344546170542

> <r_i_glide_lipo>
-4.21234804809187

> <r_i_glide_hbond>
-0.0868893207479975

> <r_i_glide_metal>
0

> <r_i_glide_rewards>
-2.27455595431607

> <r_i_glide_evdw>
-41.2871932983398

> <r_i_glide_ecoul>
-4.02338743209839

> <r_i_glide_erotb>
0.828215641182267

> <r_i_glide_esite>
0

> <r_i_glide_emodel>
-64.9108804377564

> <r_i_glide_energy>
-45.3105807304382

> <r_i_glide_einternal>
5.68415021896362

> <i_i_glide_confnum>
143

> <i_i_glide_posenum>
238

> <r_i_glide_eff_state_penalty>
0

> <s_user_duplicate_titles>
CHEMBL2061_lig554

> <i_f3d_flags>
0

> <s_m_subgroup_title>
dock_pv

> <s_m_subgroupid>
dock_pv

> <b_m_subgroup_collapsed>
1

$$$$
CHEMBL2061_lig74 
                    3D
 Schrodinger Suite 2021-1.
 41 42  0  0  1  0            999 V2000
   64.2527   45.6349   32.6428 C   0  0  0  0  0  0
   64.4597   44.7182   31.6042 C   0  0  0  0  0  0
   63.6994   44.7623   30.4449 C   0  0  0  0  0  0
   62.7054   45.7199   30.2920 C   0  0  0  0  0  0
   62.4950   46.6560   31.3149 C   0  0  0  0  0  0
   63.2572   46.6074   32.4771 C   0  0  0  0  0  0
   65.1323   45.5688   33.9136 C   0  0  0  0  0  0
   65.2079   44.1182   34.4513 C   0  0  0  0  0  0
   64.6049   46.4501   35.0759 C   0  0  0  0  0  0
   66.5572   46.0422   33.5629 C   0  0  0  0  0  0
   61.9842   45.6481   29.1187 O   0  0  0  0  0  0
   60.9647   46.5950   28.8337 C   0  0  0  0  0  0
   59.5849   46.0797   29.2367 C   0  0  0  0  0  0
   59.2937   45.6769   30.5390 C   0  0  0  0  0  0
   58.0029   45.2789   30.8844 C   0  0  0  0  0  0
   56.9824   45.3094   29.9288 C   0  0  0  0  0  0
   57.2782   45.7077   28.6228 C   0  0  0  0  0  0
   58.5736   46.0785   28.2860 C   0  0  0  0  0  0
   55.5660   45.0216   30.3253 C   0  0  0  0  0  0
   54.8078   44.4765   29.3396 O   0  0  0  0  0  0
   55.1253   45.2775   31.4406 O   0  0  0  0  0  0
   65.2080   43.9493   31.6823 H   0  0  0  0  0  0
   63.8717   44.0377   29.6626 H   0  0  0  0  0  0
   61.7379   47.4212   31.2476 H   0  0  0  0  0  0
   63.0603   47.3490   33.2368 H   0  0  0  0  0  0
   65.8340   44.0770   35.3386 H   0  0  0  0  0  0
   65.6503   43.4184   33.7419 H   0  0  0  0  0  0
   64.2221   43.7358   34.7196 H   0  0  0  0  0  0
   64.6420   47.5132   34.8322 H   0  0  0  0  0  0
   63.5764   46.1996   35.3365 H   0  0  0  0  0  0
   65.2037   46.3158   35.9782 H   0  0  0  0  0  0
   66.5660   47.0824   33.2330 H   0  0  0  0  0  0
   67.2320   45.9646   34.4167 H   0  0  0  0  0  0
   66.9836   45.4415   32.7620 H   0  0  0  0  0  0
   61.1448   47.5916   29.2347 H   0  0  0  0  0  0
   60.9958   46.7352   27.7521 H   0  0  0  0  0  0
   60.0584   45.6792   31.2995 H   0  0  0  0  0  0
   57.8025   44.9944   31.9085 H   0  0  0  0  0  0
   56.5134   45.7729   27.8621 H   0  0  0  0  0  0
   58.8079   46.3998   27.2861 H   0  0  0  0  0  0
   55.3437   44.1861   28.5958 H   0  0  0  0  0  0
  1  2  2  0  0  0
  1  6  1  0  0  0
  1  7  1  0  0  0
  2  3  1  0  0  0
  2 22  1  0  0  0
  3  4  2  0  0  0
  3 23  1  0  0  0
  4  5  1  0  0  0
  4 11  1  0  0  0
  5  6  2  0  0  0
  5 24  1  0  0  0
  6 25  1  0  0  0
  7  8  1  0  0  0
  7  9  1  0  0  0
  7 10  1  0  0  0
  8 26  1  0  0  0
  8 27  1  0  0  0
  8 28  1  0  0  0
  9 29  1  0  0  0
  9 30  1  0  0  0
  9 31  1  0  0  0
 10 32  1  0  0  0
 10 33  1  0  0  0
 10 34  1  0  0  0
 11 12  1  0  0  0
 12 13  1  0  0  0
 12 35  1  0  0  0
 12 36  1  0  0  0
 13 14  2  0  0  0
 13 18  1  0  0  0
 14 15  1  0  0  0
 14 37  1  0  0  0
 15 16  2  0  0  0
 15 38  1  0  0  0
 16 17  1  0  0  0
 16 19  1  0  0  0
 17 18  2  0  0  0
 17 39  1  0  0  0
 18 40  1  0  0  0
 19 20  1  0  0  0
 19 21  2  0  0  0
 20 41  1  0  0  0
M  END
> <s_m_entry_id>
31233

> <s_m_entry_name>
dock_pv.446

> <s_m_Source_Path>
/home/csk/Desktop/cluster/DUD-E-result/rxra

> <s_m_Source_File>
dock_pv.maegz

> <i_m_Source_File_Index>
446

> <chembl_id>
CHEMBL4574853

> <chembl_pref_name>
None

> <i_lp_mmshare_version>
53161

> <r_lp_tautomer_probability>
1

> <s_lp_Force_Field>
OPLS_2005

> <r_lp_Energy>
20.880717

> <b_lp_Chiralities_Consistent>
1

> <s_lp_Variant>
CHEMBL2061_lig74 -1

> <s_i_glide_gridfile>
glide-grid_1mv9

> <i_i_glide_lignum>
101

> <i_i_glide_rotatable_bonds>
6

> <r_i_docking_score>
-8.41016531608743

> <r_i_glide_ligand_efficiency>
-0.40048406267083

> <r_i_glide_ligand_efficiency_sa>
-1.10490516163658

> <r_i_glide_ligand_efficiency_ln>
-2.07939638006344

> <r_i_glide_gscore>
-8.41016531608743

> <r_i_glide_lipo>
-4.76878611841213

> <r_i_glide_hbond>
0

> <r_i_glide_metal>
0

> <r_i_glide_rewards>
-2.31857557045426

> <r_i_glide_evdw>
-36.183666229248

> <r_i_glide_ecoul>
-2.73546671867371

> <r_i_glide_erotb>
0.896699692042421

> <r_i_glide_esite>
0

> <r_i_glide_emodel>
-55.7013086714864

> <r_i_glide_energy>
-38.9191329479218

> <r_i_glide_einternal>
5.46755695343018

> <i_i_glide_confnum>
7

> <i_i_glide_posenum>
296

> <r_i_glide_eff_state_penalty>
0

> <s_user_duplicate_titles>
CHEMBL2061_lig74 

> <i_f3d_flags>
0

> <s_m_subgroup_title>
dock_pv

> <s_m_subgroupid>
dock_pv

> <b_m_subgroup_collapsed>
1

$$$$
CHEMBL2061_lig97
                    3D
 Schrodinger Suite 2021-1.
 70 70  0  0  1  0            999 V2000
   62.4965   47.0018   30.0908 C   0  0  0  0  0  0
   63.4710   45.9819   30.1449 C   0  0  0  0  0  0
   64.0788   45.6192   31.3724 C   0  0  0  0  0  0
   61.9840   47.5682   28.8083 C   0  0  0  0  0  0
   62.0726   47.5706   31.2809 C   0  0  0  0  0  0
   62.6618   47.2283   32.5088 C   0  0  0  0  0  0
   63.6168   46.2324   32.5279 C   0  0  0  0  0  0
   60.6957   47.4868   28.3841 C   0  0  0  0  0  0
   63.8632   45.3489   28.9946 O   0  0  0  0  0  0
   59.5963   46.8177   29.0889 C   0  0  0  0  0  0
   57.0751   45.6781   30.3410 C   0  0  0  0  0  0
   65.2114   44.5613   31.5148 C   0  0  0  0  0  0
   55.8657   45.2780   31.0196 C   0  0  0  0  0  0
   58.4439   46.4810   28.4618 C   0  0  0  0  0  0
   62.2971   47.9290   33.8235 C   0  0  0  0  0  0
   57.1967   45.9504   29.0180 C   0  0  0  0  0  0
   55.5840   45.6759   32.1396 O   0  0  0  0  0  0
   62.6125   43.3733   28.3893 C   0  0  0  0  0  0
   62.8530   44.8326   28.1359 C   0  0  0  0  0  0
   60.4098   48.0550   27.1911 F   0  0  0  0  0  0
   55.0538   44.4492   30.3138 O   0  0  0  0  0  0
   62.0081   42.8780   27.3444 F   0  0  0  0  0  0
   63.7208   42.6964   28.5452 F   0  0  0  0  0  0
   63.0519   48.2154   27.9215 C   0  0  0  0  0  0
   64.5830   43.1397   31.3275 C   0  0  0  0  0  0
   61.1112   47.1878   34.5411 C   0  0  0  0  0  0
   66.3375   44.8251   30.4776 C   0  0  0  0  0  0
   65.9766   44.6871   32.8846 C   0  0  0  0  0  0
   63.4766   47.9766   34.8526 C   0  0  0  0  0  0
   62.0083   49.4119   33.5075 C   0  0  0  0  0  0
   56.0039   45.8308   28.0678 C   0  0  0  0  0  0
   64.2378   42.3392   32.5957 C   0  0  0  0  0  0
   60.1563   46.3714   33.6491 C   0  0  0  0  0  0
   61.2862   48.3018   31.2077 H   0  0  0  0  0  0
   64.0018   45.9427   33.4845 H   0  0  0  0  0  0
   59.7111   46.6102   30.1420 H   0  0  0  0  0  0
   57.9043   45.8030   31.0222 H   0  0  0  0  0  0
   58.4264   46.6553   27.3980 H   0  0  0  0  0  0
   61.9820   43.1985   29.2612 H   0  0  0  0  0  0
   61.8626   45.2609   28.1838 H   0  0  0  0  0  0
   63.2051   45.0265   27.1286 H   0  0  0  0  0  0
   55.4674   44.2012   29.4845 H   0  0  0  0  0  0
   63.1519   49.2737   28.1372 H   0  0  0  0  0  0
   64.0327   47.7545   28.0581 H   0  0  0  0  0  0
   62.8079   48.1308   26.8616 H   0  0  0  0  0  0
   63.6320   43.2419   30.8195 H   0  0  0  0  0  0
   65.1826   42.5220   30.6553 H   0  0  0  0  0  0
   61.4890   46.4978   35.2982 H   0  0  0  0  0  0
   60.5160   47.8908   35.1228 H   0  0  0  0  0  0
   67.1300   44.0788   30.5041 H   0  0  0  0  0  0
   66.0269   44.8765   29.4428 H   0  0  0  0  0  0
   66.8077   45.7699   30.7045 H   0  0  0  0  0  0
   66.8672   44.0764   32.9379 H   0  0  0  0  0  0
   66.3138   45.7104   33.0592 H   0  0  0  0  0  0
   65.3798   44.3993   33.7483 H   0  0  0  0  0  0
   63.2439   48.6225   35.7033 H   0  0  0  0  0  0
   63.7133   47.0034   35.2848 H   0  0  0  0  0  0
   64.3914   48.3597   34.3986 H   0  0  0  0  0  0
   61.2080   49.6973   34.1390 H   0  0  0  0  0  0
   62.8458   50.0751   33.7218 H   0  0  0  0  0  0
   61.6352   49.7028   32.5384 H   0  0  0  0  0  0
   56.0664   46.4766   27.2045 H   0  0  0  0  0  0
   55.8990   44.8024   27.7411 H   0  0  0  0  0  0
   55.0710   46.1453   28.5387 H   0  0  0  0  0  0
   63.7409   41.4081   32.3274 H   0  0  0  0  0  0
   65.1226   42.0779   33.1744 H   0  0  0  0  0  0
   63.5795   42.8800   33.2679 H   0  0  0  0  0  0
   59.2063   46.1820   34.1387 H   0  0  0  0  0  0
   59.9540   46.8692   32.7062 H   0  0  0  0  0  0
   60.5877   45.4025   33.4099 H   0  0  0  0  0  0
  1  2  1  0  0  0
  1  4  1  0  0  0
  1  5  2  0  0  0
  2  3  2  0  0  0
  2  9  1  0  0  0
  3 12  1  0  0  0
  3  7  1  0  0  0
  4  8  2  0  0  0
  4 24  1  0  0  0
  5  6  1  0  0  0
  5 34  1  0  0  0
  6  7  2  0  0  0
  6 15  1  0  0  0
  7 35  1  0  0  0
  8 10  1  0  0  0
  8 20  1  0  0  0
  9 19  1  0  0  0
 10 14  2  0  0  0
 10 36  1  0  0  0
 11 16  2  0  0  0
 11 13  1  0  0  0
 11 37  1  0  0  0
 12 25  1  0  0  0
 12 27  1  0  0  0
 12 28  1  0  0  0
 13 17  2  0  0  0
 13 21  1  0  0  0
 14 16  1  0  0  0
 14 38  1  0  0  0
 15 26  1  0  0  0
 15 29  1  0  0  0
 15 30  1  0  0  0
 16 31  1  0  0  0
 18 19  1  0  0  0
 18 22  1  0  0  0
 18 23  1  0  0  0
 18 39  1  0  0  0
 19 40  1  0  0  0
 19 41  1  0  0  0
 21 42  1  0  0  0
 24 43  1  0  0  0
 24 44  1  0  0  0
 24 45  1  0  0  0
 25 32  1  0  0  0
 25 46  1  0  0  0
 25 47  1  0  0  0
 26 33  1  0  0  0
 26 48  1  0  0  0
 26 49  1  0  0  0
 27 50  1  0  0  0
 27 51  1  0  0  0
 27 52  1  0  0  0
 28 53  1  0  0  0
 28 54  1  0  0  0
 28 55  1  0  0  0
 29 56  1  0  0  0
 29 57  1  0  0  0
 29 58  1  0  0  0
 30 59  1  0  0  0
 30 60  1  0  0  0
 30 61  1  0  0  0
 31 62  1  0  0  0
 31 63  1  0  0  0
 31 64  1  0  0  0
 32 65  1  0  0  0
 32 66  1  0  0  0
 32 67  1  0  0  0
 33 68  1  0  0  0
 33 69  1  0  0  0
 33 70  1  0  0  0
M  END
> <s_m_entry_id>
31234

> <s_m_entry_name>
dock_pv.447

> <s_m_Source_Path>
/home/csk/Desktop/cluster/DUD-E-result/rxra

> <s_m_Source_File>
dock_pv.maegz

> <i_m_Source_File_Index>
447

> <chembl_id>
CHEMBL130231

> <chembl_pref_name>
None

> <i_lp_mmshare_version>
53161

> <r_lp_tautomer_probability>
1

> <s_lp_Force_Field>
OPLS_2005

> <r_lp_Energy>
41.141968

> <b_lp_Chiralities_Consistent>
1

> <s_lp_Variant>
CHEMBL2061_lig97-1

> <s_i_glide_gridfile>
glide-grid_1mv9

> <i_i_glide_lignum>
136

> <i_i_glide_rotatable_bonds>
12

> <r_i_docking_score>
-8.37862460524656

> <r_i_glide_ligand_efficiency>
-0.253897715310502

> <r_i_glide_ligand_efficiency_sa>
-0.814385637216773

> <r_i_glide_ligand_efficiency_ln>
-1.86336273001039

> <r_i_glide_gscore>
-8.37862460524656

> <r_i_glide_lipo>
-6.25225160336897

> <r_i_glide_hbond>
0

> <r_i_glide_metal>
0

> <r_i_glide_rewards>
-1.8407274626198

> <r_i_glide_evdw>
-17.4005603790283

> <r_i_glide_ecoul>
-1.04704260826111

> <r_i_glide_erotb>
0.741438870932791

> <r_i_glide_esite>
0

> <r_i_glide_emodel>
-46.1232867758212

> <r_i_glide_energy>
-18.4476029872894

> <r_i_glide_einternal>
22.131275177002

> <i_i_glide_confnum>
31

> <i_i_glide_posenum>
72

> <r_i_glide_eff_state_penalty>
0

> <s_user_duplicate_titles>
CHEMBL2061_lig97,217307

> <i_f3d_flags>
0

> <s_m_subgroup_title>
dock_pv

> <s_m_subgroupid>
dock_pv

> <b_m_subgroup_collapsed>
1

$$$$
CHEMBL2061_lig64
                    3D
 Schrodinger Suite 2021-1.
 50 52  0  0  1  0            999 V2000
   59.3312   46.0769   30.2387 N   0  0  0  0  0  0
   59.4964   46.0770   31.6172 C   0  0  0  0  0  0
   58.4080   45.5946   32.1849 N   0  0  0  0  0  0
   57.4864   45.2965   31.2006 N   0  0  0  0  0  0
   58.0164   45.6768   30.0699 C   0  0  0  0  0  0
   60.2463   46.4497   29.2375 C   0  0  0  0  0  0
   61.3938   45.6770   29.0321 C   0  0  0  0  0  0
   62.3274   46.0751   28.0796 C   0  0  0  0  0  0
   62.1057   47.2350   27.3391 C   0  0  0  0  0  0
   60.9487   47.9887   27.5264 C   0  0  0  0  0  0
   60.0125   47.5965   28.4771 C   0  0  0  0  0  0
   60.6912   46.4770   32.4366 C   0  0  0  0  0  0
   60.6631   46.1674   33.8030 C   0  0  0  0  0  0
   61.7734   46.3763   34.5994 C   0  0  0  0  0  0
   62.9548   46.8584   34.0359 C   0  0  0  0  0  0
   62.9456   47.2476   32.6930 C   0  0  0  0  0  0
   61.8244   47.0826   31.9032 C   0  0  0  0  0  0
   57.1700   45.6770   28.5390 S   0  0  0  0  0  0
   55.5825   44.8582   28.9387 C   0  0  0  0  0  0
   54.4344   45.6896   29.5524 C   0  0  0  0  0  0
   54.1721   46.9854   28.7838 C   0  0  0  0  0  0
   55.2080   47.8010   28.9390 O   0  0  0  0  0  0
   53.1757   47.2770   28.1390 O   0  0  0  0  0  0
   64.2157   47.0124   34.9000 C   0  0  0  0  0  0
   64.0079   48.2979   35.7291 C   0  0  0  0  0  0
   65.5008   47.0807   34.0208 C   0  0  0  0  0  0
   64.4082   45.8051   35.8555 C   0  0  0  0  0  0
   61.5693   44.7843   29.6164 H   0  0  0  0  0  0
   63.2199   45.4886   27.9195 H   0  0  0  0  0  0
   62.8314   47.5451   26.6011 H   0  0  0  0  0  0
   60.7766   48.8770   26.9401 H   0  0  0  0  0  0
   59.1238   48.1912   28.6322 H   0  0  0  0  0  0
   59.7906   45.7260   34.2589 H   0  0  0  0  0  0
   61.7058   46.1187   35.6443 H   0  0  0  0  0  0
   63.8139   47.6770   32.2278 H   0  0  0  0  0  0
   61.8808   47.4110   30.8803 H   0  0  0  0  0  0
   55.2234   44.4770   27.9867 H   0  0  0  0  0  0
   55.7824   43.9794   29.5510 H   0  0  0  0  0  0
   53.5239   45.0973   29.6168 H   0  0  0  0  0  0
   54.6978   45.9472   30.5787 H   0  0  0  0  0  0
   55.0853   48.6728   28.5541 H   0  0  0  0  0  0
   64.8075   48.4770   36.4323 H   0  0  0  0  0  0
   63.0916   48.2474   36.3185 H   0  0  0  0  0  0
   63.9241   49.1771   35.0902 H   0  0  0  0  0  0
   65.4506   46.3850   33.1820 H   0  0  0  0  0  0
   65.6676   48.0769   33.6164 H   0  0  0  0  0  0
   66.4074   46.7932   34.5391 H   0  0  0  0  0  0
   64.5446   44.8737   35.3038 H   0  0  0  0  0  0
   65.2828   45.9438   36.4886 H   0  0  0  0  0  0
   63.5767   45.6584   36.5390 H   0  0  0  0  0  0
  1  2  1  0  0  0
  1  5  1  0  0  0
  1  6  1  0  0  0
  2  3  2  0  0  0
  2 12  1  0  0  0
  3  4  1  0  0  0
  4  5  2  0  0  0
  5 18  1  0  0  0
  6  7  2  0  0  0
  6 11  1  0  0  0
  7  8  1  0  0  0
  7 28  1  0  0  0
  8  9  2  0  0  0
  8 29  1  0  0  0
  9 10  1  0  0  0
  9 30  1  0  0  0
 10 11  2  0  0  0
 10 31  1  0  0  0
 11 32  1  0  0  0
 12 13  2  0  0  0
 12 17  1  0  0  0
 13 14  1  0  0  0
 13 33  1  0  0  0
 14 15  2  0  0  0
 14 34  1  0  0  0
 15 16  1  0  0  0
 15 24  1  0  0  0
 16 17  2  0  0  0
 16 35  1  0  0  0
 17 36  1  0  0  0
 18 19  1  0  0  0
 19 20  1  0  0  0
 19 37  1  0  0  0
 19 38  1  0  0  0
 20 21  1  0  0  0
 20 39  1  0  0  0
 20 40  1  0  0  0
 21 22  1  0  0  0
 21 23  2  0  0  0
 22 41  1  0  0  0
 24 25  1  0  0  0
 24 26  1  0  0  0
 24 27  1  0  0  0
 25 42  1  0  0  0
 25 43  1  0  0  0
 25 44  1  0  0  0
 26 45  1  0  0  0
 26 46  1  0  0  0
 26 47  1  0  0  0
 27 48  1  0  0  0
 27 49  1  0  0  0
 27 50  1  0  0  0
M  END
> <s_m_entry_id>
31235

> <s_m_entry_name>
dock_pv.448

> <s_m_Source_Path>
/home/csk/Desktop/cluster/DUD-E-result/rxra

> <s_m_Source_File>
dock_pv.maegz

> <i_m_Source_File_Index>
448

> <chembl_id>
CHEMBL4280097

> <chembl_pref_name>
None

> <i_lp_mmshare_version>
53161

> <r_lp_tautomer_probability>
1

> <s_lp_Force_Field>
OPLS_2005

> <r_lp_Energy>
33.667531

> <b_lp_Chiralities_Consistent>
1

> <s_lp_Variant>
CHEMBL2061_lig64-1

> <s_i_glide_gridfile>
glide-grid_1mv9

> <i_i_glide_lignum>
89

> <i_i_glide_rotatable_bonds>
8

> <r_i_docking_score>
-8.37312525931375

> <r_i_glide_ligand_efficiency>
-0.310115750344954

> <r_i_glide_ligand_efficiency_sa>
-0.930347250012771

> <r_i_glide_ligand_efficiency_ln>
-1.94912551860979

> <r_i_glide_gscore>
-8.37312525931375

> <r_i_glide_lipo>
-5.00753767507839

> <r_i_glide_hbond>
-0.16

> <r_i_glide_metal>
0

> <r_i_glide_rewards>
-2.32057626862271

> <r_i_glide_evdw>
-22.2738246917725

> <r_i_glide_ecoul>
-3.70704674720764

> <r_i_glide_erotb>
0.800280758434891

> <r_i_glide_esite>
-0.0155438273777718

> <r_i_glide_emodel>
-31.3073022700506

> <r_i_glide_energy>
-25.9808714389801

> <r_i_glide_einternal>
5.70294666290283

> <i_i_glide_confnum>
27

> <i_i_glide_posenum>
214

> <r_i_glide_eff_state_penalty>
0

> <s_user_duplicate_titles>
CHEMBL2061_lig64

> <i_f3d_flags>
0

> <s_m_subgroup_title>
dock_pv

> <s_m_subgroupid>
dock_pv

> <b_m_subgroup_collapsed>
1

$$$$
CHEMBL2061_lig100
                    3D
 Schrodinger Suite 2021-1.
 64 64  0  0  1  0            999 V2000
   62.5578   47.0619   31.9758 C   0  0  0  0  0  0
   63.4907   46.0026   31.8995 C   0  0  0  0  0  0
   63.7254   45.3733   30.6595 C   0  0  0  0  0  0
   62.0986   47.5305   33.2991 C   0  0  0  0  0  0
   62.0012   47.5955   30.8074 C   0  0  0  0  0  0
   62.1984   46.9650   29.5725 C   0  0  0  0  0  0
   63.1129   45.9156   29.5241 C   0  0  0  0  0  0
   64.2418   45.2375   35.4315 C   0  0  0  0  0  0
   60.9160   47.1563   33.8648 C   0  0  0  0  0  0
   64.2279   45.6254   33.0084 O   0  0  0  0  0  0
   59.7456   46.4771   33.2557 C   0  0  0  0  0  0
   57.1469   45.6751   31.7395 C   0  0  0  0  0  0
   64.5841   44.0851   30.4824 C   0  0  0  0  0  0
   55.9257   45.2773   31.0499 C   0  0  0  0  0  0
   59.6018   45.9390   32.0196 C   0  0  0  0  0  0
   61.3227   47.2901   28.3321 C   0  0  0  0  0  0
   58.4128   45.3794   31.3477 C   0  0  0  0  0  0
   63.5511   44.9914   34.0971 C   0  0  0  0  0  0
   55.8429   44.7005   29.9696 O   0  0  0  0  0  0
   63.6121   44.5547   36.3911 F   0  0  0  0  0  0
   65.4988   44.8188   35.3262 F   0  0  0  0  0  0
   64.2722   46.5063   35.8169 F   0  0  0  0  0  0
   60.7904   47.4796   35.1685 F   0  0  0  0  0  0
   54.8266   45.6768   31.7393 O   0  0  0  0  0  0
   63.0882   48.4156   34.0562 C   0  0  0  0  0  0
   64.5888   43.1332   31.7063 C   0  0  0  0  0  0
   66.0270   44.5259   30.1415 C   0  0  0  0  0  0
   64.0081   43.1691   29.3665 C   0  0  0  0  0  0
   59.8628   47.5851   28.7451 C   0  0  0  0  0  0
   61.1838   46.0876   27.3696 C   0  0  0  0  0  0
   61.8874   48.4666   27.5310 C   0  0  0  0  0  0
   58.6735   44.4413   30.1726 C   0  0  0  0  0  0
   61.2960   48.4086   30.8950 H   0  0  0  0  0  0
   63.3296   45.4869   28.5665 H   0  0  0  0  0  0
   58.8636   46.4701   33.8705 H   0  0  0  0  0  0
   56.9999   46.2910   32.6133 H   0  0  0  0  0  0
   60.4649   45.8861   31.3947 H   0  0  0  0  0  0
   62.5077   45.2653   34.1535 H   0  0  0  0  0  0
   63.5667   43.9153   33.9660 H   0  0  0  0  0  0
   55.0937   46.0845   32.5654 H   0  0  0  0  0  0
   62.9859   49.4509   33.7386 H   0  0  0  0  0  0
   62.9238   48.4297   35.1341 H   0  0  0  0  0  0
   64.1146   48.0934   33.8787 H   0  0  0  0  0  0
   63.5956   42.9682   32.0854 H   0  0  0  0  0  0
   64.9353   42.1258   31.4686 H   0  0  0  0  0  0
   65.2087   43.4910   32.5259 H   0  0  0  0  0  0
   66.0328   45.2321   29.3074 H   0  0  0  0  0  0
   66.4818   45.0474   30.9846 H   0  0  0  0  0  0
   66.6905   43.7007   29.8873 H   0  0  0  0  0  0
   64.0077   43.6089   28.3813 H   0  0  0  0  0  0
   64.6299   42.2836   29.2776 H   0  0  0  0  0  0
   62.9864   42.8453   29.5780 H   0  0  0  0  0  0
   59.7579   48.4769   29.3351 H   0  0  0  0  0  0
   59.2079   47.6850   27.8818 H   0  0  0  0  0  0
   59.4569   46.7846   29.3448 H   0  0  0  0  0  0
   62.1286   45.8017   26.9132 H   0  0  0  0  0  0
   60.8161   45.2346   27.9233 H   0  0  0  0  0  0
   60.4753   46.2798   26.5606 H   0  0  0  0  0  0
   62.7003   48.1731   26.8687 H   0  0  0  0  0  0
   61.0798   48.8777   26.9390 H   0  0  0  0  0  0
   62.2576   49.2769   28.1389 H   0  0  0  0  0  0
   59.7019   44.0824   30.1387 H   0  0  0  0  0  0
   58.0454   43.5553   30.2817 H   0  0  0  0  0  0
   58.3867   44.8910   29.2225 H   0  0  0  0  0  0
  1  2  1  0  0  0
  1  4  1  0  0  0
  1  5  2  0  0  0
  2  3  2  0  0  0
  2 10  1  0  0  0
  3 13  1  0  0  0
  3  7  1  0  0  0
  4  9  2  0  0  0
  4 25  1  0  0  0
  5  6  1  0  0  0
  5 33  1  0  0  0
  6  7  2  0  0  0
  6 16  1  0  0  0
  7 34  1  0  0  0
  8 18  1  0  0  0
  8 20  1  0  0  0
  8 21  1  0  0  0
  8 22  1  0  0  0
  9 11  1  0  0  0
  9 23  1  0  0  0
 10 18  1  0  0  0
 11 15  2  0  0  0
 11 35  1  0  0  0
 12 17  2  0  0  0
 12 14  1  0  0  0
 12 36  1  0  0  0
 13 26  1  0  0  0
 13 27  1  0  0  0
 13 28  1  0  0  0
 14 19  2  0  0  0
 14 24  1  0  0  0
 15 17  1  0  0  0
 15 37  1  0  0  0
 16 29  1  0  0  0
 16 30  1  0  0  0
 16 31  1  0  0  0
 17 32  1  0  0  0
 18 38  1  0  0  0
 18 39  1  0  0  0
 24 40  1  0  0  0
 25 41  1  0  0  0
 25 42  1  0  0  0
 25 43  1  0  0  0
 26 44  1  0  0  0
 26 45  1  0  0  0
 26 46  1  0  0  0
 27 47  1  0  0  0
 27 48  1  0  0  0
 27 49  1  0  0  0
 28 50  1  0  0  0
 28 51  1  0  0  0
 28 52  1  0  0  0
 29 53  1  0  0  0
 29 54  1  0  0  0
 29 55  1  0  0  0
 30 56  1  0  0  0
 30 57  1  0  0  0
 30 58  1  0  0  0
 31 59  1  0  0  0
 31 60  1  0  0  0
 31 61  1  0  0  0
 32 62  1  0  0  0
 32 63  1  0  0  0
 32 64  1  0  0  0
M  END
> <s_m_entry_id>
31236

> <s_m_entry_name>
dock_pv.449

> <s_m_Source_Path>
/home/csk/Desktop/cluster/DUD-E-result/rxra

> <s_m_Source_File>
dock_pv.maegz

> <i_m_Source_File_Index>
449

> <chembl_id>
CHEMBL335242

> <chembl_pref_name>
None

> <i_lp_mmshare_version>
53161

> <r_lp_tautomer_probability>
1

> <s_lp_Force_Field>
OPLS_2005

> <r_lp_Energy>
38.53274

> <b_lp_Chiralities_Consistent>
1

> <s_lp_Variant>
CHEMBL2061_lig100-1

> <s_i_glide_gridfile>
glide-grid_1mv9

> <i_i_glide_lignum>
139

> <i_i_glide_rotatable_bonds>
10

> <r_i_docking_score>
-8.35597112633999

> <r_i_glide_ligand_efficiency>
-0.261124097698125

> <r_i_glide_ligand_efficiency_sa>
-0.829017333802782

> <r_i_glide_ligand_efficiency_ln>
-1.87112971035778

> <r_i_glide_gscore>
-8.35597112633999

> <r_i_glide_lipo>
-4.7079261060382

> <r_i_glide_hbond>
0

> <r_i_glide_metal>
0

> <r_i_glide_rewards>
-2.58616980882424

> <r_i_glide_evdw>
-24.8297290802002

> <r_i_glide_ecoul>
-2.66001176834106

> <r_i_glide_erotb>
0.578613007783617

> <r_i_glide_esite>
0

> <r_i_glide_emodel>
-60.5799796046217

> <r_i_glide_energy>
-27.4897408485413

> <r_i_glide_einternal>
20.9451332092285

> <i_i_glide_confnum>
85

> <i_i_glide_posenum>
222

> <r_i_glide_eff_state_penalty>
0

> <s_user_duplicate_titles>
CHEMBL2061_lig100,217057

> <i_f3d_flags>
0

> <s_m_subgroup_title>
dock_pv

> <s_m_subgroupid>
dock_pv

> <b_m_subgroup_collapsed>
1

$$$$
CHEMBL2061_lig419
                    3D
 Schrodinger Suite 2021-1.
 64 64  0  0  1  0            999 V2000
   62.5895   46.9107   31.8662 C   0  0  0  0  0  0
   63.4612   45.8371   31.7643 C   0  0  0  0  0  0
   63.6704   45.1646   30.5668 C   0  0  0  0  0  0
   63.0301   45.6310   29.4107 C   0  0  0  0  0  0
   62.1667   46.7287   29.4613 C   0  0  0  0  0  0
   61.9530   47.3539   30.6912 C   0  0  0  0  0  0
   62.3476   47.5246   33.2627 C   0  0  0  0  0  0
   62.0082   49.0183   33.1897 C   0  0  0  0  0  0
   63.5654   47.4114   34.2253 C   0  0  0  0  0  0
   61.1519   46.7733   33.8943 C   0  0  0  0  0  0
   64.5898   43.9384   30.5622 C   0  0  0  0  0  0
   66.0030   44.4745   30.2167 C   0  0  0  0  0  0
   64.1027   42.8783   29.5535 C   0  0  0  0  0  0
   64.5919   43.1955   31.9366 C   0  0  0  0  0  0
   61.4986   47.2086   28.3069 N   0  0  0  0  0  0
   60.4381   46.2989   27.8905 C   0  0  0  0  0  0
   59.1630   46.3492   28.6946 C   0  0  0  0  0  0
   58.7600   45.3909   29.5450 C   0  0  0  0  0  0
   57.4952   45.4015   30.2449 C   0  0  0  0  0  0
   56.3536   45.6190   29.5399 C   0  0  0  0  0  0
   57.5843   45.1913   31.7409 C   0  0  0  0  0  0
   55.0092   45.6550   30.0626 C   0  0  0  0  0  0
   54.2202   46.4872   29.3350 O   0  0  0  0  0  0
   54.5928   45.0189   31.0318 O   0  0  0  0  0  0
   62.3715   47.5657   27.1856 C   0  0  0  0  0  0
   63.3490   48.7021   27.4946 C   0  0  0  0  0  0
   64.6633   48.5545   26.7393 C   0  0  0  0  0  0
   63.9639   45.4875   32.6502 H   0  0  0  0  0  0
   63.1890   45.1484   28.4618 H   0  0  0  0  0  0
   61.2717   48.1823   30.6894 H   0  0  0  0  0  0
   61.3584   49.2742   32.3682 H   0  0  0  0  0  0
   61.6075   49.2837   34.1420 H   0  0  0  0  0  0
   62.8078   49.7254   33.1420 H   0  0  0  0  0  0
   63.7315   46.3894   34.5733 H   0  0  0  0  0  0
   64.4871   47.7537   33.7459 H   0  0  0  0  0  0
   63.4279   48.0092   35.1275 H   0  0  0  0  0  0
   61.3558   45.7082   34.0008 H   0  0  0  0  0  0
   60.9060   47.1543   34.8891 H   0  0  0  0  0  0
   60.2553   46.8684   33.2808 H   0  0  0  0  0  0
   66.3978   45.0845   31.0310 H   0  0  0  0  0  0
   66.7355   43.6975   30.0250 H   0  0  0  0  0  0
   65.9901   45.1192   29.3393 H   0  0  0  0  0  0
   63.1362   42.4687   29.8373 H   0  0  0  0  0  0
   63.9976   43.2410   28.5375 H   0  0  0  0  0  0
   64.8402   42.0782   29.5154 H   0  0  0  0  0  0
   63.6081   43.1694   32.3920 H   0  0  0  0  0  0
   64.8634   42.1441   31.8501 H   0  0  0  0  0  0
   65.2564   43.6659   32.6638 H   0  0  0  0  0  0
   60.8192   45.2773   27.8856 H   0  0  0  0  0  0
   60.1604   46.4835   26.8527 H   0  0  0  0  0  0
   58.5613   47.2292   28.5346 H   0  0  0  0  0  0
   59.4079   44.5477   29.7394 H   0  0  0  0  0  0
   56.4175   45.7759   28.4725 H   0  0  0  0  0  0
   58.2885   45.9047   32.1693 H   0  0  0  0  0  0
   56.6464   45.3023   32.2723 H   0  0  0  0  0  0
   58.0083   44.2099   31.9447 H   0  0  0  0  0  0
   54.7282   46.9027   28.6345 H   0  0  0  0  0  0
   62.9453   46.6728   26.9310 H   0  0  0  0  0  0
   61.8237   47.8164   26.2765 H   0  0  0  0  0  0
   62.8652   49.6660   27.3340 H   0  0  0  0  0  0
   63.6027   48.7037   28.5389 H   0  0  0  0  0  0
   65.3049   49.4149   26.9368 H   0  0  0  0  0  0
   65.2039   47.6596   27.0539 H   0  0  0  0  0  0
   64.4662   48.4723   25.6712 H   0  0  0  0  0  0
  1  2  2  0  0  0
  1  7  1  0  0  0
  1  6  1  0  0  0
  2  3  1  0  0  0
  2 28  1  0  0  0
  3  4  2  0  0  0
  3 11  1  0  0  0
  4  5  1  0  0  0
  4 29  1  0  0  0
  5 15  1  0  0  0
  5  6  2  0  0  0
  6 30  1  0  0  0
  7  8  1  0  0  0
  7  9  1  0  0  0
  7 10  1  0  0  0
  8 31  1  0  0  0
  8 32  1  0  0  0
  8 33  1  0  0  0
  9 34  1  0  0  0
  9 35  1  0  0  0
  9 36  1  0  0  0
 10 37  1  0  0  0
 10 38  1  0  0  0
 10 39  1  0  0  0
 11 14  1  0  0  0
 11 12  1  0  0  0
 11 13  1  0  0  0
 12 40  1  0  0  0
 12 41  1  0  0  0
 12 42  1  0  0  0
 13 43  1  0  0  0
 13 44  1  0  0  0
 13 45  1  0  0  0
 14 46  1  0  0  0
 14 47  1  0  0  0
 14 48  1  0  0  0
 15 16  1  0  0  0
 15 25  1  0  0  0
 16 17  1  0  0  0
 16 49  1  0  0  0
 16 50  1  0  0  0
 17 18  2  0  0  0
 17 51  1  0  0  0
 18 19  1  0  0  0
 18 52  1  0  0  0
 19 20  2  0  0  0
 19 21  1  0  0  0
 20 22  1  0  0  0
 20 53  1  0  0  0
 21 54  1  0  0  0
 21 55  1  0  0  0
 21 56  1  0  0  0
 22 23  1  0  0  0
 22 24  2  0  0  0
 23 57  1  0  0  0
 25 26  1  0  0  0
 25 58  1  0  0  0
 25 59  1  0  0  0
 26 27  1  0  0  0
 26 60  1  0  0  0
 26 61  1  0  0  0
 27 62  1  0  0  0
 27 63  1  0  0  0
 27 64  1  0  0  0
M  END
> <s_m_entry_id>
31237

> <s_m_entry_name>
dock_pv.450

> <s_m_Source_Path>
/home/csk/Desktop/cluster/DUD-E-result/rxra

> <s_m_Source_File>
dock_pv.maegz

> <i_m_Source_File_Index>
450

> <chembl_id>
CHEMBL379057

> <chembl_pref_name>
None

> <i_lp_mmshare_version>
53161

> <r_lp_tautomer_probability>
1

> <s_lp_Force_Field>
OPLS_2005

> <r_lp_Energy>
24.33752

> <b_lp_Chiralities_Consistent>
1

> <s_lp_Variant>
CHEMBL2061_lig419-1

> <s_i_glide_gridfile>
glide-grid_1mv9

> <i_i_glide_lignum>
490

> <i_i_glide_rotatable_bonds>
10

> <r_i_docking_score>
-8.33764794093058

> <r_i_glide_ligand_efficiency>
-0.308801775590022

> <r_i_glide_ligand_efficiency_sa>
-0.926405325752304

> <r_i_glide_ligand_efficiency_ln>
-1.9408669837795

> <r_i_glide_gscore>
-8.33764794093058

> <r_i_glide_lipo>
-5.63151648027443

> <r_i_glide_hbond>
-0.0749128573615921

> <r_i_glide_metal>
0

> <r_i_glide_rewards>
-1.13239248984257

> <r_i_glide_evdw>
-35.0740852355957

> <r_i_glide_ecoul>
-3.89411544799805

> <r_i_glide_erotb>
0.838995465527512

> <r_i_glide_esite>
0

> <r_i_glide_emodel>
-32.9241157998008

> <r_i_glide_energy>
-38.9682006835938

> <r_i_glide_einternal>
20.3943977355957

> <i_i_glide_confnum>
169

> <i_i_glide_posenum>
97

> <r_i_glide_eff_state_penalty>
0

> <s_user_duplicate_titles>
CHEMBL2061_lig419,345704

> <i_f3d_flags>
0

> <s_m_subgroup_title>
dock_pv

> <s_m_subgroupid>
dock_pv

> <b_m_subgroup_collapsed>
1

$$$$
CHEMBL2061_lig551 
                    3D
 Schrodinger Suite 2021-1.
 35 36  0  0  1  0            999 V2000
   61.6497   46.6692   29.9956 C   0  0  0  0  0  0
   61.6377   47.2768   28.7474 C   0  0  0  0  0  0
   60.4379   47.2700   28.0492 C   0  0  0  0  0  0
   59.3180   46.6660   28.5273 N   0  0  0  0  0  0
   59.4247   46.0770   29.7470 C   0  0  0  0  0  0
   60.5435   46.0770   30.5204 N   0  0  0  0  0  0
   62.8674   46.6670   30.6762 N   0  0  0  0  0  0
   63.2115   46.4358   32.0137 C   0  0  0  0  0  0
   64.4891   45.9317   32.3359 C   0  0  0  0  0  0
   64.8563   45.7873   33.6907 C   0  0  0  0  0  0
   63.9511   46.1691   34.6939 C   0  0  0  0  0  0
   62.6902   46.6545   34.3629 C   0  0  0  0  0  0
   62.3207   46.7853   33.0310 C   0  0  0  0  0  0
   57.9967   45.2770   30.4244 S   0  0  0  0  0  0
   56.5746   45.5234   29.3003 C   0  0  0  0  0  0
   55.2040   45.4412   29.9812 C   0  0  0  0  0  0
   55.1471   44.4770   30.9390 O   0  0  0  0  0  0
   54.2516   46.1516   29.6682 O   0  0  0  0  0  0
   60.4080   48.0770   26.5390 Cl  0  0  0  0  0  0
   64.4080   46.0770   36.5390 Br  0  0  0  0  0  0
   65.4871   45.5581   31.2323 C   0  0  0  0  0  0
   66.2174   45.2141   34.0907 C   0  0  0  0  0  0
   62.5152   47.7534   28.3363 H   0  0  0  0  0  0
   63.6454   46.9691   30.1126 H   0  0  0  0  0  0
   62.0019   46.9469   35.1423 H   0  0  0  0  0  0
   61.3485   47.1912   32.7952 H   0  0  0  0  0  0
   56.5981   44.7468   28.5390 H   0  0  0  0  0  0
   56.6650   46.4770   28.7810 H   0  0  0  0  0  0
   56.0080   44.0674   31.0595 H   0  0  0  0  0  0
   66.4509   46.0187   31.4382 H   0  0  0  0  0  0
   65.6289   44.4777   31.1995 H   0  0  0  0  0  0
   65.2084   45.8917   30.2339 H   0  0  0  0  0  0
   66.6819   44.6113   33.3123 H   0  0  0  0  0  0
   66.9004   46.0134   34.3780 H   0  0  0  0  0  0
   66.1110   44.5388   34.9390 H   0  0  0  0  0  0
  1  2  2  0  0  0
  1  6  1  0  0  0
  1  7  1  0  0  0
  2  3  1  0  0  0
  2 23  1  0  0  0
  3  4  2  0  0  0
  3 19  1  0  0  0
  4  5  1  0  0  0
  5  6  2  0  0  0
  5 14  1  0  0  0
  7  8  1  0  0  0
  7 24  1  0  0  0
  8  9  2  0  0  0
  8 13  1  0  0  0
  9 10  1  0  0  0
  9 21  1  0  0  0
 10 11  2  0  0  0
 10 22  1  0  0  0
 11 12  1  0  0  0
 11 20  1  0  0  0
 12 13  2  0  0  0
 12 25  1  0  0  0
 13 26  1  0  0  0
 14 15  1  0  0  0
 15 16  1  0  0  0
 15 27  1  0  0  0
 15 28  1  0  0  0
 16 17  1  0  0  0
 16 18  2  0  0  0
 17 29  1  0  0  0
 21 30  1  0  0  0
 21 31  1  0  0  0
 21 32  1  0  0  0
 22 33  1  0  0  0
 22 34  1  0  0  0
 22 35  1  0  0  0
M  END
> <s_m_entry_id>
31238

> <s_m_entry_name>
dock_pv.451

> <s_m_Source_Path>
/home/csk/Desktop/cluster/DUD-E-result/rxra

> <s_m_Source_File>
dock_pv.maegz

> <i_m_Source_File_Index>
451

> <chembl_id>
CHEMBL4533202

> <chembl_pref_name>
None

> <i_lp_mmshare_version>
53161

> <r_lp_tautomer_probability>
0.999999998296584

> <s_lp_Force_Field>
OPLS_2005

> <r_lp_Energy>
6.176291

> <b_lp_Chiralities_Consistent>
1

> <s_lp_Variant>
CHEMBL2061_lig551 -1

> <s_i_glide_gridfile>
glide-grid_1mv9

> <i_i_glide_lignum>
651

> <i_i_glide_rotatable_bonds>
6

> <r_i_docking_score>
-8.33045282925429

> <r_i_glide_ligand_efficiency>
-0.378656946784286

> <r_i_glide_ligand_efficiency_sa>
-1.06101165662224

> <r_i_glide_ligand_efficiency_ln>
-2.03626653211967

> <r_i_glide_gscore>
-8.33045282925429

> <r_i_glide_lipo>
-4.08216195730362

> <r_i_glide_hbond>
-0.068310524433004

> <r_i_glide_metal>
0

> <r_i_glide_rewards>
-1.97529343766324

> <r_i_glide_evdw>
-48.8875389099121

> <r_i_glide_ecoul>
-2.43633460998535

> <r_i_glide_erotb>
0.605140227138973

> <r_i_glide_esite>
0

> <r_i_glide_emodel>
-72.3831279757318

> <r_i_glide_energy>
-51.3238735198975

> <r_i_glide_einternal>
6.62125635147095

> <i_i_glide_confnum>
146

> <i_i_glide_posenum>
134

> <r_i_glide_eff_state_penalty>
0

> <s_user_duplicate_titles>
CHEMBL2061_lig551 

> <i_f3d_flags>
0

> <s_m_subgroup_title>
dock_pv

> <s_m_subgroupid>
dock_pv

> <b_m_subgroup_collapsed>
1

$$$$
CHEMBL2061_lig50
                    3D
 Schrodinger Suite 2021-1.
 55 58  0  0  1  0            999 V2000
   55.8424   45.2771   31.2788 O   0  0  0  0  0  0
   56.3835   44.9395   30.0137 C   0  0  2  0  0  0
   57.9332   44.7665   30.1959 C   0  0  0  0  0  0
   58.6817   46.0769   30.5222 C   0  0  2  0  0  0
   58.7973   46.8503   29.3388 O   0  0  0  0  0  0
   60.0870   46.0593   31.0954 C   0  0  0  0  0  0
   60.5588   46.4769   32.3031 C   0  0  0  0  0  0
   61.9684   46.4769   32.8308 C   0  0  0  0  0  0
   62.2219   46.5964   34.2225 C   0  0  0  0  0  0
   63.3897   46.3240   34.8236 N   0  0  0  0  0  0
   64.4160   45.9390   34.0748 C   0  0  0  0  0  0
   65.5679   45.4940   34.7481 C   0  0  0  0  0  0
   66.5923   44.9323   34.0115 C   0  0  0  0  0  0
   66.4883   44.9213   32.6307 C   0  0  0  0  0  0
   65.4599   45.4925   31.9439 C   0  0  0  0  0  0
   64.3327   45.9130   32.6566 C   0  0  0  0  0  0
   63.0979   46.1955   32.0168 C   0  0  0  0  0  0
   63.0216   45.9557   30.5502 C   0  0  0  0  0  0
   62.6643   46.9572   29.6400 C   0  0  0  0  0  0
   62.3480   46.6056   28.3290 C   0  0  0  0  0  0
   62.4132   45.2650   27.9503 C   0  0  0  0  0  0
   62.0082   44.8771   26.7367 F   0  0  0  0  0  0
   62.8784   44.2884   28.8124 C   0  0  0  0  0  0
   63.2085   44.6417   30.1041 C   0  0  0  0  0  0
   61.2802   47.0737   35.2909 C   0  0  0  0  0  0
   61.7805   48.0766   36.3526 C   0  0  0  0  0  0
   60.8306   48.4770   35.3390 C   0  0  0  0  0  0
   55.9152   45.9800   28.9357 C   0  0  0  0  0  0
   54.4620   46.4768   28.9969 C   0  0  0  0  0  0
   53.6095   45.9926   29.7390 O   0  0  0  0  0  0
   54.2355   47.5164   28.1481 O   0  0  0  0  0  0
   54.9004   45.4208   31.1546 H   0  0  0  0  0  0
   55.9659   43.9674   29.7479 H   0  0  0  0  0  0
   58.0958   44.0623   31.0138 H   0  0  0  0  0  0
   58.3751   44.2737   29.3390 H   0  0  0  0  0  0
   58.0530   46.4770   31.2972 H   0  0  0  0  0  0
   59.3125   46.3512   28.7029 H   0  0  0  0  0  0
   60.7242   45.5822   30.3854 H   0  0  0  0  0  0
   59.8287   46.8746   32.9890 H   0  0  0  0  0  0
   65.6077   45.5219   35.8263 H   0  0  0  0  0  0
   67.4515   44.5035   34.5053 H   0  0  0  0  0  0
   67.2080   44.4769   31.9949 H   0  0  0  0  0  0
   65.4891   45.4826   30.8647 H   0  0  0  0  0  0
   62.5370   47.9779   29.9727 H   0  0  0  0  0  0
   62.0037   47.3522   27.6288 H   0  0  0  0  0  0
   62.9505   43.2600   28.4897 H   0  0  0  0  0  0
   63.5252   43.8680   30.7897 H   0  0  0  0  0  0
   60.5671   46.3113   35.6076 H   0  0  0  0  0  0
   61.3624   48.0796   37.3405 H   0  0  0  0  0  0
   62.7992   48.4643   36.3090 H   0  0  0  0  0  0
   61.2080   49.1428   34.5566 H   0  0  0  0  0  0
   59.8078   48.5934   35.6471 H   0  0  0  0  0  0
   56.1044   45.5787   27.9398 H   0  0  0  0  0  0
   56.4895   46.8920   29.0151 H   0  0  0  0  0  0
   55.0351   47.7866   27.6926 H   0  0  0  0  0  0
  1  2  1  0  0  0
  1 32  1  0  0  0
  2  3  1  0  0  0
  2 28  1  0  0  0
  2 33  1  0  0  0
  3  4  1  0  0  0
  3 34  1  0  0  0
  3 35  1  0  0  0
  4  5  1  0  0  0
  4  6  1  0  0  0
  4 36  1  0  0  0
  5 37  1  0  0  0
  6  7  2  0  0  0
  6 38  1  0  0  0
  7  8  1  0  0  0
  7 39  1  0  0  0
  8  9  2  0  0  0
  8 17  1  0  0  0
  9 10  1  0  0  0
  9 25  1  0  0  0
 10 11  2  0  0  0
 11 12  1  0  0  0
 11 16  1  0  0  0
 12 13  2  0  0  0
 12 40  1  0  0  0
 13 14  1  0  0  0
 13 41  1  0  0  0
 14 15  2  0  0  0
 14 42  1  0  0  0
 15 16  1  0  0  0
 15 43  1  0  0  0
 16 17  2  0  0  0
 17 18  1  0  0  0
 18 19  2  0  0  0
 18 24  1  0  0  0
 19 20  1  0  0  0
 19 44  1  0  0  0
 20 21  2  0  0  0
 20 45  1  0  0  0
 21 22  1  0  0  0
 21 23  1  0  0  0
 23 24  2  0  0  0
 23 46  1  0  0  0
 24 47  1  0  0  0
 25 26  1  0  0  0
 25 27  1  0  0  0
 25 48  1  0  0  0
 26 27  1  0  0  0
 26 49  1  0  0  0
 26 50  1  0  0  0
 27 51  1  0  0  0
 27 52  1  0  0  0
 28 29  1  0  0  0
 28 53  1  0  0  0
 28 54  1  0  0  0
 29 30  2  0  0  0
 29 31  1  0  0  0
 31 55  1  0  0  0
M  END
> <s_m_entry_id>
31239

> <s_m_entry_name>
dock_pv.452

> <s_m_Source_Path>
/home/csk/Desktop/cluster/DUD-E-result/rxra

> <s_m_Source_File>
dock_pv.maegz

> <i_m_Source_File_Index>
452

> <chembl_id>
CHEMBL1237061

> <chembl_pref_name>
PITAVASTATIN CALCIUM

> <i_lp_mmshare_version>
53161

> <r_lp_tautomer_probability>
1

> <s_lp_Force_Field>
OPLS_2005

> <r_lp_Energy>
35.760904

> <b_lp_Chiralities_Consistent>
1

> <s_lp_Variant>
CHEMBL2061_lig50-1

> <s_i_glide_gridfile>
glide-grid_1mv9

> <i_i_glide_lignum>
68

> <i_i_glide_rotatable_bonds>
11

> <r_i_docking_score>
-8.32887142291652

> <r_i_glide_ligand_efficiency>
-0.268673271706985

> <r_i_glide_ligand_efficiency_sa>
-0.844005016588916

> <r_i_glide_ligand_efficiency_ln>
-1.87841575512251

> <r_i_glide_gscore>
-8.32887142291652

> <r_i_glide_lipo>
-6.26892443477047

> <r_i_glide_hbond>
-0.19639613599736

> <r_i_glide_metal>
0

> <r_i_glide_rewards>
-1.47497946411326

> <r_i_glide_evdw>
-16.0060005187988

> <r_i_glide_ecoul>
-3.20061016082764

> <r_i_glide_erotb>
0.891820162028658

> <r_i_glide_esite>
0

> <r_i_glide_emodel>
-36.4935556412307

> <r_i_glide_energy>
-19.2066106796265

> <r_i_glide_einternal>
13.1169385910034

> <i_i_glide_confnum>
63

> <i_i_glide_posenum>
90

> <r_i_glide_eff_state_penalty>
0

> <s_user_duplicate_titles>
CHEMBL2061_lig50

> <i_f3d_flags>
0

> <s_m_subgroup_title>
dock_pv

> <s_m_subgroupid>
dock_pv

> <b_m_subgroup_collapsed>
1

$$$$
CHEMBL2061_lig42
                    3D
 Schrodinger Suite 2021-1.
 46 48  0  0  1  0            999 V2000
   60.7888   46.6400   27.8807 C   0  0  0  0  0  0
   61.6224   46.1836   28.8915 C   0  0  0  0  0  0
   61.0570   45.7411   30.0797 C   0  0  0  0  0  0
   59.4065   46.4940   27.9886 C   0  0  0  0  0  0
   58.8313   46.0716   29.1860 C   0  0  0  0  0  0
   59.6697   45.8192   30.2520 C   0  0  0  0  0  0
   58.8263   45.8408   31.4349 C   0  0  0  0  0  0
   57.4513   45.7099   30.9651 C   0  0  0  0  0  0
   57.4347   45.8575   29.6146 C   0  0  0  0  0  0
   61.3212   47.2772   26.8250 F   0  0  0  0  0  0
   56.2272   45.6723   31.8691 C   0  0  0  0  0  0
   56.2732   45.9186   28.6033 C   0  0  0  0  0  0
   54.8695   45.6810   29.1529 C   0  0  0  0  0  0
   54.6484   44.3604   29.3843 O   0  0  0  0  0  0
   54.0424   46.5725   29.3368 O   0  0  0  0  0  0
   59.2225   46.0707   32.7045 C   0  0  0  0  0  0
   60.5466   46.4104   33.2507 C   0  0  0  0  0  0
   60.8055   45.8931   34.5022 C   0  0  0  0  0  0
   62.0179   46.1028   35.1282 C   0  0  0  0  0  0
   62.9815   46.8829   34.4983 C   0  0  0  0  0  0
   62.7186   47.4491   33.2565 C   0  0  0  0  0  0
   61.5010   47.2262   32.6344 C   0  0  0  0  0  0
   64.2970   47.1444   35.1957 C   0  0  0  0  0  0
   65.0863   45.8423   35.4005 C   0  0  0  0  0  0
   64.0360   47.9080   36.5021 C   0  0  0  0  0  0
   62.6954   46.2425   28.7848 H   0  0  0  0  0  0
   61.7161   45.4432   30.8797 H   0  0  0  0  0  0
   58.8060   46.8162   27.1684 H   0  0  0  0  0  0
   56.4520   45.8428   32.9184 H   0  0  0  0  0  0
   55.5587   46.4761   31.5984 H   0  0  0  0  0  0
   55.6781   44.7416   31.7364 H   0  0  0  0  0  0
   56.2424   46.8765   28.1397 H   0  0  0  0  0  0
   56.4280   45.2697   27.7542 H   0  0  0  0  0  0
   55.3684   43.8122   29.0618 H   0  0  0  0  0  0
   58.4540   46.0736   33.4593 H   0  0  0  0  0  0
   60.0705   45.2421   34.9393 H   0  0  0  0  0  0
   62.2061   45.6557   36.0934 H   0  0  0  0  0  0
   63.4494   48.0746   32.7819 H   0  0  0  0  0  0
   61.2946   47.7121   31.6924 H   0  0  0  0  0  0
   64.9118   47.7816   34.5552 H   0  0  0  0  0  0
   65.1761   45.2766   34.4718 H   0  0  0  0  0  0
   66.0934   46.0762   35.7303 H   0  0  0  0  0  0
   64.6249   45.1949   36.1459 H   0  0  0  0  0  0
   64.0150   48.9774   36.2893 H   0  0  0  0  0  0
   63.0725   47.6763   36.9420 H   0  0  0  0  0  0
   64.8060   47.6850   37.2527 H   0  0  0  0  0  0
  1  2  2  0  0  0
  1  4  1  0  0  0
  1 10  1  0  0  0
  2  3  1  0  0  0
  2 26  1  0  0  0
  3  6  2  0  0  0
  3 27  1  0  0  0
  4  5  2  0  0  0
  4 28  1  0  0  0
  5  6  1  0  0  0
  5  9  1  0  0  0
  6  7  1  0  0  0
  7  8  1  0  0  0
  7 16  2  0  0  0
  8  9  2  0  0  0
  8 11  1  0  0  0
  9 12  1  0  0  0
 11 29  1  0  0  0
 11 30  1  0  0  0
 11 31  1  0  0  0
 12 13  1  0  0  0
 12 32  1  0  0  0
 12 33  1  0  0  0
 13 14  1  0  0  0
 13 15  2  0  0  0
 14 34  1  0  0  0
 16 17  1  0  0  0
 16 35  1  0  0  0
 17 18  2  0  0  0
 17 22  1  0  0  0
 18 19  1  0  0  0
 18 36  1  0  0  0
 19 20  2  0  0  0
 19 37  1  0  0  0
 20 21  1  0  0  0
 20 23  1  0  0  0
 21 22  2  0  0  0
 21 38  1  0  0  0
 22 39  1  0  0  0
 23 24  1  0  0  0
 23 25  1  0  0  0
 23 40  1  0  0  0
 24 41  1  0  0  0
 24 42  1  0  0  0
 24 43  1  0  0  0
 25 44  1  0  0  0
 25 45  1  0  0  0
 25 46  1  0  0  0
M  END
> <s_m_entry_id>
31241

> <s_m_entry_name>
dock_pv.454

> <s_m_Source_Path>
/home/csk/Desktop/cluster/DUD-E-result/rxra

> <s_m_Source_File>
dock_pv.maegz

> <i_m_Source_File_Index>
454

> <chembl_id>
CHEMBL2337793

> <chembl_pref_name>
None

> <i_lp_mmshare_version>
53161

> <r_lp_tautomer_probability>
1

> <s_lp_Force_Field>
OPLS_2005

> <r_lp_Energy>
38.009618

> <b_lp_Chiralities_Consistent>
1

> <s_lp_Variant>
CHEMBL2061_lig42-1

> <s_i_glide_gridfile>
glide-grid_1mv9

> <i_i_glide_lignum>
58

> <i_i_glide_rotatable_bonds>
5

> <r_i_docking_score>
-8.29480968262955

> <r_i_glide_ligand_efficiency>
-0.331792387305182

> <r_i_glide_ligand_efficiency_sa>
-0.970166824843397

> <r_i_glide_ligand_efficiency_ln>
-1.96611847017059

> <r_i_glide_gscore>
-8.29480968262955

> <r_i_glide_lipo>
-4.87710171752757

> <r_i_glide_hbond>
-0.0678728536418403

> <r_i_glide_metal>
0

> <r_i_glide_rewards>
-2.44484445423656

> <r_i_glide_evdw>
-15.9935941696167

> <r_i_glide_ecoul>
-4.03984642028809

> <r_i_glide_erotb>
0.500666014300463

> <r_i_glide_esite>
0

> <r_i_glide_emodel>
-35.2252430434876

> <r_i_glide_energy>
-20.0334405899048

> <r_i_glide_einternal>
8.3475227355957

> <i_i_glide_confnum>
17

> <i_i_glide_posenum>
50

> <r_i_glide_eff_state_penalty>
0

> <s_user_duplicate_titles>
CHEMBL2061_lig42

> <i_f3d_flags>
0

> <s_m_subgroup_title>
dock_pv

> <s_m_subgroupid>
dock_pv

> <b_m_subgroup_collapsed>
1

$$$$
CHEMBL2061_lig532 
                    3D
 Schrodinger Suite 2021-1.
 31 32  0  0  1  0            999 V2000
   63.5801   46.7504   28.5622 C   0  0  0  0  0  0
   62.6204   47.5661   27.9645 C   0  0  0  0  0  0
   61.2629   47.3653   28.2384 C   0  0  0  0  0  0
   60.8487   46.3658   29.1320 C   0  0  0  0  0  0
   61.8405   45.6112   29.7700 C   0  0  0  0  0  0
   63.1947   45.7767   29.4795 C   0  0  0  0  0  0
   59.4022   46.0768   29.3819 C   0  0  0  0  0  0
   58.4742   46.1478   28.3437 C   0  0  0  0  0  0
   57.1237   45.8845   28.5607 C   0  0  0  0  0  0
   56.6740   45.5006   29.8268 C   0  0  0  0  0  0
   57.6064   45.3498   30.8579 C   0  0  0  0  0  0
   58.9442   45.6770   30.6416 C   0  0  0  0  0  0
   55.2091   45.2736   30.0845 C   0  0  0  0  0  0
   54.7843   44.4993   30.9389 O   0  0  0  0  0  0
   54.3970   46.0778   29.3426 O   0  0  0  0  0  0
   64.2346   44.9112   30.1678 C   0  0  0  0  0  0
   63.0589   48.6876   27.0514 C   0  0  0  0  0  0
   64.6289   46.8910   28.3409 H   0  0  0  0  0  0
   60.5300   47.9944   27.7544 H   0  0  0  0  0  0
   61.5536   44.8770   30.4994 H   0  0  0  0  0  0
   58.8044   46.4202   27.3529 H   0  0  0  0  0  0
   56.4435   45.9685   27.7257 H   0  0  0  0  0  0
   57.2933   45.0666   31.8517 H   0  0  0  0  0  0
   59.6265   45.6770   31.4781 H   0  0  0  0  0  0
   54.9358   46.6547   28.7986 H   0  0  0  0  0  0
   65.2514   45.2535   29.9692 H   0  0  0  0  0  0
   64.0834   44.9290   31.2478 H   0  0  0  0  0  0
   64.1402   43.8756   29.8399 H   0  0  0  0  0  0
   64.1313   48.8776   27.1221 H   0  0  0  0  0  0
   62.8083   48.4602   26.0163 H   0  0  0  0  0  0
   62.5448   49.6065   27.3390 H   0  0  0  0  0  0
  1  2  2  0  0  0
  1  6  1  0  0  0
  1 18  1  0  0  0
  2  3  1  0  0  0
  2 17  1  0  0  0
  3  4  2  0  0  0
  3 19  1  0  0  0
  4  5  1  0  0  0
  4  7  1  0  0  0
  5  6  2  0  0  0
  5 20  1  0  0  0
  6 16  1  0  0  0
  7  8  2  0  0  0
  7 12  1  0  0  0
  8  9  1  0  0  0
  8 21  1  0  0  0
  9 10  2  0  0  0
  9 22  1  0  0  0
 10 11  1  0  0  0
 10 13  1  0  0  0
 11 12  2  0  0  0
 11 23  1  0  0  0
 12 24  1  0  0  0
 13 14  2  0  0  0
 13 15  1  0  0  0
 15 25  1  0  0  0
 16 26  1  0  0  0
 16 27  1  0  0  0
 16 28  1  0  0  0
 17 29  1  0  0  0
 17 30  1  0  0  0
 17 31  1  0  0  0
M  END
> <s_m_entry_id>
31243

> <s_m_entry_name>
dock_pv.456

> <s_m_Source_Path>
/home/csk/Desktop/cluster/DUD-E-result/rxra

> <s_m_Source_File>
dock_pv.maegz

> <i_m_Source_File_Index>
456

> <chembl_id>
CHEMBL4551787

> <chembl_pref_name>
None

> <i_lp_mmshare_version>
53161

> <r_lp_tautomer_probability>
1

> <s_lp_Force_Field>
OPLS_2005

> <r_lp_Energy>
14.596696

> <b_lp_Chiralities_Consistent>
1

> <s_lp_Variant>
CHEMBL2061_lig532 -1

> <s_i_glide_gridfile>
glide-grid_1mv9

> <i_i_glide_lignum>
632

> <i_i_glide_rotatable_bonds>
3

> <r_i_docking_score>
-8.26681530949662

> <r_i_glide_ligand_efficiency>
-0.486283253499801

> <r_i_glide_ligand_efficiency_sa>
-1.25037117638857

> <r_i_glide_ligand_efficiency_ln>
-2.15662802132189

> <r_i_glide_gscore>
-8.26681530949662

> <r_i_glide_lipo>
-4.0392661466833

> <r_i_glide_hbond>
-0.110178089979446

> <r_i_glide_metal>
0

> <r_i_glide_rewards>
-2.73947883949707

> <r_i_glide_evdw>
-32.5330390930176

> <r_i_glide_ecoul>
-2.76645851135254

> <r_i_glide_erotb>
0.663728498016956

> <r_i_glide_esite>
0

> <r_i_glide_emodel>
-49.3870185666165

> <r_i_glide_energy>
-35.2994976043701

> <r_i_glide_einternal>
3.12187695503235

> <i_i_glide_confnum>
3

> <i_i_glide_posenum>
168

> <r_i_glide_eff_state_penalty>
0

> <s_user_duplicate_titles>
CHEMBL2061_lig532 

> <i_f3d_flags>
0

> <s_m_subgroup_title>
dock_pv

> <s_m_subgroupid>
dock_pv

> <b_m_subgroup_collapsed>
1

$$$$
CHEMBL2061_lig41
                    3D
 Schrodinger Suite 2021-1.
 43 45  0  0  1  0            999 V2000
   55.6887   45.4132   29.8172 C   0  0  0  0  0  0
   55.8596   45.2447   31.1810 C   0  0  0  0  0  0
   57.1270   45.3448   31.7390 C   0  0  0  0  0  0
   56.7925   45.6765   28.9957 C   0  0  0  0  0  0
   58.0569   45.8314   29.5853 C   0  0  0  0  0  0
   58.2127   45.6770   30.9563 C   0  0  0  0  0  0
   59.5602   46.0769   31.3524 C   0  0  0  0  0  0
   60.1773   46.4083   30.0994 C   0  0  0  0  0  0
   59.3554   46.2391   29.0554 C   0  0  0  0  0  0
   59.6104   46.5114   27.5970 C   0  0  0  0  0  0
   61.0605   46.9300   27.3390 C   0  0  0  0  0  0
   61.9244   45.8829   27.4768 O   0  0  0  0  0  0
   61.3849   48.0765   27.0562 O   0  0  0  0  0  0
   60.0640   46.1511   32.6050 C   0  0  0  0  0  0
   61.4656   46.4555   32.9672 C   0  0  0  0  0  0
   61.7953   46.9189   34.2437 C   0  0  0  0  0  0
   63.1308   46.9406   34.6492 C   0  0  0  0  0  0
   64.1316   46.4932   33.7773 C   0  0  0  0  0  0
   63.8020   46.0773   32.4940 C   0  0  0  0  0  0
   62.4898   46.0770   32.0934 C   0  0  0  0  0  0
   65.5923   46.4721   34.1940 C   0  0  0  0  0  0
   66.5201   46.8810   33.0397 C   0  0  0  0  0  0
   66.0039   45.1171   34.7845 C   0  0  0  0  0  0
   54.4307   45.3682   29.3387 F   0  0  0  0  0  0
   55.0061   45.0509   31.8084 H   0  0  0  0  0  0
   57.2404   45.2773   32.8089 H   0  0  0  0  0  0
   56.6431   45.8232   27.9369 H   0  0  0  0  0  0
   61.1745   46.8008   29.9923 H   0  0  0  0  0  0
   59.3274   45.6770   26.9690 H   0  0  0  0  0  0
   58.9337   47.3045   27.3390 H   0  0  0  0  0  0
   61.4776   45.0760   27.7386 H   0  0  0  0  0  0
   59.4126   45.9144   33.4334 H   0  0  0  0  0  0
   61.0210   47.2027   34.9420 H   0  0  0  0  0  0
   63.3818   47.2730   35.6460 H   0  0  0  0  0  0
   64.5466   45.7033   31.8080 H   0  0  0  0  0  0
   62.3039   45.6009   31.1471 H   0  0  0  0  0  0
   65.6573   47.2526   34.9389 H   0  0  0  0  0  0
   66.0192   47.6973   32.5389 H   0  0  0  0  0  0
   67.5050   47.2309   33.3406 H   0  0  0  0  0  0
   66.6683   46.0765   32.3192 H   0  0  0  0  0  0
   65.5043   44.9362   35.7380 H   0  0  0  0  0  0
   65.7497   44.2952   34.1135 H   0  0  0  0  0  0
   67.0821   45.0766   34.9385 H   0  0  0  0  0  0
  1  2  2  0  0  0
  1  4  1  0  0  0
  1 24  1  0  0  0
  2  3  1  0  0  0
  2 25  1  0  0  0
  3  6  2  0  0  0
  3 26  1  0  0  0
  4  5  2  0  0  0
  4 27  1  0  0  0
  5  6  1  0  0  0
  5  9  1  0  0  0
  6  7  1  0  0  0
  7  8  1  0  0  0
  7 14  2  0  0  0
  8  9  2  0  0  0
  8 28  1  0  0  0
  9 10  1  0  0  0
 10 11  1  0  0  0
 10 29  1  0  0  0
 10 30  1  0  0  0
 11 12  1  0  0  0
 11 13  2  0  0  0
 12 31  1  0  0  0
 14 15  1  0  0  0
 14 32  1  0  0  0
 15 16  2  0  0  0
 15 20  1  0  0  0
 16 17  1  0  0  0
 16 33  1  0  0  0
 17 18  2  0  0  0
 17 34  1  0  0  0
 18 19  1  0  0  0
 18 21  1  0  0  0
 19 20  2  0  0  0
 19 35  1  0  0  0
 20 36  1  0  0  0
 21 22  1  0  0  0
 21 23  1  0  0  0
 21 37  1  0  0  0
 22 38  1  0  0  0
 22 39  1  0  0  0
 22 40  1  0  0  0
 23 41  1  0  0  0
 23 42  1  0  0  0
 23 43  1  0  0  0
M  END
> <s_m_entry_id>
31244

> <s_m_entry_name>
dock_pv.457

> <s_m_Source_Path>
/home/csk/Desktop/cluster/DUD-E-result/rxra

> <s_m_Source_File>
dock_pv.maegz

> <i_m_Source_File_Index>
457

> <chembl_id>
CHEMBL2337792

> <chembl_pref_name>
None

> <i_lp_mmshare_version>
53161

> <r_lp_tautomer_probability>
1

> <s_lp_Force_Field>
OPLS_2005

> <r_lp_Energy>
35.176126

> <b_lp_Chiralities_Consistent>
1

> <s_lp_Variant>
CHEMBL2061_lig41-1

> <s_i_glide_gridfile>
glide-grid_1mv9

> <i_i_glide_lignum>
57

> <i_i_glide_rotatable_bonds>
5

> <r_i_docking_score>
-8.25656791855271

> <r_i_glide_ligand_efficiency>
-0.34402366327303

> <r_i_glide_ligand_efficiency_sa>
-0.992335960010983

> <r_i_glide_ligand_efficiency_ln>
-1.976175572124

> <r_i_glide_gscore>
-8.25656791855271

> <r_i_glide_lipo>
-4.99434439795612

> <r_i_glide_hbond>
0

> <r_i_glide_metal>
0

> <r_i_glide_rewards>
-2.48581099607953

> <r_i_glide_evdw>
-26.7842311859131

> <r_i_glide_ecoul>
0.188285171985626

> <r_i_glide_erotb>
0.539800264376011

> <r_i_glide_esite>
-0.00524400539526377

> <r_i_glide_emodel>
-26.2015118633405

> <r_i_glide_energy>
-26.5959460139275

> <r_i_glide_einternal>
5.34033679962158

> <i_i_glide_confnum>
31

> <i_i_glide_posenum>
323

> <r_i_glide_eff_state_penalty>
0

> <s_user_duplicate_titles>
CHEMBL2061_lig41

> <i_f3d_flags>
0

> <s_m_subgroup_title>
dock_pv

> <s_m_subgroupid>
dock_pv

> <b_m_subgroup_collapsed>
1

$$$$
CHEMBL2061_lig3
                    3D
 Schrodinger Suite 2021-1.
 52 52  0  0  1  0            999 V2000
   64.9320   44.5622   34.8250 C   0  0  0  0  0  0
   65.1900   45.8663   35.5899 C   0  0  0  0  0  0
   64.0967   46.9045   35.2903 C   0  0  0  0  0  0
   63.8454   47.1424   33.7811 C   0  0  1  0  0  0
   63.7139   45.7931   32.9964 C   0  0  2  0  0  0
   64.8623   44.7561   33.2871 C   0  0  0  0  0  0
   64.4792   43.3702   32.7043 C   0  0  0  0  0  0
   66.2381   45.2383   32.7500 C   0  0  0  0  0  0
   63.5429   46.0464   31.4953 C   0  0  0  0  0  0
   62.3704   45.9273   30.8432 C   0  0  0  0  0  0
   62.1615   46.1057   29.4030 C   0  0  0  0  0  0
   60.9242   46.0545   28.8539 C   0  0  0  0  0  0
   63.3524   46.3324   28.4788 C   0  0  0  0  0  0
   59.6618   45.8394   29.5497 C   0  0  0  0  0  0
   58.4693   45.8599   28.9236 C   0  0  0  0  0  0
   57.1744   45.6552   29.5685 C   0  0  0  0  0  0
   56.0853   46.0763   28.8783 C   0  0  0  0  0  0
   57.0885   44.9819   30.9397 C   0  0  0  0  0  0
   54.7162   46.0777   29.3390 C   0  0  0  0  0  0
   54.0143   47.0977   28.7680 O   0  0  0  0  0  0
   54.2130   45.2936   30.1397 O   0  0  0  0  0  0
   62.6189   48.0723   33.6128 C   0  0  0  0  0  0
   64.0128   44.1073   35.1987 H   0  0  0  0  0  0
   65.7240   43.8493   35.0524 H   0  0  0  0  0  0
   66.1710   46.2519   35.3260 H   0  0  0  0  0  0
   65.2076   45.6762   36.6636 H   0  0  0  0  0  0
   64.2917   47.8463   35.8045 H   0  0  0  0  0  0
   63.1735   46.5299   35.7366 H   0  0  0  0  0  0
   64.7224   47.6606   33.3886 H   0  0  0  0  0  0
   62.8082   45.3417   33.3900 H   0  0  0  0  0  0
   65.2205   42.6123   32.9381 H   0  0  0  0  0  0
   63.5655   42.9787   33.1371 H   0  0  0  0  0  0
   64.3598   43.3940   31.6204 H   0  0  0  0  0  0
   67.0429   44.6090   33.1303 H   0  0  0  0  0  0
   66.2890   45.1879   31.6619 H   0  0  0  0  0  0
   66.4756   46.2615   33.0381 H   0  0  0  0  0  0
   64.4339   46.3325   30.9544 H   0  0  0  0  0  0
   61.5299   45.6769   31.4650 H   0  0  0  0  0  0
   60.8583   46.1862   27.7832 H   0  0  0  0  0  0
   63.8472   47.2714   28.7159 H   0  0  0  0  0  0
   64.0946   45.5509   28.6422 H   0  0  0  0  0  0
   63.0906   46.3179   27.4199 H   0  0  0  0  0  0
   59.6704   45.6615   30.6117 H   0  0  0  0  0  0
   58.4774   46.0548   27.8583 H   0  0  0  0  0  0
   56.2167   46.4767   27.8854 H   0  0  0  0  0  0
   57.9765   44.3964   31.1862 H   0  0  0  0  0  0
   56.8664   45.7042   31.7278 H   0  0  0  0  0  0
   56.2854   44.2447   30.9403 H   0  0  0  0  0  0
   54.5794   47.6390   28.2119 H   0  0  0  0  0  0
   61.7130   47.6185   34.0148 H   0  0  0  0  0  0
   62.7759   49.0177   34.1331 H   0  0  0  0  0  0
   62.4176   48.3151   32.5682 H   0  0  0  0  0  0
  1  2  1  0  0  0
  1  6  1  0  0  0
  1 23  1  0  0  0
  1 24  1  0  0  0
  2  3  1  0  0  0
  2 25  1  0  0  0
  2 26  1  0  0  0
  3  4  1  0  0  0
  3 27  1  0  0  0
  3 28  1  0  0  0
  4  5  1  0  0  0
  4 22  1  0  0  0
  4 29  1  0  0  0
  5  6  1  0  0  0
  5  9  1  0  0  0
  5 30  1  0  0  0
  6  7  1  0  0  0
  6  8  1  0  0  0
  7 31  1  0  0  0
  7 32  1  0  0  0
  7 33  1  0  0  0
  8 34  1  0  0  0
  8 35  1  0  0  0
  8 36  1  0  0  0
  9 10  2  0  0  0
  9 37  1  0  0  0
 10 11  1  0  0  0
 10 38  1  0  0  0
 11 12  2  0  0  0
 11 13  1  0  0  0
 12 14  1  0  0  0
 12 39  1  0  0  0
 13 40  1  0  0  0
 13 41  1  0  0  0
 13 42  1  0  0  0
 14 15  2  0  0  0
 14 43  1  0  0  0
 15 16  1  0  0  0
 15 44  1  0  0  0
 16 17  2  0  0  0
 16 18  1  0  0  0
 17 19  1  0  0  0
 17 45  1  0  0  0
 18 46  1  0  0  0
 18 47  1  0  0  0
 18 48  1  0  0  0
 19 20  1  0  0  0
 19 21  2  0  0  0
 20 49  1  0  0  0
 22 50  1  0  0  0
 22 51  1  0  0  0
 22 52  1  0  0  0
M  END
> <s_m_entry_id>
31245

> <s_m_entry_name>
dock_pv.458

> <s_m_Source_Path>
/home/csk/Desktop/cluster/DUD-E-result/rxra

> <s_m_Source_File>
dock_pv.maegz

> <i_m_Source_File_Index>
458

> <chembl_id>
CHEMBL451158

> <chembl_pref_name>
None

> <i_lp_mmshare_version>
53161

> <r_lp_tautomer_probability>
1

> <s_lp_Force_Field>
OPLS_2005

> <r_lp_Energy>
24.4808

> <b_lp_Chiralities_Consistent>
1

> <s_lp_Variant>
CHEMBL2061_lig3-1

> <s_i_glide_gridfile>
glide-grid_1mv9

> <i_i_glide_lignum>
3

> <i_i_glide_rotatable_bonds>
6

> <r_i_docking_score>
-8.24621456888417

> <r_i_glide_ligand_efficiency>
-0.37482793494928

> <r_i_glide_ligand_efficiency_sa>
-1.05028261487407

> <r_i_glide_ligand_efficiency_ln>
-2.01567562862001

> <r_i_glide_gscore>
-8.24621456888417

> <r_i_glide_lipo>
-4.83610789413518

> <r_i_glide_hbond>
-0.0781204681103965

> <r_i_glide_metal>
0

> <r_i_glide_rewards>
-1.94988834670123

> <r_i_glide_evdw>
-37.0562210083008

> <r_i_glide_ecoul>
-3.57120561599731

> <r_i_glide_erotb>
1.00639403287727

> <r_i_glide_esite>
0

> <r_i_glide_emodel>
-59.0539419396284

> <r_i_glide_energy>
-40.6274266242981

> <r_i_glide_einternal>
1.7787721157074

> <i_i_glide_confnum>
8

> <i_i_glide_posenum>
150

> <r_i_glide_eff_state_penalty>
0

> <s_user_duplicate_titles>
CHEMBL2061_lig3

> <i_f3d_flags>
0

> <s_m_subgroup_title>
dock_pv

> <s_m_subgroupid>
dock_pv

> <b_m_subgroup_collapsed>
1

$$$$
CHEMBL2061_lig504
                    3D
 Schrodinger Suite 2021-1.
 59 59  0  0  1  0            999 V2000
   62.7873   46.0808   32.1413 C   0  0  0  0  0  0
   62.9325   45.5490   30.8962 C   0  0  0  0  0  0
   62.5269   46.1449   29.6218 C   0  0  0  0  0  0
   61.2270   46.2850   29.2717 C   0  0  0  0  0  0
   63.5982   46.5549   28.6295 C   0  0  0  0  0  0
   60.0994   45.9227   30.1094 C   0  0  0  0  0  0
   58.8188   45.8877   29.7007 C   0  0  0  0  0  0
   57.6868   45.5498   30.5622 C   0  0  0  0  0  0
   56.4843   45.4224   29.9402 C   0  0  0  0  0  0
   57.9170   45.3948   32.0751 C   0  0  0  0  0  0
   55.1957   45.1171   30.5141 C   0  0  0  0  0  0
   54.9878   45.6770   31.7303 O   0  0  0  0  0  0
   54.3285   44.4772   29.9305 O   0  0  0  0  0  0
   62.2105   47.5044   32.2693 C   0  0  0  0  0  0
   62.5110   48.1296   33.6370 C   0  0  0  0  0  0
   62.0595   47.1651   34.7312 C   0  0  0  0  0  0
   63.2079   45.3604   33.3860 C   0  0  0  0  0  0
   62.8952   45.8901   34.6091 C   0  0  0  0  0  0
   64.0059   44.0341   33.3087 C   0  0  0  0  0  0
   65.4813   44.1979   33.6033 C   0  0  0  0  0  0
   63.2686   45.2784   35.9593 C   0  0  0  0  0  0
   64.3218   46.0893   36.7332 C   0  0  0  0  0  0
   66.0810   45.4318   32.9037 C   0  0  0  0  0  0
   66.4064   45.1941   31.4197 C   0  0  0  0  0  0
   67.2241   45.9317   33.7394 C   0  0  0  0  0  0
   63.3681   44.5776   30.7631 H   0  0  0  0  0  0
   61.0085   46.6991   28.2969 H   0  0  0  0  0  0
   64.5821   46.1526   28.8827 H   0  0  0  0  0  0
   63.3442   46.1754   27.6381 H   0  0  0  0  0  0
   63.6273   47.6409   28.5384 H   0  0  0  0  0  0
   60.3182   45.6770   31.1320 H   0  0  0  0  0  0
   58.6266   46.1266   28.6631 H   0  0  0  0  0  0
   56.4244   45.5239   28.8654 H   0  0  0  0  0  0
   58.6899   46.0779   32.4205 H   0  0  0  0  0  0
   57.0896   45.6744   32.7164 H   0  0  0  0  0  0
   58.2529   44.3863   32.3117 H   0  0  0  0  0  0
   55.7592   46.1792   32.0019 H   0  0  0  0  0  0
   62.6209   48.1492   31.4916 H   0  0  0  0  0  0
   61.1355   47.5040   32.1001 H   0  0  0  0  0  0
   63.5786   48.3310   33.7422 H   0  0  0  0  0  0
   62.0096   49.0911   33.7352 H   0  0  0  0  0  0
   62.1669   47.6342   35.7094 H   0  0  0  0  0  0
   60.9988   46.9386   34.6067 H   0  0  0  0  0  0
   63.5880   43.2942   33.9892 H   0  0  0  0  0  0
   63.9078   43.5308   32.3537 H   0  0  0  0  0  0
   65.5981   44.2698   34.6846 H   0  0  0  0  0  0
   66.0089   43.2842   33.3390 H   0  0  0  0  0  0
   62.3484   45.2192   36.5387 H   0  0  0  0  0  0
   63.6092   44.2490   35.8857 H   0  0  0  0  0  0
   64.4604   45.6781   37.7290 H   0  0  0  0  0  0
   65.2846   46.0746   36.2321 H   0  0  0  0  0  0
   64.0347   47.1330   36.8607 H   0  0  0  0  0  0
   65.4009   46.2801   32.9232 H   0  0  0  0  0  0
   67.2078   44.4780   31.2663 H   0  0  0  0  0  0
   65.5504   44.8094   30.8734 H   0  0  0  0  0  0
   66.6880   46.1245   30.9392 H   0  0  0  0  0  0
   68.0080   45.1807   33.7706 H   0  0  0  0  0  0
   67.6079   46.8751   33.3488 H   0  0  0  0  0  0
   66.9292   46.0771   34.7748 H   0  0  0  0  0  0
  1  2  2  0  0  0
  1 14  1  0  0  0
  1 17  1  0  0  0
  2  3  1  0  0  0
  2 26  1  0  0  0
  3  4  2  0  0  0
  3  5  1  0  0  0
  4  6  1  0  0  0
  4 27  1  0  0  0
  5 28  1  0  0  0
  5 29  1  0  0  0
  5 30  1  0  0  0
  6  7  2  0  0  0
  6 31  1  0  0  0
  7  8  1  0  0  0
  7 32  1  0  0  0
  8  9  2  0  0  0
  8 10  1  0  0  0
  9 11  1  0  0  0
  9 33  1  0  0  0
 10 34  1  0  0  0
 10 35  1  0  0  0
 10 36  1  0  0  0
 11 12  1  0  0  0
 11 13  2  0  0  0
 12 37  1  0  0  0
 14 15  1  0  0  0
 14 38  1  0  0  0
 14 39  1  0  0  0
 15 16  1  0  0  0
 15 40  1  0  0  0
 15 41  1  0  0  0
 16 18  1  0  0  0
 16 42  1  0  0  0
 16 43  1  0  0  0
 17 18  2  0  0  0
 17 19  1  0  0  0
 18 21  1  0  0  0
 19 20  1  0  0  0
 19 44  1  0  0  0
 19 45  1  0  0  0
 20 23  1  0  0  0
 20 46  1  0  0  0
 20 47  1  0  0  0
 21 22  1  0  0  0
 21 48  1  0  0  0
 21 49  1  0  0  0
 22 50  1  0  0  0
 22 51  1  0  0  0
 22 52  1  0  0  0
 23 24  1  0  0  0
 23 25  1  0  0  0
 23 53  1  0  0  0
 24 54  1  0  0  0
 24 55  1  0  0  0
 24 56  1  0  0  0
 25 57  1  0  0  0
 25 58  1  0  0  0
 25 59  1  0  0  0
M  END
> <s_m_entry_id>
31246

> <s_m_entry_name>
dock_pv.459

> <s_m_Source_Path>
/home/csk/Desktop/cluster/DUD-E-result/rxra

> <s_m_Source_File>
dock_pv.maegz

> <i_m_Source_File_Index>
459

> <chembl_id>
CHEMBL3622722

> <chembl_pref_name>
None

> <i_lp_mmshare_version>
53161

> <r_lp_tautomer_probability>
1

> <s_lp_Force_Field>
OPLS_2005

> <r_lp_Energy>
30.692478

> <b_lp_Chiralities_Consistent>
1

> <s_lp_Variant>
CHEMBL2061_lig504-1

> <s_i_glide_gridfile>
glide-grid_1mv9

> <i_i_glide_lignum>
597

> <i_i_glide_rotatable_bonds>
9

> <r_i_docking_score>
-8.24553657417298

> <r_i_glide_ligand_efficiency>
-0.329821462966919

> <r_i_glide_ligand_efficiency_sa>
-0.964403807123824

> <r_i_glide_ligand_efficiency_ln>
-1.95443926687048

> <r_i_glide_gscore>
-8.24553657417298

> <r_i_glide_lipo>
-4.898315054472

> <r_i_glide_hbond>
-0.088010714826967

> <r_i_glide_metal>
0

> <r_i_glide_rewards>
-1.97593862950411

> <r_i_glide_evdw>
-33.6154975891113

> <r_i_glide_ecoul>
-3.81573033332825

> <r_i_glide_erotb>
0.969862254084903

> <r_i_glide_esite>
0

> <r_i_glide_emodel>
-47.7264807086773

> <r_i_glide_energy>
-37.4312279224396

> <r_i_glide_einternal>
10.6335363388062

> <i_i_glide_confnum>
63

> <i_i_glide_posenum>
160

> <r_i_glide_eff_state_penalty>
0

> <s_user_duplicate_titles>
CHEMBL2061_lig504

> <i_f3d_flags>
0

> <s_m_subgroup_title>
dock_pv

> <s_m_subgroupid>
dock_pv

> <b_m_subgroup_collapsed>
1

$$$$
CHEMBL2061_lig54
                    3D
 Schrodinger Suite 2021-1.
 52 53  0  0  1  0            999 V2000
   62.3706   46.2297   31.5918 C   0  0  0  0  0  0
   62.6689   46.5456   32.8914 C   0  0  0  0  0  0
   63.2915   45.3734   30.7701 C   0  0  0  0  0  0
   64.6464   45.2364   31.3550 C   0  0  0  0  0  0
   63.9319   46.1440   33.5746 C   0  0  0  0  0  0
   64.9393   45.5791   32.6416 C   0  0  0  0  0  0
   61.0815   46.7425   30.8539 C   0  0  1  0  0  0
   62.9665   44.8258   29.7134 O   0  0  0  0  0  0
   64.1390   46.3098   34.7797 O   0  0  0  0  0  0
   54.5088   46.9223   28.8501 C   0  0  0  0  0  0
   61.3429   47.2103   29.4199 C   0  0  0  0  0  0
   53.6084   46.4297   29.5095 O   0  0  0  0  0  0
   61.7188   47.3101   33.8195 C   0  0  0  0  0  0
   65.6864   44.7346   30.3463 C   0  0  0  0  0  0
   66.3131   45.3455   33.2791 C   0  0  0  0  0  0
   54.3902   48.0772   28.1442 O   0  0  0  0  0  0
   59.8963   45.7719   31.0167 C   0  0  0  0  0  0
   55.9084   46.3306   28.7336 C   0  0  0  0  0  0
   62.4071   48.0767   29.2506 C   0  0  0  0  0  0
   60.6265   46.7735   28.2975 C   0  0  0  0  0  0
   58.4715   46.0769   30.5166 C   0  0  0  0  0  0
   56.1989   45.1696   29.7187 C   0  0  0  0  0  0
   57.7000   44.8800   29.9149 C   0  0  0  0  0  0
   60.9701   47.2414   27.0397 C   0  0  0  0  0  0
   62.8173   48.4770   27.9899 C   0  0  0  0  0  0
   62.0894   48.0559   26.9001 C   0  0  0  0  0  0
   60.8081   47.6671   31.3519 H   0  0  0  0  0  0
   61.6968   46.8906   34.8264 H   0  0  0  0  0  0
   62.0205   48.3549   33.8961 H   0  0  0  0  0  0
   60.6888   47.2770   33.4814 H   0  0  0  0  0  0
   65.6050   45.2725   29.3984 H   0  0  0  0  0  0
   66.7131   44.8765   30.6785 H   0  0  0  0  0  0
   65.5390   43.6724   30.1428 H   0  0  0  0  0  0
   66.2593   45.0933   34.3396 H   0  0  0  0  0  0
   66.8204   44.4995   32.8205 H   0  0  0  0  0  0
   66.9393   46.2325   33.1733 H   0  0  0  0  0  0
   53.5267   48.4780   28.2229 H   0  0  0  0  0  0
   59.8037   45.6774   32.0995 H   0  0  0  0  0  0
   60.2177   44.8627   30.5374 H   0  0  0  0  0  0
   56.0787   46.0149   27.7049 H   0  0  0  0  0  0
   56.5774   47.1610   28.9385 H   0  0  0  0  0  0
   62.9239   48.4387   30.1239 H   0  0  0  0  0  0
   59.8269   46.0574   28.3610 H   0  0  0  0  0  0
   58.4886   46.8963   29.8095 H   0  0  0  0  0  0
   57.9008   46.4321   31.3691 H   0  0  0  0  0  0
   55.7689   45.3821   30.6989 H   0  0  0  0  0  0
   55.7001   44.2672   29.3607 H   0  0  0  0  0  0
   57.8095   44.0206   30.5724 H   0  0  0  0  0  0
   58.1293   44.5704   28.9631 H   0  0  0  0  0  0
   60.4102   46.9216   26.1741 H   0  0  0  0  0  0
   63.6660   49.1272   27.8547 H   0  0  0  0  0  0
   62.4097   48.3591   25.9178 H   0  0  0  0  0  0
  1  2  2  0  0  0
  1  3  1  0  0  0
  1  7  1  0  0  0
  2  5  1  0  0  0
  2 13  1  0  0  0
  3  4  1  0  0  0
  3  8  2  0  0  0
  4  6  2  0  0  0
  4 14  1  0  0  0
  5  9  2  0  0  0
  5  6  1  0  0  0
  6 15  1  0  0  0
  7 11  1  0  0  0
  7 17  1  0  0  0
  7 27  1  0  0  0
 10 18  1  0  0  0
 10 12  2  0  0  0
 10 16  1  0  0  0
 11 19  1  0  0  0
 11 20  2  0  0  0
 13 28  1  0  0  0
 13 29  1  0  0  0
 13 30  1  0  0  0
 14 31  1  0  0  0
 14 32  1  0  0  0
 14 33  1  0  0  0
 15 34  1  0  0  0
 15 35  1  0  0  0
 15 36  1  0  0  0
 16 37  1  0  0  0
 17 21  1  0  0  0
 17 38  1  0  0  0
 17 39  1  0  0  0
 18 22  1  0  0  0
 18 40  1  0  0  0
 18 41  1  0  0  0
 19 25  2  0  0  0
 19 42  1  0  0  0
 20 24  1  0  0  0
 20 43  1  0  0  0
 21 23  1  0  0  0
 21 44  1  0  0  0
 21 45  1  0  0  0
 22 23  1  0  0  0
 22 46  1  0  0  0
 22 47  1  0  0  0
 23 48  1  0  0  0
 23 49  1  0  0  0
 24 26  2  0  0  0
 24 50  1  0  0  0
 25 26  1  0  0  0
 25 51  1  0  0  0
 26 52  1  0  0  0
M  END
> <s_m_entry_id>
31247

> <s_m_entry_name>
dock_pv.460

> <s_m_Source_Path>
/home/csk/Desktop/cluster/DUD-E-result/rxra

> <s_m_Source_File>
dock_pv.maegz

> <i_m_Source_File_Index>
460

> <chembl_id>
CHEMBL70972

> <chembl_pref_name>
SERATRODAST

> <i_lp_mmshare_version>
53161

> <r_lp_tautomer_probability>
1

> <s_lp_Force_Field>
OPLS_2005

> <r_lp_Energy>
14.494648

> <b_lp_Chiralities_Consistent>
1

> <s_lp_Variant>
CHEMBL2061_lig54-2

> <s_i_glide_gridfile>
glide-grid_1mv9

> <i_i_glide_lignum>
76

> <i_i_glide_rotatable_bonds>
9

> <r_i_docking_score>
-8.23140828444619

> <r_i_glide_ligand_efficiency>
-0.316592626324853

> <r_i_glide_ligand_efficiency_sa>
-0.937904409755547

> <r_i_glide_ligand_efficiency_ln>
-1.93311922614862

> <r_i_glide_gscore>
-8.23140828444619

> <r_i_glide_lipo>
-4.80648067206252

> <r_i_glide_hbond>
-0.279953849960424

> <r_i_glide_metal>
0

> <r_i_glide_rewards>
-2.4483868886591

> <r_i_glide_evdw>
-31.1913719177246

> <r_i_glide_ecoul>
-2.35913991928101

> <r_i_glide_erotb>
1.21685271001424

> <r_i_glide_esite>
0

> <r_i_glide_emodel>
-38.359251361316

> <r_i_glide_energy>
-33.5505118370056

> <r_i_glide_einternal>
9.62484455108643

> <i_i_glide_confnum>
32

> <i_i_glide_posenum>
4

> <r_i_glide_eff_state_penalty>
0

> <s_user_duplicate_titles>
CHEMBL2061_lig54

> <i_f3d_flags>
0

> <s_m_subgroup_title>
dock_pv

> <s_m_subgroupid>
dock_pv

> <b_m_subgroup_collapsed>
1

$$$$
CHEMBL2061_lig533 
                    3D
 Schrodinger Suite 2021-1.
 42 44  0  0  1  0            999 V2000
   63.4623   46.6888   32.0258 C   0  0  0  0  0  0
   63.9722   45.6944   31.1764 C   0  0  0  0  0  0
   64.7203   44.6546   31.7352 C   0  0  0  0  0  0
   64.9608   44.5963   33.1104 C   0  0  0  0  0  0
   63.6785   46.6226   33.4010 C   0  0  0  0  0  0
   64.4244   45.5757   33.9461 C   0  0  0  0  0  0
   64.5948   45.7651   35.4369 C   0  0  0  0  0  0
   63.6116   46.8889   35.7742 C   0  0  0  0  0  0
   63.3015   47.6209   34.4696 C   0  0  0  0  0  0
   63.7695   45.6491   29.8098 O   0  0  0  0  0  0
   63.0339   46.6771   29.1352 C   0  0  0  0  0  0
   61.5291   46.4456   29.1279 C   0  0  0  0  0  0
   60.7709   47.0160   28.1085 C   0  0  0  0  0  0
   59.3918   46.8566   28.1094 C   0  0  0  0  0  0
   58.7441   46.1479   29.1147 C   0  0  0  0  0  0
   59.5039   45.5888   30.1390 C   0  0  0  0  0  0
   60.8871   45.7260   30.1369 C   0  0  0  0  0  0
   57.2229   46.0224   29.0510 C   0  0  0  0  0  0
   56.5495   45.3206   30.2553 C   0  0  0  0  0  0
   55.0211   45.2591   30.2325 C   0  0  0  0  0  0
   54.4384   46.1831   29.4155 O   0  0  0  0  0  0
   54.3977   44.4765   30.9385 O   0  0  0  0  0  0
   62.8927   47.5156   31.6356 H   0  0  0  0  0  0
   65.1179   43.8872   31.0867 H   0  0  0  0  0  0
   65.5585   43.7910   33.5147 H   0  0  0  0  0  0
   64.3697   44.8689   36.0174 H   0  0  0  0  0  0
   65.6139   46.0741   35.6720 H   0  0  0  0  0  0
   62.6846   46.4421   36.1350 H   0  0  0  0  0  0
   63.9795   47.5534   36.5581 H   0  0  0  0  0  0
   63.9173   48.5185   34.3912 H   0  0  0  0  0  0
   62.2558   47.9293   34.4210 H   0  0  0  0  0  0
   63.3967   46.6859   28.1058 H   0  0  0  0  0  0
   63.2078   47.6763   29.5242 H   0  0  0  0  0  0
   61.2436   47.5801   27.3176 H   0  0  0  0  0  0
   58.8082   47.2767   27.3186 H   0  0  0  0  0  0
   59.0331   45.0404   30.9370 H   0  0  0  0  0  0
   61.4463   45.2774   30.9383 H   0  0  0  0  0  0
   56.9691   45.4858   28.1386 H   0  0  0  0  0  0
   56.8371   47.0341   28.9396 H   0  0  0  0  0  0
   56.8324   45.8239   31.1802 H   0  0  0  0  0  0
   56.9192   44.2966   30.3356 H   0  0  0  0  0  0
   55.0986   46.6812   28.9309 H   0  0  0  0  0  0
  1  5  1  0  0  0
  1  2  2  0  0  0
  1 23  1  0  0  0
  2  3  1  0  0  0
  2 10  1  0  0  0
  3  4  2  0  0  0
  3 24  1  0  0  0
  4  6  1  0  0  0
  4 25  1  0  0  0
  5  6  2  0  0  0
  5  9  1  0  0  0
  6  7  1  0  0  0
  7  8  1  0  0  0
  7 26  1  0  0  0
  7 27  1  0  0  0
  8  9  1  0  0  0
  8 28  1  0  0  0
  8 29  1  0  0  0
  9 30  1  0  0  0
  9 31  1  0  0  0
 10 11  1  0  0  0
 11 12  1  0  0  0
 11 32  1  0  0  0
 11 33  1  0  0  0
 12 13  2  0  0  0
 12 17  1  0  0  0
 13 14  1  0  0  0
 13 34  1  0  0  0
 14 15  2  0  0  0
 14 35  1  0  0  0
 15 16  1  0  0  0
 15 18  1  0  0  0
 16 17  2  0  0  0
 16 36  1  0  0  0
 17 37  1  0  0  0
 18 19  1  0  0  0
 18 38  1  0  0  0
 18 39  1  0  0  0
 19 20  1  0  0  0
 19 40  1  0  0  0
 19 41  1  0  0  0
 20 21  1  0  0  0
 20 22  2  0  0  0
 21 42  1  0  0  0
M  END
> <s_m_entry_id>
31248

> <s_m_entry_name>
dock_pv.461

> <s_m_Source_Path>
/home/csk/Desktop/cluster/DUD-E-result/rxra

> <s_m_Source_File>
dock_pv.maegz

> <i_m_Source_File_Index>
461

> <chembl_id>
CHEMBL4513928

> <chembl_pref_name>
None

> <i_lp_mmshare_version>
53161

> <r_lp_tautomer_probability>
1

> <s_lp_Force_Field>
OPLS_2005

> <r_lp_Energy>
29.444676

> <b_lp_Chiralities_Consistent>
1

> <s_lp_Variant>
CHEMBL2061_lig533 -1

> <s_i_glide_gridfile>
glide-grid_1mv9

> <i_i_glide_lignum>
633

> <i_i_glide_rotatable_bonds>
7

> <r_i_docking_score>
-8.22859365897328

> <r_i_glide_ligand_efficiency>
-0.374026984498786

> <r_i_glide_ligand_efficiency_sa>
-1.04803832021219

> <r_i_glide_ligand_efficiency_ln>
-2.01136843549948

> <r_i_glide_gscore>
-8.22859365897328

> <r_i_glide_lipo>
-5.039313833891

> <r_i_glide_hbond>
-0.32

> <r_i_glide_metal>
0

> <r_i_glide_rewards>
-2.86947900702918

> <r_i_glide_evdw>
-38.6446838378906

> <r_i_glide_ecoul>
-3.80286717414856

> <r_i_glide_erotb>
2.50286344996371

> <r_i_glide_esite>
0

> <r_i_glide_emodel>
-60.3355732559418

> <r_i_glide_energy>
-42.4475510120392

> <r_i_glide_einternal>
6.40281438827515

> <i_i_glide_confnum>
52

> <i_i_glide_posenum>
179

> <r_i_glide_eff_state_penalty>
0

> <s_user_duplicate_titles>
CHEMBL2061_lig533 

> <i_f3d_flags>
0

> <s_m_subgroup_title>
dock_pv

> <s_m_subgroupid>
dock_pv

> <b_m_subgroup_collapsed>
1

$$$$
CHEMBL2061_lig485
                    3D
 Schrodinger Suite 2021-1.
 47 50  0  0  1  0            999 V2000
   56.7507   45.1688   30.2556 C   0  0  0  0  0  0
   56.8920   45.6417   28.9588 C   0  0  0  0  0  0
   58.1381   46.0771   28.5005 C   0  0  0  0  0  0
   57.8310   45.2283   31.1235 C   0  0  0  0  0  0
   59.0529   45.7677   30.7001 C   0  0  0  0  0  0
   59.2317   46.1436   29.3659 C   0  0  0  0  0  0
   60.5669   46.6858   28.8581 C   0  0  0  0  0  0
   61.5510   46.7918   29.8267 N   0  0  0  0  0  0
   60.1476   46.0770   31.6327 C   0  0  0  0  0  0
   61.3231   46.5322   31.1694 C   0  0  0  0  0  0
   60.1598   46.0770   33.0730 C   0  0  0  0  0  0
   61.5019   46.4768   33.4739 C   0  0  0  0  0  0
   62.2575   46.6576   32.3242 C   0  0  0  0  0  0
   63.6314   46.8771   32.4748 C   0  0  0  0  0  0
   64.2099   46.9405   33.7463 C   0  0  0  0  0  0
   63.4181   46.8071   34.8864 C   0  0  0  0  0  0
   62.0515   46.5697   34.7542 C   0  0  0  0  0  0
   60.7424   47.0095   27.6775 O   0  0  0  0  0  0
   59.2081   45.7166   33.7390 O   0  0  0  0  0  0
   62.8084   47.4324   29.4221 C   0  0  0  0  0  0
   63.9416   46.4824   28.9527 C   0  0  0  0  0  0
   63.5658   45.0309   28.6046 C   0  0  0  0  0  0
   63.1977   44.1391   29.7010 N   0  0  0  0  0  0
   62.7755   42.8772   29.0907 C   0  0  0  0  0  0
   64.3007   43.8724   30.6254 C   0  0  0  0  0  0
   55.7737   45.6774   28.1391 N   0  0  0  0  0  0
   55.8014   44.7980   30.6114 H   0  0  0  0  0  0
   58.2602   46.4086   27.4824 H   0  0  0  0  0  0
   57.6772   44.9016   32.1378 H   0  0  0  0  0  0
   64.2884   47.0066   31.6357 H   0  0  0  0  0  0
   65.2717   47.1141   33.8457 H   0  0  0  0  0  0
   63.8670   46.8663   35.8675 H   0  0  0  0  0  0
   61.4470   46.4194   35.6380 H   0  0  0  0  0  0
   62.6268   48.1560   28.6244 H   0  0  0  0  0  0
   63.1488   48.0777   30.2291 H   0  0  0  0  0  0
   64.3647   46.9288   28.0523 H   0  0  0  0  0  0
   64.7815   46.4760   29.6445 H   0  0  0  0  0  0
   62.7651   45.0521   27.8623 H   0  0  0  0  0  0
   64.4082   44.5684   28.1389 H   0  0  0  0  0  0
   62.5624   42.0985   29.8226 H   0  0  0  0  0  0
   61.8636   43.0233   28.5105 H   0  0  0  0  0  0
   63.5373   42.4771   28.4184 H   0  0  0  0  0  0
   63.9731   43.2113   31.4290 H   0  0  0  0  0  0
   65.1527   43.3972   30.1383 H   0  0  0  0  0  0
   64.6577   44.7851   31.0970 H   0  0  0  0  0  0
   55.0240   45.0443   28.3726 H   0  0  0  0  0  0
   55.9254   45.9124   27.1690 H   0  0  0  0  0  0
  1  2  2  0  0  0
  1  4  1  0  0  0
  1 27  1  0  0  0
  2  3  1  0  0  0
  2 26  1  0  0  0
  3  6  2  0  0  0
  3 28  1  0  0  0
  4  5  2  0  0  0
  4 29  1  0  0  0
  5  6  1  0  0  0
  5  9  1  0  0  0
  6  7  1  0  0  0
  7  8  1  0  0  0
  7 18  2  0  0  0
  8 10  1  0  0  0
  8 20  1  0  0  0
  9 10  2  0  0  0
  9 11  1  0  0  0
 10 13  1  0  0  0
 11 12  1  0  0  0
 11 19  2  0  0  0
 12 13  2  0  0  0
 12 17  1  0  0  0
 13 14  1  0  0  0
 14 15  2  0  0  0
 14 30  1  0  0  0
 15 16  1  0  0  0
 15 31  1  0  0  0
 16 17  2  0  0  0
 16 32  1  0  0  0
 17 33  1  0  0  0
 20 21  1  0  0  0
 20 34  1  0  0  0
 20 35  1  0  0  0
 21 22  1  0  0  0
 21 36  1  0  0  0
 21 37  1  0  0  0
 22 23  1  0  0  0
 22 38  1  0  0  0
 22 39  1  0  0  0
 23 24  1  0  0  0
 23 25  1  0  0  0
 24 40  1  0  0  0
 24 41  1  0  0  0
 24 42  1  0  0  0
 25 43  1  0  0  0
 25 44  1  0  0  0
 25 45  1  0  0  0
 26 46  1  0  0  0
 26 47  1  0  0  0
M  END
> <s_m_entry_id>
31251

> <s_m_entry_name>
dock_pv.464

> <s_m_Source_Path>
/home/csk/Desktop/cluster/DUD-E-result/rxra

> <s_m_Source_File>
dock_pv.maegz

> <i_m_Source_File_Index>
464

> <chembl_id>
CHEMBL2326683

> <chembl_pref_name>
None

> <i_lp_mmshare_version>
53161

> <r_lp_tautomer_probability>
1

> <s_lp_Force_Field>
OPLS_2005

> <r_lp_Energy>
50.633203

> <b_lp_Chiralities_Consistent>
1

> <s_lp_Variant>
CHEMBL2061_lig485-1

> <s_i_glide_gridfile>
glide-grid_1mv9

> <i_i_glide_lignum>
574

> <i_i_glide_rotatable_bonds>
4

> <r_i_docking_score>
-8.21025657149373

> <r_i_glide_ligand_efficiency>
-0.315779098903605

> <r_i_glide_ligand_efficiency_sa>
-0.935494337971175

> <r_i_glide_ligand_efficiency_ln>
-1.92815181576616

> <r_i_glide_gscore>
-8.21025657149373

> <r_i_glide_lipo>
-5.07976601113473

> <r_i_glide_hbond>
0

> <r_i_glide_metal>
0

> <r_i_glide_rewards>
-2.32645363983245

> <r_i_glide_evdw>
-26.7052192687988

> <r_i_glide_ecoul>
0.389050036668777

> <r_i_glide_erotb>
0.472866537413079

> <r_i_glide_esite>
0

> <r_i_glide_emodel>
-32.3744234108707

> <r_i_glide_energy>
-26.3161692321301

> <r_i_glide_einternal>
4.02420949935913

> <i_i_glide_confnum>
8

> <i_i_glide_posenum>
66

> <r_i_glide_eff_state_penalty>
0

> <s_user_duplicate_titles>
CHEMBL2061_lig485

> <i_f3d_flags>
0

> <s_m_subgroup_title>
dock_pv

> <s_m_subgroupid>
dock_pv

> <b_m_subgroup_collapsed>
1

$$$$
CHEMBL2061_lig499
                    3D
 Schrodinger Suite 2021-1.
 60 61  0  0  1  0            999 V2000
   53.2080   46.4770   28.9390 O   0  0  0  0  0  0
   54.5455   48.0770   28.1390 O   0  0  0  0  0  0
   64.7941   45.3200   33.6604 C   0  0  0  0  0  0
   63.5078   46.2033   33.7061 C   0  0  0  0  0  0
   63.1911   46.9975   34.7767 C   0  0  0  0  0  0
   62.6118   46.1015   32.5634 C   0  0  0  0  0  0
   65.7166   45.5954   34.8805 C   0  0  0  0  0  0
   60.3709   46.1184   31.4644 C   0  0  0  0  0  0
   60.8821   46.6261   30.1521 C   0  0  0  0  0  0
   61.2650   46.0770   32.6173 C   0  0  0  0  0  0
   64.1142   47.1555   35.9614 C   0  0  0  0  0  0
   64.9424   45.8973   36.1683 C   0  0  0  0  0  0
   64.3687   43.8303   33.6973 C   0  0  0  0  0  0
   65.6183   45.6634   32.3905 C   0  0  0  0  0  0
   60.5099   46.0770   28.9240 C   0  0  0  0  0  0
   61.8048   47.6772   30.1439 C   0  0  0  0  0  0
   59.1128   45.6770   31.7009 C   0  0  0  0  0  0
   62.0510   48.0111   34.8051 C   0  0  0  0  0  0
   62.0788   47.4776   27.7707 C   0  0  0  0  0  0
   61.0969   46.4935   27.7351 C   0  0  0  0  0  0
   62.4081   48.0770   28.9664 C   0  0  0  0  0  0
   57.9863   45.6718   30.8012 C   0  0  0  0  0  0
   56.7453   45.4550   31.2572 C   0  0  0  0  0  0
   55.5405   45.5247   30.4631 C   0  0  0  0  0  0
   62.8073   47.9281   26.5337 C   0  0  0  0  0  0
   55.4854   46.4873   29.5138 C   0  0  0  0  0  0
   54.3227   46.9373   28.8212 C   0  0  0  0  0  0
   54.4348   44.5217   30.7526 C   0  0  0  0  0  0
   53.7375   48.4018   27.7392 H   0  0  0  0  0  0
   63.0781   46.0419   31.5937 H   0  0  0  0  0  0
   66.4063   44.7617   35.0139 H   0  0  0  0  0  0
   66.3573   46.4539   34.6720 H   0  0  0  0  0  0
   60.8093   46.0575   33.5966 H   0  0  0  0  0  0
   64.7448   48.0161   35.7391 H   0  0  0  0  0  0
   63.5779   47.4162   36.8721 H   0  0  0  0  0  0
   65.6080   46.0770   37.0048 H   0  0  0  0  0  0
   64.3064   45.0562   36.4479 H   0  0  0  0  0  0
   65.2361   43.1701   33.7392 H   0  0  0  0  0  0
   63.7430   43.6019   34.5605 H   0  0  0  0  0  0
   63.8192   43.5454   32.8001 H   0  0  0  0  0  0
   66.5941   45.1767   32.4122 H   0  0  0  0  0  0
   65.1362   45.3197   31.4756 H   0  0  0  0  0  0
   65.7903   46.7370   32.2951 H   0  0  0  0  0  0
   59.8038   45.2770   28.8853 H   0  0  0  0  0  0
   62.0907   48.1791   31.0568 H   0  0  0  0  0  0
   58.8954   45.3148   32.6986 H   0  0  0  0  0  0
   62.3311   48.8769   35.4025 H   0  0  0  0  0  0
   61.8114   48.3846   33.8113 H   0  0  0  0  0  0
   61.1598   47.5791   35.2606 H   0  0  0  0  0  0
   60.8079   46.0285   26.8062 H   0  0  0  0  0  0
   63.1598   48.8496   28.9610 H   0  0  0  0  0  0
   58.1051   45.8787   29.7540 H   0  0  0  0  0  0
   56.6215   45.2770   32.3112 H   0  0  0  0  0  0
   63.3260   48.8768   26.6747 H   0  0  0  0  0  0
   63.5285   47.1759   26.2146 H   0  0  0  0  0  0
   62.0850   48.0770   25.7390 H   0  0  0  0  0  0
   56.3566   47.0668   29.2650 H   0  0  0  0  0  0
   54.8081   43.6770   31.3325 H   0  0  0  0  0  0
   53.6081   44.9932   31.2710 H   0  0  0  0  0  0
   54.0486   44.1157   29.8164 H   0  0  0  0  0  0
  1 27  2  0  0  0
  2 27  1  0  0  0
  2 29  1  0  0  0
  3  4  1  0  0  0
  3  7  1  0  0  0
  3 13  1  0  0  0
  3 14  1  0  0  0
  4  5  2  0  0  0
  4  6  1  0  0  0
  5 11  1  0  0  0
  5 18  1  0  0  0
  6 10  2  0  0  0
  6 30  1  0  0  0
  7 12  1  0  0  0
  7 31  1  0  0  0
  7 32  1  0  0  0
  8  9  1  0  0  0
  8 10  1  0  0  0
  8 17  2  0  0  0
  9 15  2  0  0  0
  9 16  1  0  0  0
 10 33  1  0  0  0
 11 12  1  0  0  0
 11 34  1  0  0  0
 11 35  1  0  0  0
 12 36  1  0  0  0
 12 37  1  0  0  0
 13 38  1  0  0  0
 13 39  1  0  0  0
 13 40  1  0  0  0
 14 41  1  0  0  0
 14 42  1  0  0  0
 14 43  1  0  0  0
 15 20  1  0  0  0
 15 44  1  0  0  0
 16 21  2  0  0  0
 16 45  1  0  0  0
 17 22  1  0  0  0
 17 46  1  0  0  0
 18 47  1  0  0  0
 18 48  1  0  0  0
 18 49  1  0  0  0
 19 20  2  0  0  0
 19 21  1  0  0  0
 19 25  1  0  0  0
 20 50  1  0  0  0
 21 51  1  0  0  0
 22 23  2  0  0  0
 22 52  1  0  0  0
 23 24  1  0  0  0
 23 53  1  0  0  0
 24 26  2  0  0  0
 24 28  1  0  0  0
 25 54  1  0  0  0
 25 55  1  0  0  0
 25 56  1  0  0  0
 26 27  1  0  0  0
 26 57  1  0  0  0
 28 58  1  0  0  0
 28 59  1  0  0  0
 28 60  1  0  0  0
M  END
> <s_m_entry_id>
31252

> <s_m_entry_name>
dock_pv.465

> <s_m_Source_Path>
/home/csk/Desktop/cluster/DUD-E-result/rxra

> <s_m_Source_File>
dock_pv.maegz

> <i_m_Source_File_Index>
465

> <chembl_id>
CHEMBL1476397

> <chembl_pref_name>
None

> <i_lp_mmshare_version>
53161

> <r_lp_tautomer_probability>
1

> <s_lp_Force_Field>
OPLS_2005

> <r_lp_Energy>
41.947914

> <b_lp_Chiralities_Consistent>
1

> <s_lp_Variant>
CHEMBL2061_lig499-1

> <s_i_glide_gridfile>
glide-grid_1mv9

> <i_i_glide_lignum>
590

> <i_i_glide_rotatable_bonds>
7

> <r_i_docking_score>
-8.20874827220455

> <r_i_glide_ligand_efficiency>
-0.293169581150163

> <r_i_glide_ligand_efficiency_sa>
-0.890235516021175

> <r_i_glide_ligand_efficiency_ln>
-1.89482012054703

> <r_i_glide_gscore>
-8.20874827220455

> <r_i_glide_lipo>
-5.66743668801375

> <r_i_glide_hbond>
-0.16

> <r_i_glide_metal>
0

> <r_i_glide_rewards>
-1.79853104193934

> <r_i_glide_evdw>
-23.8329086303711

> <r_i_glide_ecoul>
-1.40267837047577

> <r_i_glide_erotb>
0.819266644838459

> <r_i_glide_esite>
0

> <r_i_glide_emodel>
-30.2109004950436

> <r_i_glide_energy>
-25.2355870008469

> <r_i_glide_einternal>
6.54375267028809

> <i_i_glide_confnum>
33

> <i_i_glide_posenum>
163

> <r_i_glide_eff_state_penalty>
0

> <s_user_duplicate_titles>
CHEMBL2061_lig499

> <i_f3d_flags>
0

> <s_m_subgroup_title>
dock_pv

> <s_m_subgroupid>
dock_pv

> <b_m_subgroup_collapsed>
1

$$$$
CHEMBL2061_lig237
                    3D
 Schrodinger Suite 2021-1.
 53 55  0  0  1  0            999 V2000
   60.7048   46.6966   28.0119 C   0  0  0  0  0  0
   61.5157   46.1911   29.0300 C   0  0  0  0  0  0
   60.9430   45.7065   30.1835 C   0  0  0  0  0  0
   59.3168   46.5326   28.1152 C   0  0  0  0  0  0
   58.7356   46.0996   29.2993 C   0  0  0  0  0  0
   59.5665   45.8112   30.3518 C   0  0  0  0  0  0
   58.7420   45.8412   31.5310 C   0  0  0  0  0  0
   57.3571   45.7555   31.0807 C   0  0  0  0  0  0
   57.3363   45.9682   29.7378 C   0  0  0  0  0  0
   56.1473   45.8127   32.0067 C   0  0  0  0  0  0
   56.1753   46.1843   28.7487 C   0  0  0  0  0  0
   54.8078   45.7188   29.2257 C   0  0  0  0  0  0
   54.7879   44.3901   29.5097 O   0  0  0  0  0  0
   53.8452   46.4790   29.3390 O   0  0  0  0  0  0
   59.1764   46.0764   32.7826 C   0  0  0  0  0  0
   60.5154   46.4356   33.3011 C   0  0  0  0  0  0
   61.5179   47.2302   32.7087 C   0  0  0  0  0  0
   62.7687   47.3158   33.3256 C   0  0  0  0  0  0
   62.9696   46.7188   34.5720 C   0  0  0  0  0  0
   61.9259   46.0770   35.2038 C   0  0  0  0  0  0
   60.7377   45.9016   34.5436 C   0  0  0  0  0  0
   64.2847   46.7121   35.3173 C   0  0  0  0  0  0
   64.1701   47.6768   36.5074 C   0  0  0  0  0  0
   65.5264   46.8821   34.4249 C   0  0  0  0  0  0
   61.1882   47.4029   26.9389 O   0  0  0  0  0  0
   62.5240   47.9155   26.9345 C   0  0  0  0  0  0
   63.6205   46.8730   26.7628 C   0  0  0  0  0  0
   62.5843   46.2375   29.0169 H   0  0  0  0  0  0
   61.5950   45.3832   30.9803 H   0  0  0  0  0  0
   58.6729   46.8706   27.3405 H   0  0  0  0  0  0
   55.5873   44.9059   32.0842 H   0  0  0  0  0  0
   56.3692   46.2447   32.9836 H   0  0  0  0  0  0
   55.4206   46.4742   31.5911 H   0  0  0  0  0  0
   56.0217   47.2422   28.5394 H   0  0  0  0  0  0
   56.4002   45.6832   27.8062 H   0  0  0  0  0  0
   55.6149   43.9659   29.2652 H   0  0  0  0  0  0
   58.4144   46.0829   33.5454 H   0  0  0  0  0  0
   61.3553   47.7180   31.7592 H   0  0  0  0  0  0
   63.5834   47.8214   32.8406 H   0  0  0  0  0  0
   62.0715   45.5929   36.1549 H   0  0  0  0  0  0
   60.0108   45.2311   34.9557 H   0  0  0  0  0  0
   64.3869   45.7044   35.7294 H   0  0  0  0  0  0
   63.1636   47.7075   36.9177 H   0  0  0  0  0  0
   64.8063   47.3615   37.3352 H   0  0  0  0  0  0
   64.4051   48.6963   36.2044 H   0  0  0  0  0  0
   65.4301   46.3191   33.4960 H   0  0  0  0  0  0
   65.7004   47.9282   34.1652 H   0  0  0  0  0  0
   66.4060   46.4779   34.9271 H   0  0  0  0  0  0
   62.7161   48.6045   27.7593 H   0  0  0  0  0  0
   62.6122   48.4759   26.0150 H   0  0  0  0  0  0
   64.4498   47.2761   26.1799 H   0  0  0  0  0  0
   63.2104   46.0192   26.2157 H   0  0  0  0  0  0
   64.0616   46.5300   27.6955 H   0  0  0  0  0  0
  1  2  2  0  0  0
  1  4  1  0  0  0
  1 25  1  0  0  0
  2  3  1  0  0  0
  2 28  1  0  0  0
  3  6  2  0  0  0
  3 29  1  0  0  0
  4  5  2  0  0  0
  4 30  1  0  0  0
  5  6  1  0  0  0
  5  9  1  0  0  0
  6  7  1  0  0  0
  7  8  1  0  0  0
  7 15  2  0  0  0
  8  9  2  0  0  0
  8 10  1  0  0  0
  9 11  1  0  0  0
 10 31  1  0  0  0
 10 32  1  0  0  0
 10 33  1  0  0  0
 11 12  1  0  0  0
 11 34  1  0  0  0
 11 35  1  0  0  0
 12 13  1  0  0  0
 12 14  2  0  0  0
 13 36  1  0  0  0
 15 16  1  0  0  0
 15 37  1  0  0  0
 16 17  2  0  0  0
 16 21  1  0  0  0
 17 18  1  0  0  0
 17 38  1  0  0  0
 18 19  2  0  0  0
 18 39  1  0  0  0
 19 20  1  0  0  0
 19 22  1  0  0  0
 20 21  2  0  0  0
 20 40  1  0  0  0
 21 41  1  0  0  0
 22 23  1  0  0  0
 22 24  1  0  0  0
 22 42  1  0  0  0
 23 43  1  0  0  0
 23 44  1  0  0  0
 23 45  1  0  0  0
 24 46  1  0  0  0
 24 47  1  0  0  0
 24 48  1  0  0  0
 25 26  1  0  0  0
 26 27  1  0  0  0
 26 49  1  0  0  0
 26 50  1  0  0  0
 27 51  1  0  0  0
 27 52  1  0  0  0
 27 53  1  0  0  0
M  END
> <s_m_entry_id>
31253

> <s_m_entry_name>
dock_pv.466

> <s_m_Source_Path>
/home/csk/Desktop/cluster/DUD-E-result/rxra

> <s_m_Source_File>
dock_pv.maegz

> <i_m_Source_File_Index>
466

> <chembl_id>
CHEMBL2337789

> <chembl_pref_name>
None

> <i_lp_mmshare_version>
53161

> <r_lp_tautomer_probability>
1

> <s_lp_Force_Field>
OPLS_2005

> <r_lp_Energy>
41.101572

> <b_lp_Chiralities_Consistent>
1

> <s_lp_Variant>
CHEMBL2061_lig237-1

> <s_i_glide_gridfile>
glide-grid_1mv9

> <i_i_glide_lignum>
276

> <i_i_glide_rotatable_bonds>
7

> <r_i_docking_score>
-8.19933075529626

> <r_i_glide_ligand_efficiency>
-0.303678916862824

> <r_i_glide_ligand_efficiency_sa>
-0.911036749587597

> <r_i_glide_ligand_efficiency_ln>
-1.90866902330085

> <r_i_glide_gscore>
-8.19933075529626

> <r_i_glide_lipo>
-5.16139281080093

> <r_i_glide_hbond>
-0.160379147694394

> <r_i_glide_metal>
0

> <r_i_glide_rewards>
-1.90209279196931

> <r_i_glide_evdw>
-20.2610168457031

> <r_i_glide_ecoul>
-3.64703631401062

> <r_i_glide_erotb>
0.58464028455513

> <r_i_glide_esite>
0

> <r_i_glide_emodel>
-61.8766540291586

> <r_i_glide_energy>
-23.9080531597137

> <r_i_glide_einternal>
7.48794317245483

> <i_i_glide_confnum>
87

> <i_i_glide_posenum>
236

> <r_i_glide_eff_state_penalty>
0

> <s_user_duplicate_titles>
CHEMBL2061_lig237

> <i_f3d_flags>
0

> <s_m_subgroup_title>
dock_pv

> <s_m_subgroupid>
dock_pv

> <b_m_subgroup_collapsed>
1

$$$$
CHEMBL2061_lig38
                    3D
 Schrodinger Suite 2021-1.
 47 48  0  0  1  0            999 V2000
   64.4078   43.8840   32.6784 C   0  0  0  0  0  0
   55.6915   45.8153   29.5120 C   0  0  0  0  0  0
   63.8790   46.4853   29.2287 C   0  0  0  0  0  0
   60.3835   46.4415   28.1855 C   0  0  0  0  0  0
   63.6689   46.8675   30.5048 C   0  0  0  0  0  0
   59.0555   46.4229   28.0000 C   0  0  0  0  0  0
   56.0741   45.4188   30.7933 C   0  0  0  0  0  0
   64.3417   44.4730   33.9408 C   0  0  0  0  0  0
   61.2128   47.1352   27.2358 C   0  0  0  0  0  0
   63.4611   47.3230   28.1389 C   0  0  0  0  0  0
   62.6505   46.6809   27.0586 C   0  0  0  0  0  0
   64.2578   44.6995   31.5557 C   0  0  0  0  0  0
   56.6905   46.0270   28.5596 C   0  0  0  0  0  0
   58.0408   45.9180   28.9100 C   0  0  0  0  0  0
   63.9756   46.0587   31.6850 C   0  0  0  0  0  0
   60.8080   48.0768   26.5579 O   0  0  0  0  0  0
   63.6074   48.5426   28.1196 O   0  0  0  0  0  0
   64.1197   45.8434   34.0898 C   0  0  0  0  0  0
   57.4246   45.3088   31.1400 C   0  0  0  0  0  0
   58.3985   45.5034   30.1851 C   0  0  0  0  0  0
   63.9240   46.6276   32.9584 C   0  0  0  0  0  0
   64.5029   42.5103   32.6026 O   0  0  0  0  0  0
   54.3578   46.1031   29.2876 O   0  0  0  0  0  0
   64.4078   43.6772   35.0386 O   0  0  0  0  0  0
   55.1137   45.2771   31.7390 O   0  0  0  0  0  0
   54.0598   47.1441   28.3590 C   0  0  0  0  0  0
   64.3278   41.8942   31.3376 C   0  0  0  0  0  0
   64.0078   46.6478   35.8177 Br  0  0  0  0  0  0
   58.0258   45.2770   32.9388 Br  0  0  0  0  0  0
   64.3310   45.5464   28.9504 H   0  0  0  0  0  0
   60.8782   45.9828   29.0273 H   0  0  0  0  0  0
   63.2052   47.8250   30.7077 H   0  0  0  0  0  0
   58.6763   46.8757   27.1128 H   0  0  0  0  0  0
   62.7443   45.5953   27.0427 H   0  0  0  0  0  0
   64.2765   44.2552   30.5764 H   0  0  0  0  0  0
   56.4096   46.3598   27.5725 H   0  0  0  0  0  0
   63.0517   47.0851   26.1392 H   0  0  0  0  0  0
   59.4300   45.4737   30.5008 H   0  0  0  0  0  0
   63.7039   47.6771   33.0803 H   0  0  0  0  0  0
   64.3561   44.1822   35.8530 H   0  0  0  0  0  0
   55.5084   45.0972   32.5969 H   0  0  0  0  0  0
   53.0591   47.5238   28.5385 H   0  0  0  0  0  0
   54.7416   47.9937   28.4403 H   0  0  0  0  0  0
   54.0735   46.7683   27.3392 H   0  0  0  0  0  0
   64.4085   40.8281   31.4413 H   0  0  0  0  0  0
   63.3385   42.0779   30.9208 H   0  0  0  0  0  0
   65.0842   42.1931   30.6091 H   0  0  0  0  0  0
  1  8  2  0  0  0
  1 12  1  0  0  0
  1 22  1  0  0  0
  2 13  2  0  0  0
  2 23  1  0  0  0
  2  7  1  0  0  0
  3  5  2  0  0  0
  3 30  1  0  0  0
  3 10  1  0  0  0
  4  6  2  0  0  0
  4 31  1  0  0  0
  4  9  1  0  0  0
  5 15  1  0  0  0
  5 32  1  0  0  0
  6 14  1  0  0  0
  6 33  1  0  0  0
  7 19  2  0  0  0
  7 25  1  0  0  0
  8 18  1  0  0  0
  8 24  1  0  0  0
  9 11  1  0  0  0
  9 16  2  0  0  0
 10 11  1  0  0  0
 10 17  2  0  0  0
 11 34  1  0  0  0
 11 37  1  0  0  0
 12 15  2  0  0  0
 12 35  1  0  0  0
 13 14  1  0  0  0
 13 36  1  0  0  0
 14 20  2  0  0  0
 15 21  1  0  0  0
 18 21  2  0  0  0
 18 28  1  0  0  0
 19 20  1  0  0  0
 19 29  1  0  0  0
 20 38  1  0  0  0
 21 39  1  0  0  0
 22 27  1  0  0  0
 23 26  1  0  0  0
 24 40  1  0  0  0
 25 41  1  0  0  0
 26 42  1  0  0  0
 26 43  1  0  0  0
 26 44  1  0  0  0
 27 45  1  0  0  0
 27 46  1  0  0  0
 27 47  1  0  0  0
M  END
> <s_m_entry_id>
31254

> <s_m_entry_name>
dock_pv.467

> <s_m_Source_Path>
/home/csk/Desktop/cluster/DUD-E-result/rxra

> <s_m_Source_File>
dock_pv.maegz

> <i_m_Source_File_Index>
467

> <chembl_id>
CHEMBL2323726

> <chembl_pref_name>
None

> <i_lp_mmshare_version>
53161

> <r_lp_tautomer_probability>
0.692307692307692

> <s_lp_Force_Field>
OPLS_2005

> <r_lp_Energy>
24.686177

> <b_lp_Chiralities_Consistent>
1

> <s_lp_Variant>
CHEMBL2061_lig38-1

> <s_i_glide_gridfile>
glide-grid_1mv9

> <i_i_glide_lignum>
48

> <i_i_glide_rotatable_bonds>
10

> <r_i_docking_score>
-8.17282189809313

> <r_i_glide_ligand_efficiency>
-0.281821444761832

> <r_i_glide_ligand_efficiency_sa>
-0.86584476560902

> <r_i_glide_ligand_efficiency_ln>
-1.87136896978157

> <r_i_glide_gscore>
-8.17282189809313

> <r_i_glide_lipo>
-5.11571454269521

> <r_i_glide_hbond>
0

> <r_i_glide_metal>
0

> <r_i_glide_rewards>
-1.40633990764474

> <r_i_glide_evdw>
-31.5719985961914

> <r_i_glide_ecoul>
-3.45555305480957

> <r_i_glide_erotb>
0.446165440277827

> <r_i_glide_esite>
0

> <r_i_glide_emodel>
-36.7321386021329

> <r_i_glide_energy>
-35.027551651001

> <r_i_glide_einternal>
7.95329856872559

> <i_i_glide_confnum>
16

> <i_i_glide_posenum>
2

> <r_i_glide_eff_state_penalty>
0

> <s_user_duplicate_titles>
CHEMBL2061_lig38,CHEMBL2061_lig38

> <i_f3d_flags>
0

> <s_m_subgroup_title>
dock_pv

> <s_m_subgroupid>
dock_pv

> <b_m_subgroup_collapsed>
1

$$$$
CHEMBL2061_lig555 
                    3D
 Schrodinger Suite 2021-1.
 44 45  0  0  1  0            999 V2000
   60.1917   46.3131   29.5651 C   0  0  0  0  0  0
   60.0254   46.0770   30.9388 C   0  0  0  0  0  0
   58.7648   45.6770   31.3848 C   0  0  0  0  0  0
   57.7037   45.6314   30.5570 N   0  0  0  0  0  0
   57.9115   46.0438   29.2870 C   0  0  0  0  0  0
   59.1043   46.4030   28.7458 N   0  0  0  0  0  0
   61.4994   46.3531   29.0191 N   0  0  0  0  0  0
   62.6245   45.9411   29.7617 C   0  0  0  0  0  0
   63.0625   44.6002   29.7390 C   0  0  0  0  0  0
   64.0581   44.1922   30.6468 C   0  0  0  0  0  0
   64.6477   45.1253   31.5035 C   0  0  0  0  0  0
   64.2298   46.4518   31.4968 C   0  0  0  0  0  0
   63.2080   46.8538   30.6421 C   0  0  0  0  0  0
   56.5012   46.0770   28.2528 S   0  0  0  0  0  0
   55.4096   44.7933   28.8707 C   0  0  0  0  0  0
   54.5011   45.2406   29.9865 C   0  0  0  0  0  0
   54.0002   46.4770   29.7390 O   0  0  0  0  0  0
   54.2143   44.5316   30.9390 O   0  0  0  0  0  0
   58.5182   45.2912   33.0469 Cl  0  0  0  0  0  0
   62.4314   43.5769   28.7882 C   0  0  0  0  0  0
   64.4438   42.7289   30.8011 C   0  0  0  0  0  0
   61.7370   46.9727   27.6981 C   0  0  0  0  0  0
   63.1179   46.6860   27.0628 C   0  0  0  0  0  0
   61.5149   48.4827   27.7649 C   0  0  0  0  0  0
   60.8516   46.0661   31.6317 H   0  0  0  0  0  0
   65.4127   44.8175   32.2019 H   0  0  0  0  0  0
   64.6756   47.1615   32.1784 H   0  0  0  0  0  0
   62.8520   47.8731   30.6817 H   0  0  0  0  0  0
   56.0032   43.9495   29.2189 H   0  0  0  0  0  0
   54.8080   44.4761   28.0352 H   0  0  0  0  0  0
   54.4507   46.8614   28.9808 H   0  0  0  0  0  0
   61.6484   43.0113   29.2928 H   0  0  0  0  0  0
   62.0080   44.0369   27.8977 H   0  0  0  0  0  0
   63.1801   42.8750   28.4205 H   0  0  0  0  0  0
   65.2082   42.4495   30.0772 H   0  0  0  0  0  0
   64.8080   42.5193   31.8073 H   0  0  0  0  0  0
   63.5818   42.0769   30.6685 H   0  0  0  0  0  0
   60.9988   46.5607   27.0076 H   0  0  0  0  0  0
   63.2571   47.2443   26.1390 H   0  0  0  0  0  0
   63.9479   46.9605   27.7150 H   0  0  0  0  0  0
   63.2080   45.6323   26.8163 H   0  0  0  0  0  0
   62.0083   48.9824   26.9392 H   0  0  0  0  0  0
   60.4566   48.7437   27.7390 H   0  0  0  0  0  0
   61.9482   48.8770   28.6793 H   0  0  0  0  0  0
  1  2  2  0  0  0
  1  6  1  0  0  0
  1  7  1  0  0  0
  2  3  1  0  0  0
  2 25  1  0  0  0
  3  4  2  0  0  0
  3 19  1  0  0  0
  4  5  1  0  0  0
  5  6  2  0  0  0
  5 14  1  0  0  0
  7  8  1  0  0  0
  7 22  1  0  0  0
  8  9  2  0  0  0
  8 13  1  0  0  0
  9 10  1  0  0  0
  9 20  1  0  0  0
 10 11  2  0  0  0
 10 21  1  0  0  0
 11 12  1  0  0  0
 11 26  1  0  0  0
 12 13  2  0  0  0
 12 27  1  0  0  0
 13 28  1  0  0  0
 14 15  1  0  0  0
 15 16  1  0  0  0
 15 29  1  0  0  0
 15 30  1  0  0  0
 16 17  1  0  0  0
 16 18  2  0  0  0
 17 31  1  0  0  0
 20 32  1  0  0  0
 20 33  1  0  0  0
 20 34  1  0  0  0
 21 35  1  0  0  0
 21 36  1  0  0  0
 21 37  1  0  0  0
 22 23  1  0  0  0
 22 24  1  0  0  0
 22 38  1  0  0  0
 23 39  1  0  0  0
 23 40  1  0  0  0
 23 41  1  0  0  0
 24 42  1  0  0  0
 24 43  1  0  0  0
 24 44  1  0  0  0
M  END
> <s_m_entry_id>
31255

> <s_m_entry_name>
dock_pv.468

> <s_m_Source_Path>
/home/csk/Desktop/cluster/DUD-E-result/rxra

> <s_m_Source_File>
dock_pv.maegz

> <i_m_Source_File_Index>
468

> <chembl_id>
CHEMBL4465004

> <chembl_pref_name>
None

> <i_lp_mmshare_version>
53161

> <r_lp_tautomer_probability>
1

> <s_lp_Force_Field>
OPLS_2005

> <r_lp_Energy>
9.315991

> <b_lp_Chiralities_Consistent>
1

> <s_lp_Variant>
CHEMBL2061_lig555 -1

> <s_i_glide_gridfile>
glide-grid_1mv9

> <i_i_glide_lignum>
655

> <i_i_glide_rotatable_bonds>
7

> <r_i_docking_score>
-8.14817035225117

> <r_i_glide_ligand_efficiency>
-0.339507098010466

> <r_i_glide_ligand_efficiency_sa>
-0.979307931406387

> <r_i_glide_ligand_efficiency_ln>
-1.95023106046784

> <r_i_glide_gscore>
-8.14817035225117

> <r_i_glide_lipo>
-3.8532499236336

> <r_i_glide_hbond>
-0.32

> <r_i_glide_metal>
0

> <r_i_glide_rewards>
-2.23867253653239

> <r_i_glide_evdw>
-31.2558631896973

> <r_i_glide_ecoul>
-5.93642902374268

> <r_i_glide_erotb>
0.718665760373646

> <r_i_glide_esite>
-0.00165613941257107

> <r_i_glide_emodel>
-48.5467841451628

> <r_i_glide_energy>
-37.1922922134399

> <r_i_glide_einternal>
9.83612632751465

> <i_i_glide_confnum>
52

> <i_i_glide_posenum>
399

> <r_i_glide_eff_state_penalty>
0

> <s_user_duplicate_titles>
CHEMBL2061_lig555 

> <i_f3d_flags>
0

> <s_m_subgroup_title>
dock_pv

> <s_m_subgroupid>
dock_pv

> <b_m_subgroup_collapsed>
1

$$$$
CHEMBL2061_lig256
                    3D
 Schrodinger Suite 2021-1.
 44 45  0  0  1  0            999 V2000
   62.8825   46.0200   31.3885 C   0  0  0  0  0  0
   53.8404   47.3152   28.1984 C   0  0  0  0  0  0
   59.4435   45.6635   29.7130 C   0  0  0  0  0  0
   63.2514   46.3847   32.6609 C   0  0  0  0  0  0
   58.2332   45.5303   29.6370 C   0  0  0  0  0  0
   63.9328   45.4480   30.3690 C   0  0  0  0  0  0
   54.6206   46.2831   28.9754 C   0  0  0  0  0  0
   61.4472   46.0727   31.0424 C   0  0  0  0  0  0
   60.8530   45.6678   29.9019 C   0  0  0  0  0  0
   56.0114   46.2369   28.8589 C   0  0  0  0  0  0
   52.7152   47.2328   27.7390 O   0  0  0  0  0  0
   56.7892   45.4027   29.6532 C   0  0  0  0  0  0
   54.4570   48.4769   28.1390 O   0  0  0  0  0  0
   64.6833   46.2881   33.1940 C   0  0  0  0  0  0
   65.3835   45.6242   30.9121 C   0  0  0  0  0  0
   54.0097   45.3635   29.8316 C   0  0  0  0  0  0
   62.3106   47.0522   33.6671 C   0  0  0  0  0  0
   63.8917   46.2465   29.0314 C   0  0  0  0  0  0
   63.6765   43.9282   30.1895 C   0  0  0  0  0  0
   65.5365   45.3056   32.3948 C   0  0  0  0  0  0
   54.7794   44.4816   30.5945 C   0  0  0  0  0  0
   56.1690   44.5058   30.5141 C   0  0  0  0  0  0
   60.7591   46.4372   31.7897 H   0  0  0  0  0  0
   61.4150   45.2836   29.0727 H   0  0  0  0  0  0
   56.4998   46.8768   28.1598 H   0  0  0  0  0  0
   55.2126   48.5723   28.7253 H   0  0  0  0  0  0
   64.6839   46.0087   34.2490 H   0  0  0  0  0  0
   65.1387   47.2791   33.1741 H   0  0  0  0  0  0
   65.6799   46.6648   30.7866 H   0  0  0  0  0  0
   66.0947   45.0392   30.3258 H   0  0  0  0  0  0
   52.9438   45.3362   29.9288 H   0  0  0  0  0  0
   61.6101   47.7382   33.1945 H   0  0  0  0  0  0
   61.7543   46.2946   34.2193 H   0  0  0  0  0  0
   62.8661   47.6495   34.3929 H   0  0  0  0  0  0
   64.8656   46.2797   28.5428 H   0  0  0  0  0  0
   63.2401   45.7968   28.2865 H   0  0  0  0  0  0
   63.5634   47.2764   29.1721 H   0  0  0  0  0  0
   64.4074   43.4719   29.5271 H   0  0  0  0  0  0
   63.7208   43.3892   31.1359 H   0  0  0  0  0  0
   62.7144   43.7074   29.7366 H   0  0  0  0  0  0
   65.2362   44.2793   32.6072 H   0  0  0  0  0  0
   66.5822   45.3888   32.6964 H   0  0  0  0  0  0
   54.3181   43.7772   31.2672 H   0  0  0  0  0  0
   56.7630   43.8347   31.1161 H   0  0  0  0  0  0
  1  4  2  0  0  0
  1  6  1  0  0  0
  1  8  1  0  0  0
  2  7  1  0  0  0
  2 11  2  0  0  0
  2 13  1  0  0  0
  3  9  1  0  0  0
  3  5  3  0  0  0
  4 14  1  0  0  0
  4 17  1  0  0  0
  5 12  1  0  0  0
  6 15  1  0  0  0
  6 18  1  0  0  0
  6 19  1  0  0  0
  7 10  1  0  0  0
  7 16  2  0  0  0
  8  9  2  0  0  0
  8 23  1  0  0  0
  9 24  1  0  0  0
 10 12  2  0  0  0
 10 25  1  0  0  0
 12 22  1  0  0  0
 13 26  1  0  0  0
 14 20  1  0  0  0
 14 27  1  0  0  0
 14 28  1  0  0  0
 15 20  1  0  0  0
 15 29  1  0  0  0
 15 30  1  0  0  0
 16 21  1  0  0  0
 16 31  1  0  0  0
 17 32  1  0  0  0
 17 33  1  0  0  0
 17 34  1  0  0  0
 18 35  1  0  0  0
 18 36  1  0  0  0
 18 37  1  0  0  0
 19 38  1  0  0  0
 19 39  1  0  0  0
 19 40  1  0  0  0
 20 41  1  0  0  0
 20 42  1  0  0  0
 21 22  2  0  0  0
 21 43  1  0  0  0
 22 44  1  0  0  0
M  END
> <s_m_entry_id>
31256

> <s_m_entry_name>
dock_pv.469

> <s_m_Source_Path>
/home/csk/Desktop/cluster/DUD-E-result/rxra

> <s_m_Source_File>
dock_pv.maegz

> <i_m_Source_File_Index>
469

> <chembl_id>
CHEMBL150583

> <chembl_pref_name>
None

> <i_lp_mmshare_version>
53161

> <r_lp_tautomer_probability>
1

> <s_lp_Force_Field>
OPLS_2005

> <r_lp_Energy>
22.426772

> <b_lp_Chiralities_Consistent>
1

> <s_lp_Variant>
CHEMBL2061_lig256-1

> <s_i_glide_gridfile>
glide-grid_1mv9

> <i_i_glide_lignum>
298

> <i_i_glide_rotatable_bonds>
5

> <r_i_docking_score>
-8.13650696838156

> <r_i_glide_ligand_efficiency>
-0.369841225835525

> <r_i_glide_ligand_efficiency_sa>
-1.03630965982118

> <r_i_glide_ligand_efficiency_ln>
-1.98885908937521

> <r_i_glide_gscore>
-8.13650696838156

> <r_i_glide_lipo>
-4.84763699978957

> <r_i_glide_hbond>
-0.365815217032217

> <r_i_glide_metal>
0

> <r_i_glide_rewards>
-2.28324273328812

> <r_i_glide_evdw>
-21.231616973877

> <r_i_glide_ecoul>
-2.76142334938049

> <r_i_glide_erotb>
0.844080019601055

> <r_i_glide_esite>
-0.00809768677177921

> <r_i_glide_emodel>
-24.0696281205418

> <r_i_glide_energy>
-23.9930403232574

> <r_i_glide_einternal>
3.90959000587463

> <i_i_glide_confnum>
1

> <i_i_glide_posenum>
271

> <r_i_glide_eff_state_penalty>
0

> <s_user_duplicate_titles>
CHEMBL2061_lig256

> <i_f3d_flags>
0

> <s_m_subgroup_title>
dock_pv

> <s_m_subgroupid>
dock_pv

> <b_m_subgroup_collapsed>
1

$$$$
CHEMBL2061_lig553
                    3D
 Schrodinger Suite 2021-1.
 34 35  0  0  1  0            999 V2000
   59.9435   46.0770   30.3710 N   0  0  0  0  0  0
   59.9367   47.2457   28.2585 N   0  0  0  0  0  0
   59.3537   46.4770   29.2154 C   0  0  0  0  0  0
   61.2080   46.5209   30.5906 C   0  0  0  0  0  0
   61.2007   47.6760   28.5095 C   0  0  0  0  0  0
   61.8668   47.3623   29.6891 C   0  0  0  0  0  0
   63.1386   45.9985   31.9322 C   0  0  0  0  0  0
   61.7707   46.0770   31.7645 O   0  0  0  0  0  0
   64.0031   45.3396   31.0284 C   0  0  0  0  0  0
   57.6672   46.0307   28.9390 S   0  0  0  0  0  0
   55.5127   45.0866   30.4218 C   0  0  0  0  0  0
   65.3841   45.3276   31.2892 C   0  0  0  0  0  0
   54.8595   45.5729   31.3390 O   0  0  0  0  0  0
   57.0413   45.1027   30.3732 C   0  0  0  0  0  0
   62.0325   48.6198   27.3390 Cl  0  0  0  0  0  0
   54.9591   44.4770   29.3390 O   0  0  0  0  0  0
   63.6526   46.5378   33.1119 C   0  0  0  0  0  0
   65.0154   46.4770   33.3863 C   0  0  0  0  0  0
   63.4707   44.6035   29.7936 C   0  0  0  0  0  0
   65.8794   45.8871   32.4701 C   0  0  0  0  0  0
   66.3517   44.7401   30.2771 C   0  0  0  0  0  0
   62.8658   47.7203   29.8781 H   0  0  0  0  0  0
   57.4312   45.5387   31.2938 H   0  0  0  0  0  0
   57.4091   44.0771   30.3242 H   0  0  0  0  0  0
   55.6060   44.1524   28.7058 H   0  0  0  0  0  0
   62.9865   47.0108   33.8184 H   0  0  0  0  0  0
   65.4036   46.9038   34.2996 H   0  0  0  0  0  0
   63.9427   43.6263   29.6938 H   0  0  0  0  0  0
   62.4053   44.3930   29.8380 H   0  0  0  0  0  0
   63.6842   45.1683   28.8858 H   0  0  0  0  0  0
   66.9352   45.8678   32.6887 H   0  0  0  0  0  0
   66.1876   45.2282   29.3191 H   0  0  0  0  0  0
   67.3958   44.8770   30.5390 H   0  0  0  0  0  0
   66.1678   43.6770   30.1390 H   0  0  0  0  0  0
  1  3  1  0  0  0
  1  4  2  0  0  0
  2  3  2  0  0  0
  2  5  1  0  0  0
  3 10  1  0  0  0
  4  6  1  0  0  0
  4  8  1  0  0  0
  5  6  2  0  0  0
  5 15  1  0  0  0
  6 22  1  0  0  0
  7  8  1  0  0  0
  7  9  2  0  0  0
  7 17  1  0  0  0
  9 12  1  0  0  0
  9 19  1  0  0  0
 10 14  1  0  0  0
 11 14  1  0  0  0
 11 13  2  0  0  0
 11 16  1  0  0  0
 12 21  1  0  0  0
 12 20  2  0  0  0
 14 23  1  0  0  0
 14 24  1  0  0  0
 16 25  1  0  0  0
 17 18  2  0  0  0
 17 26  1  0  0  0
 18 20  1  0  0  0
 18 27  1  0  0  0
 19 28  1  0  0  0
 19 29  1  0  0  0
 19 30  1  0  0  0
 20 31  1  0  0  0
 21 32  1  0  0  0
 21 33  1  0  0  0
 21 34  1  0  0  0
M  END
> <s_m_entry_id>
31257

> <s_m_entry_name>
dock_pv.470

> <s_m_Source_Path>
/home/csk/Desktop/cluster/DUD-E-result/rxra

> <s_m_Source_File>
dock_pv.maegz

> <i_m_Source_File_Index>
470

> <chembl_id>
CHEMBL42489

> <chembl_pref_name>
None

> <i_lp_mmshare_version>
53161

> <r_lp_tautomer_probability>
1

> <s_lp_Force_Field>
OPLS_2005

> <r_lp_Energy>
4.072201

> <b_lp_Chiralities_Consistent>
1

> <s_lp_Variant>
CHEMBL2061_lig553-1

> <s_i_glide_gridfile>
glide-grid_1mv9

> <i_i_glide_lignum>
653

> <i_i_glide_rotatable_bonds>
6

> <r_i_docking_score>
-8.13268631688576

> <r_i_glide_ligand_efficiency>
-0.38727077699456

> <r_i_glide_ligand_efficiency_sa>
-1.06845070837189

> <r_i_glide_ligand_efficiency_ln>
-2.01079025820994

> <r_i_glide_gscore>
-8.13268631688576

> <r_i_glide_lipo>
-3.88111817295068

> <r_i_glide_hbond>
-0.0679961605145947

> <r_i_glide_metal>
0

> <r_i_glide_rewards>
-2.37487505912189

> <r_i_glide_evdw>
-41.9191932678223

> <r_i_glide_ecoul>
-4.00439643859863

> <r_i_glide_erotb>
0.887922204882319

> <r_i_glide_esite>
0

> <r_i_glide_emodel>
-64.5169882969721

> <r_i_glide_energy>
-45.9235897064209

> <r_i_glide_einternal>
4.18025398254395

> <i_i_glide_confnum>
11

> <i_i_glide_posenum>
124

> <r_i_glide_eff_state_penalty>
0

> <s_user_duplicate_titles>
CHEMBL2061_lig553

> <i_f3d_flags>
0

> <s_m_subgroup_title>
dock_pv

> <s_m_subgroupid>
dock_pv

> <b_m_subgroup_collapsed>
1

$$$$
CHEMBL2061_lig76
                    3D
 Schrodinger Suite 2021-1.
 35 36  0  0  1  0            999 V2000
   61.5397   46.6987   30.1243 C   0  0  0  0  0  0
   61.6275   47.3070   28.8751 C   0  0  0  0  0  0
   60.4953   47.2788   28.0648 C   0  0  0  0  0  0
   59.3454   46.6632   28.4513 N   0  0  0  0  0  0
   59.3494   46.0767   29.6786 C   0  0  0  0  0  0
   60.4028   46.0770   30.5386 N   0  0  0  0  0  0
   57.8701   45.2759   30.2460 S   0  0  0  0  0  0
   56.5532   45.4116   28.9878 C   0  0  0  0  0  0
   55.1947   45.8020   29.5755 C   0  0  0  0  0  0
   54.6534   46.8807   28.9390 O   0  0  0  0  0  0
   54.6446   45.1962   30.4945 O   0  0  0  0  0  0
   62.6798   46.7402   30.9360 N   0  0  0  0  0  0
   60.5688   48.0768   26.5401 Cl  0  0  0  0  0  0
   62.8938   46.4807   32.3021 C   0  0  0  0  0  0
   64.1670   46.0664   32.7475 C   0  0  0  0  0  0
   64.3742   45.8294   34.1198 C   0  0  0  0  0  0
   63.3367   46.0481   35.0293 C   0  0  0  0  0  0
   62.0894   46.4779   34.5898 C   0  0  0  0  0  0
   61.8692   46.6865   33.2325 C   0  0  0  0  0  0
   65.3189   45.8866   31.7472 C   0  0  0  0  0  0
   65.6988   45.3015   34.6534 C   0  0  0  0  0  0
   62.5282   47.8036   28.5465 H   0  0  0  0  0  0
   56.4099   44.4322   28.5405 H   0  0  0  0  0  0
   56.8526   46.0774   28.1797 H   0  0  0  0  0  0
   55.2318   47.2488   28.2677 H   0  0  0  0  0  0
   63.5013   47.0837   30.4662 H   0  0  0  0  0  0
   63.4915   45.8744   36.0843 H   0  0  0  0  0  0
   61.2910   46.6394   35.2994 H   0  0  0  0  0  0
   60.8938   47.0196   32.9113 H   0  0  0  0  0  0
   66.3046   45.9374   32.2101 H   0  0  0  0  0  0
   65.2258   44.9349   31.2219 H   0  0  0  0  0  0
   65.3200   46.6823   31.0016 H   0  0  0  0  0  0
   66.4656   46.0745   34.6269 H   0  0  0  0  0  0
   65.6036   44.9276   35.6727 H   0  0  0  0  0  0
   66.0471   44.4617   34.0520 H   0  0  0  0  0  0
  1 12  1  0  0  0
  1  6  1  0  0  0
  1  2  2  0  0  0
  2  3  1  0  0  0
  2 22  1  0  0  0
  3 13  1  0  0  0
  3  4  2  0  0  0
  4  5  1  0  0  0
  5  6  2  0  0  0
  5  7  1  0  0  0
  7  8  1  0  0  0
  8  9  1  0  0  0
  8 23  1  0  0  0
  8 24  1  0  0  0
  9 10  1  0  0  0
  9 11  2  0  0  0
 10 25  1  0  0  0
 12 14  1  0  0  0
 12 26  1  0  0  0
 14 15  2  0  0  0
 14 19  1  0  0  0
 15 16  1  0  0  0
 15 20  1  0  0  0
 16 17  2  0  0  0
 16 21  1  0  0  0
 17 18  1  0  0  0
 17 27  1  0  0  0
 18 19  2  0  0  0
 18 28  1  0  0  0
 19 29  1  0  0  0
 20 30  1  0  0  0
 20 31  1  0  0  0
 20 32  1  0  0  0
 21 33  1  0  0  0
 21 34  1  0  0  0
 21 35  1  0  0  0
M  END
> <s_m_entry_id>
31258

> <s_m_entry_name>
dock_pv.471

> <s_m_Source_Path>
/home/csk/Desktop/cluster/DUD-E-result/rxra

> <s_m_Source_File>
dock_pv.maegz

> <i_m_Source_File_Index>
471

> <chembl_id>
CHEMBL295416

> <chembl_pref_name>
PIRINIXIC ACID

> <i_lp_mmshare_version>
53161

> <r_lp_tautomer_probability>
0.999999998296584

> <s_lp_Force_Field>
OPLS_2005

> <r_lp_Energy>
5.31386

> <b_lp_Chiralities_Consistent>
1

> <s_lp_Variant>
CHEMBL2061_lig76-1

> <s_i_glide_gridfile>
glide-grid_1mv9

> <i_i_glide_lignum>
103

> <i_i_glide_rotatable_bonds>
6

> <r_i_docking_score>
-8.09396283175412

> <r_i_glide_ligand_efficiency>
-0.385426801512101

> <r_i_glide_ligand_efficiency_sa>
-1.06336331983784

> <r_i_glide_ligand_efficiency_ln>
-2.00121595475931

> <r_i_glide_gscore>
-8.09396283175412

> <r_i_glide_lipo>
-3.94799871194253

> <r_i_glide_hbond>
-0.000156983711518457

> <r_i_glide_metal>
0

> <r_i_glide_rewards>
-2.43804095144526

> <r_i_glide_evdw>
-45.819091796875

> <r_i_glide_ecoul>
-2.06335806846619

> <r_i_glide_erotb>
0.892692115458869

> <r_i_glide_esite>
0

> <r_i_glide_emodel>
-69.6152382582288

> <r_i_glide_energy>
-47.8824498653412

> <r_i_glide_einternal>
3.44009876251221

> <i_i_glide_confnum>
55

> <i_i_glide_posenum>
279

> <r_i_glide_eff_state_penalty>
0

> <s_user_duplicate_titles>
CHEMBL2061_lig76

> <i_f3d_flags>
0

> <s_m_subgroup_title>
dock_pv

> <s_m_subgroupid>
dock_pv

> <b_m_subgroup_collapsed>
1

$$$$
CHEMBL2061_lig88 
                    3D
 Schrodinger Suite 2021-1.
 40 43  0  0  1  0            999 V2000
   65.2373   46.0231   30.9403 C   0  0  0  0  0  0
   64.7018   45.5762   29.7344 C   0  0  0  0  0  0
   63.3202   45.5403   29.5516 C   0  0  0  0  0  0
   64.4011   46.4769   31.9549 C   0  0  0  0  0  0
   63.0180   46.4594   31.7678 C   0  0  0  0  0  0
   62.4800   45.9733   30.5826 C   0  0  0  0  0  0
   61.0249   46.0243   30.6953 C   0  0  0  0  0  0
   60.7816   46.5574   32.0203 C   0  0  0  0  0  0
   61.9243   46.8691   32.6488 C   0  0  0  0  0  0
   62.1498   47.4986   34.0105 C   0  0  0  0  0  0
   63.0648   46.7731   34.9646 C   0  0  0  0  0  0
   60.1669   45.6519   29.7285 C   0  0  0  0  0  0
   63.6589   47.3604   36.0460 N   0  0  0  0  0  0
   64.4080   46.4721   36.6941 N   0  0  0  0  0  0
   64.2643   45.3046   35.9762 N   0  0  0  0  0  0
   63.4177   45.5130   34.8969 N   0  0  0  0  0  0
   58.6968   45.6555   29.7623 C   0  0  0  0  0  0
   57.9511   45.2516   30.8769 C   0  0  0  0  0  0
   56.5611   45.2711   30.8286 C   0  0  0  0  0  0
   55.9007   45.7042   29.6829 C   0  0  0  0  0  0
   56.6506   46.0762   28.5596 C   0  0  0  0  0  0
   58.0377   46.0664   28.6078 C   0  0  0  0  0  0
   54.5267   45.7686   29.7440 O   0  0  0  0  0  0
   53.8729   46.6597   28.8540 C   0  0  0  0  0  0
   66.3090   46.0484   31.0743 H   0  0  0  0  0  0
   65.3661   45.2768   28.9390 H   0  0  0  0  0  0
   62.9223   45.1715   28.6185 H   0  0  0  0  0  0
   64.8427   46.8489   32.8673 H   0  0  0  0  0  0
   59.8062   46.7145   32.4513 H   0  0  0  0  0  0
   62.5434   48.4982   33.8221 H   0  0  0  0  0  0
   61.1815   47.6506   34.4879 H   0  0  0  0  0  0
   60.5962   45.2861   28.8090 H   0  0  0  0  0  0
   63.5702   48.3242   36.3303 H   0  0  0  0  0  0
   58.4199   44.9161   31.7877 H   0  0  0  0  0  0
   55.9904   44.9832   31.6981 H   0  0  0  0  0  0
   56.1854   46.3921   27.6415 H   0  0  0  0  0  0
   58.6012   46.3699   27.7365 H   0  0  0  0  0  0
   52.8082   46.4773   28.9391 H   0  0  0  0  0  0
   54.1102   46.4845   27.8053 H   0  0  0  0  0  0
   54.0754   47.7041   29.1017 H   0  0  0  0  0  0
  1  2  2  0  0  0
  1  4  1  0  0  0
  1 25  1  0  0  0
  2  3  1  0  0  0
  2 26  1  0  0  0
  3  6  2  0  0  0
  3 27  1  0  0  0
  4  5  2  0  0  0
  4 28  1  0  0  0
  5  6  1  0  0  0
  5  9  1  0  0  0
  6  7  1  0  0  0
  7  8  1  0  0  0
  7 12  2  0  0  0
  8  9  2  0  0  0
  8 29  1  0  0  0
  9 10  1  0  0  0
 10 11  1  0  0  0
 10 30  1  0  0  0
 10 31  1  0  0  0
 11 13  1  0  0  0
 11 16  2  0  0  0
 12 17  1  0  0  0
 12 32  1  0  0  0
 13 14  1  0  0  0
 13 33  1  0  0  0
 14 15  2  0  0  0
 15 16  1  0  0  0
 17 18  2  0  0  0
 17 22  1  0  0  0
 18 19  1  0  0  0
 18 34  1  0  0  0
 19 20  2  0  0  0
 19 35  1  0  0  0
 20 21  1  0  0  0
 20 23  1  0  0  0
 21 22  2  0  0  0
 21 36  1  0  0  0
 22 37  1  0  0  0
 23 24  1  0  0  0
 24 38  1  0  0  0
 24 39  1  0  0  0
 24 40  1  0  0  0
M  END
> <s_m_entry_id>
31259

> <s_m_entry_name>
dock_pv.472

> <s_m_Source_Path>
/home/csk/Desktop/cluster/DUD-E-result/rxra

> <s_m_Source_File>
dock_pv.maegz

> <i_m_Source_File_Index>
472

> <chembl_id>
CHEMBL4554468

> <chembl_pref_name>
None

> <i_lp_mmshare_version>
53161

> <r_lp_tautomer_probability>
0.3

> <s_lp_Force_Field>
OPLS_2005

> <r_lp_Energy>
43.283123

> <b_lp_Chiralities_Consistent>
1

> <s_lp_Variant>
CHEMBL2061_lig88 -1

> <s_i_glide_gridfile>
glide-grid_1mv9

> <i_i_glide_lignum>
125

> <i_i_glide_rotatable_bonds>
4

> <r_i_docking_score>
-8.08334515908069

> <r_i_glide_ligand_efficiency>
-0.336806048295029

> <r_i_glide_ligand_efficiency_sa>
-0.971516755831705

> <r_i_glide_ligand_efficiency_ln>
-1.93471541710785

> <r_i_glide_gscore>
-8.08334515908069

> <r_i_glide_lipo>
-4.66823834743296

> <r_i_glide_hbond>
0

> <r_i_glide_metal>
0

> <r_i_glide_rewards>
-2.03845016974895

> <r_i_glide_evdw>
-38.5699234008789

> <r_i_glide_ecoul>
-0.0411634556949139

> <r_i_glide_erotb>
0.558014046499407

> <r_i_glide_esite>
0

> <r_i_glide_emodel>
-49.7141503499233

> <r_i_glide_energy>
-38.6110868565738

> <r_i_glide_einternal>
12.1511468887329

> <i_i_glide_confnum>
15

> <i_i_glide_posenum>
316

> <r_i_glide_eff_state_penalty>
0

> <s_user_duplicate_titles>
CHEMBL2061_lig88 ,CHEMBL2061_lig88 

> <i_f3d_flags>
0

> <s_m_subgroup_title>
dock_pv

> <s_m_subgroupid>
dock_pv

> <b_m_subgroup_collapsed>
1

$$$$
CHEMBL2061_lig545 
                    3D
 Schrodinger Suite 2021-1.
 35 36  0  0  1  0            999 V2000
   61.5526   46.6900   30.3212 C   0  0  0  0  0  0
   61.6970   47.2774   29.0730 C   0  0  0  0  0  0
   60.6039   47.2379   28.2179 C   0  0  0  0  0  0
   59.4307   46.6376   28.5523 N   0  0  0  0  0  0
   59.3786   46.0714   29.7875 C   0  0  0  0  0  0
   60.3959   46.0771   30.6928 N   0  0  0  0  0  0
   62.6608   46.7444   31.1685 N   0  0  0  0  0  0
   62.8362   46.4857   32.5350 C   0  0  0  0  0  0
   64.1008   46.0763   33.0042 C   0  0  0  0  0  0
   64.2733   45.8348   34.3799 C   0  0  0  0  0  0
   63.2146   46.0499   35.2660 C   0  0  0  0  0  0
   61.9759   46.4783   34.8002 C   0  0  0  0  0  0
   61.7862   46.6848   33.4378 C   0  0  0  0  0  0
   65.2791   45.9034   32.0341 C   0  0  0  0  0  0
   65.5792   45.2956   34.9376 C   0  0  0  0  0  0
   57.8746   45.2768   30.3048 S   0  0  0  0  0  0
   56.5851   45.4423   29.0217 C   0  0  0  0  0  0
   55.2080   45.8079   29.5847 C   0  0  0  0  0  0
   54.6571   46.8769   28.9393 O   0  0  0  0  0  0
   54.6529   45.1930   30.4950 O   0  0  0  0  0  0
   60.8054   48.0763   26.5390 Br  0  0  0  0  0  0
   62.6140   47.7632   28.7754 H   0  0  0  0  0  0
   63.4904   47.1047   30.7271 H   0  0  0  0  0  0
   63.3493   45.8655   36.3214 H   0  0  0  0  0  0
   61.1608   46.6357   35.4915 H   0  0  0  0  0  0
   60.8194   47.0150   33.0904 H   0  0  0  0  0  0
   66.2482   46.0032   32.5224 H   0  0  0  0  0  0
   65.2293   44.9326   31.5389 H   0  0  0  0  0  0
   65.2762   46.6762   31.2644 H   0  0  0  0  0  0
   66.3378   46.0765   34.9851 H   0  0  0  0  0  0
   65.4197   44.8778   35.9270 H   0  0  0  0  0  0
   65.9600   44.4831   34.3180 H   0  0  0  0  0  0
   56.4570   44.4767   28.5392 H   0  0  0  0  0  0
   56.9038   46.1331   28.2427 H   0  0  0  0  0  0
   55.2403   47.2488   28.2757 H   0  0  0  0  0  0
  1  2  2  0  0  0
  1  6  1  0  0  0
  1  7  1  0  0  0
  2  3  1  0  0  0
  2 22  1  0  0  0
  3  4  2  0  0  0
  3 21  1  0  0  0
  4  5  1  0  0  0
  5  6  2  0  0  0
  5 16  1  0  0  0
  7  8  1  0  0  0
  7 23  1  0  0  0
  8  9  2  0  0  0
  8 13  1  0  0  0
  9 10  1  0  0  0
  9 14  1  0  0  0
 10 11  2  0  0  0
 10 15  1  0  0  0
 11 12  1  0  0  0
 11 24  1  0  0  0
 12 13  2  0  0  0
 12 25  1  0  0  0
 13 26  1  0  0  0
 14 27  1  0  0  0
 14 28  1  0  0  0
 14 29  1  0  0  0
 15 30  1  0  0  0
 15 31  1  0  0  0
 15 32  1  0  0  0
 16 17  1  0  0  0
 17 18  1  0  0  0
 17 33  1  0  0  0
 17 34  1  0  0  0
 18 19  1  0  0  0
 18 20  2  0  0  0
 19 35  1  0  0  0
M  END
> <s_m_entry_id>
31260

> <s_m_entry_name>
dock_pv.473

> <s_m_Source_Path>
/home/csk/Desktop/cluster/DUD-E-result/rxra

> <s_m_Source_File>
dock_pv.maegz

> <i_m_Source_File_Index>
473

> <chembl_id>
CHEMBL4459701

> <chembl_pref_name>
None

> <i_lp_mmshare_version>
53161

> <r_lp_tautomer_probability>
0.999999998296584

> <s_lp_Force_Field>
OPLS_2005

> <r_lp_Energy>
5.159499

> <b_lp_Chiralities_Consistent>
1

> <s_lp_Variant>
CHEMBL2061_lig545 -1

> <s_i_glide_gridfile>
glide-grid_1mv9

> <i_i_glide_lignum>
645

> <i_i_glide_rotatable_bonds>
6

> <r_i_docking_score>
-8.04744426809416

> <r_i_glide_ligand_efficiency>
-0.383211631814008

> <r_i_glide_ligand_efficiency_sa>
-1.05725183460918

> <r_i_glide_ligand_efficiency_ln>
-1.98971433389399

> <r_i_glide_gscore>
-8.04744426809416

> <r_i_glide_lipo>
-3.99474906762323

> <r_i_glide_hbond>
0

> <r_i_glide_metal>
0

> <r_i_glide_rewards>
-2.19930911895672

> <r_i_glide_evdw>
-45.2145233154297

> <r_i_glide_ecoul>
-2.02053999900818

> <r_i_glide_erotb>
0.710421084108503

> <r_i_glide_esite>
0

> <r_i_glide_emodel>
-67.2362281821678

> <r_i_glide_energy>
-47.2350633144379

> <r_i_glide_einternal>
3.50553131103516

> <i_i_glide_confnum>
55

> <i_i_glide_posenum>
267

> <r_i_glide_eff_state_penalty>
0

> <s_user_duplicate_titles>
CHEMBL2061_lig545 

> <i_f3d_flags>
0

> <s_m_subgroup_title>
dock_pv

> <s_m_subgroupid>
dock_pv

> <b_m_subgroup_collapsed>
1

$$$$
CHEMBL2061_lig255
                    3D
 Schrodinger Suite 2021-1.
 44 45  0  0  1  0            999 V2000
   62.8282   46.3066   34.2330 C   0  0  0  0  0  0
   59.2627   46.0770   29.2406 C   0  0  0  0  0  0
   58.3721   45.5796   32.1894 C   0  0  0  0  0  0
   59.2396   45.6770   33.0439 C   0  0  0  0  0  0
   62.7251   47.0525   35.3837 C   0  0  0  0  0  0
   64.1923   45.6392   33.7998 C   0  0  0  0  0  0
   57.8580   45.7117   29.7003 C   0  0  0  0  0  0
   57.4584   45.5031   31.0481 C   0  0  0  0  0  0
   61.6436   46.0783   33.3947 C   0  0  0  0  0  0
   60.3998   45.8246   33.8622 C   0  0  0  0  0  0
   59.4638   46.6710   28.1820 O   0  0  0  0  0  0
   60.2802   45.6767   30.0477 O   0  0  0  0  0  0
   63.9082   47.2770   36.3092 C   0  0  0  0  0  0
   65.3379   45.9800   34.8034 C   0  0  0  0  0  0
   61.5183   47.9051   35.7772 C   0  0  0  0  0  0
   64.6024   46.1906   32.4139 C   0  0  0  0  0  0
   64.0925   44.0922   33.7798 C   0  0  0  0  0  0
   64.8189   46.0628   36.2381 C   0  0  0  0  0  0
   56.8606   45.6770   28.7171 C   0  0  0  0  0  0
   56.1002   45.3092   31.3390 C   0  0  0  0  0  0
   55.5300   45.4256   29.0158 C   0  0  0  0  0  0
   55.1429   45.2440   30.3337 C   0  0  0  0  0  0
   61.7827   46.1233   32.3242 H   0  0  0  0  0  0
   60.2544   45.7346   34.9266 H   0  0  0  0  0  0
   59.9227   45.2704   30.8407 H   0  0  0  0  0  0
   63.6080   47.4448   37.3380 H   0  0  0  0  0  0
   64.4080   48.2014   36.0234 H   0  0  0  0  0  0
   65.7944   46.9360   34.5390 H   0  0  0  0  0  0
   66.1617   45.2666   34.7449 H   0  0  0  0  0  0
   61.8402   48.8586   36.1970 H   0  0  0  0  0  0
   60.8694   48.1471   34.9390 H   0  0  0  0  0  0
   60.9299   47.3962   36.5390 H   0  0  0  0  0  0
   65.5923   45.8353   32.1238 H   0  0  0  0  0  0
   63.9193   45.8742   31.6255 H   0  0  0  0  0  0
   64.6352   47.2770   32.4083 H   0  0  0  0  0  0
   65.0790   43.6287   33.7342 H   0  0  0  0  0  0
   63.6080   43.6857   34.6647 H   0  0  0  0  0  0
   63.6080   43.7258   32.8803 H   0  0  0  0  0  0
   64.2736   45.1561   36.5057 H   0  0  0  0  0  0
   65.6080   46.1308   36.9708 H   0  0  0  0  0  0
   57.1122   45.8540   27.6891 H   0  0  0  0  0  0
   55.7630   45.2770   32.3633 H   0  0  0  0  0  0
   54.8080   45.3987   28.2167 H   0  0  0  0  0  0
   54.1053   45.0794   30.5765 H   0  0  0  0  0  0
  1  5  2  0  0  0
  1  6  1  0  0  0
  1  9  1  0  0  0
  2  7  1  0  0  0
  2 11  2  0  0  0
  2 12  1  0  0  0
  3  4  3  0  0  0
  3  8  1  0  0  0
  4 10  1  0  0  0
  5 13  1  0  0  0
  5 15  1  0  0  0
  6 14  1  0  0  0
  6 16  1  0  0  0
  6 17  1  0  0  0
  7  8  2  0  0  0
  7 19  1  0  0  0
  8 20  1  0  0  0
  9 10  2  0  0  0
  9 23  1  0  0  0
 10 24  1  0  0  0
 12 25  1  0  0  0
 13 18  1  0  0  0
 13 26  1  0  0  0
 13 27  1  0  0  0
 14 18  1  0  0  0
 14 28  1  0  0  0
 14 29  1  0  0  0
 15 30  1  0  0  0
 15 31  1  0  0  0
 15 32  1  0  0  0
 16 33  1  0  0  0
 16 34  1  0  0  0
 16 35  1  0  0  0
 17 36  1  0  0  0
 17 37  1  0  0  0
 17 38  1  0  0  0
 18 39  1  0  0  0
 18 40  1  0  0  0
 19 21  2  0  0  0
 19 41  1  0  0  0
 20 22  2  0  0  0
 20 42  1  0  0  0
 21 22  1  0  0  0
 21 43  1  0  0  0
 22 44  1  0  0  0
M  END
> <s_m_entry_id>
31261

> <s_m_entry_name>
dock_pv.474

> <s_m_Source_Path>
/home/csk/Desktop/cluster/DUD-E-result/rxra

> <s_m_Source_File>
dock_pv.maegz

> <i_m_Source_File_Index>
474

> <chembl_id>
CHEMBL147335

> <chembl_pref_name>
None

> <i_lp_mmshare_version>
53161

> <r_lp_tautomer_probability>
1

> <s_lp_Force_Field>
OPLS_2005

> <r_lp_Energy>
27.909219

> <b_lp_Chiralities_Consistent>
1

> <s_lp_Variant>
CHEMBL2061_lig255-1

> <s_i_glide_gridfile>
glide-grid_1mv9

> <i_i_glide_lignum>
297

> <i_i_glide_rotatable_bonds>
5

> <r_i_docking_score>
-8.04633986834658

> <r_i_glide_ligand_efficiency>
-0.365742721288481

> <r_i_glide_ligand_efficiency_sa>
-1.02482548889533

> <r_i_glide_ligand_efficiency_ln>
-1.96681896120178

> <r_i_glide_gscore>
-8.04633986834658

> <r_i_glide_lipo>
-4.91962275799853

> <r_i_glide_hbond>
0

> <r_i_glide_metal>
0

> <r_i_glide_rewards>
-2.61291674621916

> <r_i_glide_evdw>
-32.1163330078125

> <r_i_glide_ecoul>
1.6529084444046

> <r_i_glide_erotb>
0.844080019601054

> <r_i_glide_esite>
0

> <r_i_glide_emodel>
-31.5716091033676

> <r_i_glide_energy>
-30.4634245634079

> <r_i_glide_einternal>
5.25117969512939

> <i_i_glide_confnum>
8

> <i_i_glide_posenum>
202

> <r_i_glide_eff_state_penalty>
0

> <s_user_duplicate_titles>
CHEMBL2061_lig255

> <i_f3d_flags>
0

> <s_m_subgroup_title>
dock_pv

> <s_m_subgroupid>
dock_pv

> <b_m_subgroup_collapsed>
1

$$$$
CHEMBL2061_lig484
                    3D
 Schrodinger Suite 2021-1.
 42 45  0  0  1  0            999 V2000
   64.2620   46.7644   33.8895 C   0  0  0  0  0  0
   65.2610   46.4770   32.9604 C   0  0  0  0  0  0
   64.9245   46.2198   31.6318 C   0  0  0  0  0  0
   62.9223   46.7645   33.4994 C   0  0  0  0  0  0
   62.5695   46.4770   32.1737 C   0  0  0  0  0  0
   63.5812   46.2395   31.2267 C   0  0  0  0  0  0
   63.2522   45.9568   29.7651 C   0  0  0  0  0  0
   61.9120   46.0697   29.4459 N   0  0  0  0  0  0
   61.1692   46.3074   31.7320 C   0  0  0  0  0  0
   60.9172   46.0928   30.4181 C   0  0  0  0  0  0
   59.9567   46.0770   32.5107 C   0  0  0  0  0  0
   58.9309   45.6776   31.5121 C   0  0  0  0  0  0
   59.4623   45.8215   30.2351 C   0  0  0  0  0  0
   58.5945   45.6770   29.1406 C   0  0  0  0  0  0
   57.2583   45.3182   29.3390 C   0  0  0  0  0  0
   56.7679   45.1148   30.6257 C   0  0  0  0  0  0
   57.6073   45.3097   31.7195 C   0  0  0  0  0  0
   64.1254   45.6770   28.9390 O   0  0  0  0  0  0
   59.8811   46.0776   33.7390 O   0  0  0  0  0  0
   61.5625   46.1226   28.0117 C   0  0  0  0  0  0
   61.2425   47.5615   27.5350 C   0  0  0  0  0  0
   62.4709   48.4914   27.5682 C   0  0  0  0  0  0
   63.4639   47.9918   26.6285 N   0  0  2  0  0  0
   64.8080   48.4547   26.9106 C   0  0  0  0  0  0
   64.5250   46.9745   34.9159 H   0  0  0  0  0  0
   66.2970   46.4688   33.2664 H   0  0  0  0  0  0
   65.7159   46.0182   30.9220 H   0  0  0  0  0  0
   62.1659   46.9606   34.2438 H   0  0  0  0  0  0
   58.9027   45.8327   28.1217 H   0  0  0  0  0  0
   56.5976   45.2028   28.4932 H   0  0  0  0  0  0
   55.7322   44.8508   30.7769 H   0  0  0  0  0  0
   57.2083   45.2770   32.7204 H   0  0  0  0  0  0
   62.3892   45.7585   27.3993 H   0  0  0  0  0  0
   60.7842   45.4075   27.7765 H   0  0  0  0  0  0
   60.8407   47.5314   26.5225 H   0  0  0  0  0  0
   60.4459   47.9850   28.1479 H   0  0  0  0  0  0
   62.1994   49.5218   27.3390 H   0  0  0  0  0  0
   62.8848   48.4910   28.5770 H   0  0  0  0  0  0
   63.2055   48.1602   25.6644 H   0  0  0  0  0  0
   65.4786   48.0770   26.1391 H   0  0  0  0  0  0
   64.8807   49.5422   26.9397 H   0  0  0  0  0  0
   65.1595   48.0401   27.8525 H   0  0  0  0  0  0
  1  2  2  0  0  0
  1  4  1  0  0  0
  1 25  1  0  0  0
  2  3  1  0  0  0
  2 26  1  0  0  0
  3  6  2  0  0  0
  3 27  1  0  0  0
  4  5  2  0  0  0
  4 28  1  0  0  0
  5  6  1  0  0  0
  5  9  1  0  0  0
  6  7  1  0  0  0
  7  8  1  0  0  0
  7 18  2  0  0  0
  8 10  1  0  0  0
  8 20  1  0  0  0
  9 10  2  0  0  0
  9 11  1  0  0  0
 10 13  1  0  0  0
 11 12  1  0  0  0
 11 19  2  0  0  0
 12 13  2  0  0  0
 12 17  1  0  0  0
 13 14  1  0  0  0
 14 15  2  0  0  0
 14 29  1  0  0  0
 15 16  1  0  0  0
 15 30  1  0  0  0
 16 17  2  0  0  0
 16 31  1  0  0  0
 17 32  1  0  0  0
 20 21  1  0  0  0
 20 33  1  0  0  0
 20 34  1  0  0  0
 21 22  1  0  0  0
 21 35  1  0  0  0
 21 36  1  0  0  0
 22 23  1  0  0  0
 22 37  1  0  0  0
 22 38  1  0  0  0
 23 24  1  0  0  0
 23 39  1  0  0  0
 24 40  1  0  0  0
 24 41  1  0  0  0
 24 42  1  0  0  0
M  END
> <s_m_entry_id>
31262

> <s_m_entry_name>
dock_pv.475

> <s_m_Source_Path>
/home/csk/Desktop/cluster/DUD-E-result/rxra

> <s_m_Source_File>
dock_pv.maegz

> <i_m_Source_File_Index>
475

> <chembl_id>
CHEMBL2322955

> <chembl_pref_name>
None

> <i_lp_mmshare_version>
53161

> <r_lp_tautomer_probability>
1

> <s_lp_Force_Field>
OPLS_2005

> <r_lp_Energy>
50.928165

> <b_lp_Chiralities_Consistent>
1

> <s_lp_Variant>
CHEMBL2061_lig484-1

> <s_i_glide_gridfile>
glide-grid_1mv9

> <i_i_glide_lignum>
573

> <i_i_glide_rotatable_bonds>
4

> <r_i_docking_score>
-8.01738257508807

> <r_i_glide_ligand_efficiency>
-0.334057607295336

> <r_i_glide_ligand_efficiency_sa>
-0.963588880138461

> <r_i_glide_ligand_efficiency_ln>
-1.91892754393267

> <r_i_glide_gscore>
-8.01738257508807

> <r_i_glide_lipo>
-5.07449438634453

> <r_i_glide_hbond>
0

> <r_i_glide_metal>
0

> <r_i_glide_rewards>
-2.29525393249894

> <r_i_glide_evdw>
-23.4200496673584

> <r_i_glide_ecoul>
1.03659188747406

> <r_i_glide_erotb>
0.367879444002211

> <r_i_glide_esite>
0

> <r_i_glide_emodel>
-26.4719377246095

> <r_i_glide_energy>
-22.3834577798843

> <r_i_glide_einternal>
1.19027650356293

> <i_i_glide_confnum>
6

> <i_i_glide_posenum>
351

> <r_i_glide_eff_state_penalty>
0

> <s_user_duplicate_titles>
CHEMBL2061_lig484

> <i_f3d_flags>
0

> <s_m_subgroup_title>
dock_pv

> <s_m_subgroupid>
dock_pv

> <b_m_subgroup_collapsed>
1

$$$$
CHEMBL2061_lig541
                    3D
 Schrodinger Suite 2021-1.
 29 30  0  0  1  0            999 V2000
   61.7389   46.9568   33.6930 Cl  0  0  0  0  0  0
   61.0139   46.1786   30.9541 O   0  0  0  0  0  0
   54.0081   44.9094   30.4356 O   0  0  0  0  0  0
   54.1157   46.6931   29.0085 O   0  0  0  0  0  0
   62.3814   46.1272   31.1762 C   0  0  0  0  0  0
   58.9680   45.6841   29.7390 C   0  0  0  0  0  0
   56.1699   45.6753   29.7206 C   0  0  0  0  0  0
   62.8464   46.4773   32.4524 C   0  0  0  0  0  0
   60.4918   45.6787   29.7272 C   0  0  0  0  0  0
   58.2724   46.0770   28.5948 C   0  0  0  0  0  0
   58.2597   45.2774   30.8727 C   0  0  0  0  0  0
   56.8809   46.0686   28.5835 C   0  0  0  0  0  0
   56.8694   45.2623   30.8561 C   0  0  0  0  0  0
   63.3190   45.7287   30.2038 C   0  0  0  0  0  0
   54.6696   45.6809   29.7391 C   0  0  0  0  0  0
   64.2110   46.4360   32.7474 C   0  0  0  0  0  0
   64.6812   45.6821   30.5043 C   0  0  0  0  0  0
   65.1247   46.0392   31.7737 C   0  0  0  0  0  0
   54.8079   47.2303   28.6193 H   0  0  0  0  0  0
   60.8227   44.6507   29.5619 H   0  0  0  0  0  0
   60.8602   46.2906   28.9005 H   0  0  0  0  0  0
   58.8089   46.3786   27.7066 H   0  0  0  0  0  0
   58.7788   45.0018   31.7774 H   0  0  0  0  0  0
   56.3685   46.3575   27.6774 H   0  0  0  0  0  0
   56.3349   44.9558   31.7389 H   0  0  0  0  0  0
   63.0113   45.4526   29.2057 H   0  0  0  0  0  0
   64.5582   46.7099   33.7334 H   0  0  0  0  0  0
   65.3931   45.3787   29.7495 H   0  0  0  0  0  0
   66.1793   46.0100   32.0044 H   0  0  0  0  0  0
  1  8  1  0  0  0
  2  5  1  0  0  0
  2  9  1  0  0  0
  3 15  2  0  0  0
  4 15  1  0  0  0
  4 19  1  0  0  0
  5  8  1  0  0  0
  5 14  2  0  0  0
  6  9  1  0  0  0
  6 10  2  0  0  0
  6 11  1  0  0  0
  7 12  2  0  0  0
  7 13  1  0  0  0
  7 15  1  0  0  0
  8 16  2  0  0  0
  9 20  1  0  0  0
  9 21  1  0  0  0
 10 12  1  0  0  0
 10 22  1  0  0  0
 11 13  2  0  0  0
 11 23  1  0  0  0
 12 24  1  0  0  0
 13 25  1  0  0  0
 14 17  1  0  0  0
 14 26  1  0  0  0
 16 18  1  0  0  0
 16 27  1  0  0  0
 17 18  2  0  0  0
 17 28  1  0  0  0
 18 29  1  0  0  0
M  END
> <s_m_entry_id>
31263

> <s_m_entry_name>
dock_pv.476

> <s_m_Source_Path>
/home/csk/Desktop/cluster/DUD-E-result/rxra

> <s_m_Source_File>
dock_pv.maegz

> <i_m_Source_File_Index>
476

> <chembl_id>
CHEMBL1423704

> <chembl_pref_name>
None

> <i_lp_mmshare_version>
53161

> <r_lp_tautomer_probability>
1

> <s_lp_Force_Field>
OPLS_2005

> <r_lp_Energy>
18.368692

> <b_lp_Chiralities_Consistent>
1

> <s_lp_Variant>
CHEMBL2061_lig541-1

> <s_i_glide_gridfile>
glide-grid_1mv9

> <i_i_glide_lignum>
641

> <i_i_glide_rotatable_bonds>
5

> <r_i_docking_score>
-8.00288413068597

> <r_i_glide_ligand_efficiency>
-0.444604673926999

> <r_i_glide_ligand_efficiency_sa>
-1.16519387189662

> <r_i_glide_ligand_efficiency_ln>
-2.05710009960945

> <r_i_glide_gscore>
-8.00288413068597

> <r_i_glide_lipo>
-3.9392850254577

> <r_i_glide_hbond>
-0.376737225592393

> <r_i_glide_metal>
0

> <r_i_glide_rewards>
-2.50445021081628

> <r_i_glide_evdw>
-32.9160690307617

> <r_i_glide_ecoul>
-3.76814985275269

> <r_i_glide_erotb>
1.02861426063138

> <r_i_glide_esite>
0

> <r_i_glide_emodel>
-52.8106175784569

> <r_i_glide_energy>
-36.6842188835144

> <r_i_glide_einternal>
4.20242309570312

> <i_i_glide_confnum>
8

> <i_i_glide_posenum>
387

> <r_i_glide_eff_state_penalty>
0

> <s_user_duplicate_titles>
CHEMBL2061_lig541

> <i_f3d_flags>
0

> <s_m_subgroup_title>
dock_pv

> <s_m_subgroupid>
dock_pv

> <b_m_subgroup_collapsed>
1

$$$$
CHEMBL2061_lig579
                    3D
 Schrodinger Suite 2021-1.
 55 55  0  0  1  0            999 V2000
   62.4509   46.5858   32.3194 C   0  0  0  0  0  0
   63.4877   45.6772   32.1403 C   0  0  0  0  0  0
   63.7382   45.0918   30.9004 C   0  0  0  0  0  0
   63.0558   45.5689   29.7794 C   0  0  0  0  0  0
   62.0634   46.5262   29.9001 C   0  0  0  0  0  0
   61.7487   47.0157   31.1798 C   0  0  0  0  0  0
   62.0343   47.0253   33.7409 C   0  0  0  0  0  0
   62.8933   46.4216   34.8886 C   0  0  0  0  0  0
   60.5807   46.5574   33.9967 C   0  0  0  0  0  0
   62.1585   48.5537   33.8718 C   0  0  0  0  0  0
   64.6871   43.8957   30.8020 C   0  0  0  0  0  0
   64.2058   42.8773   29.7399 C   0  0  0  0  0  0
   64.6900   43.0723   32.1311 C   0  0  0  0  0  0
   66.0747   44.4767   30.4374 C   0  0  0  0  0  0
   61.4304   46.8985   28.7006 N   0  0  0  0  0  0
   60.2881   47.7934   28.6735 C   0  0  0  0  0  0
   58.9096   47.2322   28.9396 C   0  0  0  0  0  0
   58.6243   45.9468   29.2164 C   0  0  0  0  0  0
   57.3190   45.3986   29.5666 C   0  0  0  0  0  0
   56.1952   46.0426   29.1503 C   0  0  0  0  0  0
   57.3436   44.1694   30.4675 C   0  0  0  0  0  0
   54.8081   45.7648   29.4245 C   0  0  0  0  0  0
   54.5325   44.4735   29.7393 O   0  0  0  0  0  0
   53.9362   46.6256   29.3391 O   0  0  0  0  0  0
   64.0512   45.3445   32.9930 H   0  0  0  0  0  0
   63.2778   45.1906   28.7953 H   0  0  0  0  0  0
   60.9449   47.7154   31.3159 H   0  0  0  0  0  0
   63.9425   46.7114   34.8096 H   0  0  0  0  0  0
   62.5493   46.7642   35.8651 H   0  0  0  0  0  0
   62.8509   45.3320   34.9044 H   0  0  0  0  0  0
   59.8997   46.8749   33.2116 H   0  0  0  0  0  0
   60.5104   45.4706   34.0457 H   0  0  0  0  0  0
   60.1966   46.9480   34.9384 H   0  0  0  0  0  0
   61.7649   49.0994   33.0141 H   0  0  0  0  0  0
   61.6295   48.8769   34.7656 H   0  0  0  0  0  0
   63.1975   48.8665   33.9795 H   0  0  0  0  0  0
   64.0079   43.2797   28.7492 H   0  0  0  0  0  0
   64.9482   42.0842   29.6263 H   0  0  0  0  0  0
   63.2711   42.4088   30.0493 H   0  0  0  0  0  0
   65.2335   43.5624   32.9365 H   0  0  0  0  0  0
   63.6735   42.8993   32.4910 H   0  0  0  0  0  0
   65.1151   42.0771   32.0143 H   0  0  0  0  0  0
   66.5074   45.0287   31.2725 H   0  0  0  0  0  0
   66.7912   43.7171   30.1389 H   0  0  0  0  0  0
   66.0058   45.1713   29.5983 H   0  0  0  0  0  0
   61.5446   46.2770   27.9137 H   0  0  0  0  0  0
   60.2900   48.3322   27.7254 H   0  0  0  0  0  0
   60.4724   48.4781   29.4788 H   0  0  0  0  0  0
   58.1277   47.9739   28.9390 H   0  0  0  0  0  0
   59.4646   45.2769   29.2167 H   0  0  0  0  0  0
   56.2811   46.9202   28.5386 H   0  0  0  0  0  0
   58.1278   44.2986   31.2139 H   0  0  0  0  0  0
   56.4447   44.0169   31.0544 H   0  0  0  0  0  0
   57.6081   43.2775   29.8971 H   0  0  0  0  0  0
   55.3155   43.9334   29.6118 H   0  0  0  0  0  0
  1  6  1  0  0  0
  1  2  2  0  0  0
  1  7  1  0  0  0
  2  3  1  0  0  0
  2 25  1  0  0  0
  3  4  2  0  0  0
  3 11  1  0  0  0
  4  5  1  0  0  0
  4 26  1  0  0  0
  5 15  1  0  0  0
  5  6  2  0  0  0
  6 27  1  0  0  0
  7  8  1  0  0  0
  7  9  1  0  0  0
  7 10  1  0  0  0
  8 28  1  0  0  0
  8 29  1  0  0  0
  8 30  1  0  0  0
  9 31  1  0  0  0
  9 32  1  0  0  0
  9 33  1  0  0  0
 10 34  1  0  0  0
 10 35  1  0  0  0
 10 36  1  0  0  0
 11 12  1  0  0  0
 11 13  1  0  0  0
 11 14  1  0  0  0
 12 37  1  0  0  0
 12 38  1  0  0  0
 12 39  1  0  0  0
 13 40  1  0  0  0
 13 41  1  0  0  0
 13 42  1  0  0  0
 14 43  1  0  0  0
 14 44  1  0  0  0
 14 45  1  0  0  0
 15 16  1  0  0  0
 15 46  1  0  0  0
 16 17  1  0  0  0
 16 47  1  0  0  0
 16 48  1  0  0  0
 17 18  2  0  0  0
 17 49  1  0  0  0
 18 19  1  0  0  0
 18 50  1  0  0  0
 19 20  2  0  0  0
 19 21  1  0  0  0
 20 22  1  0  0  0
 20 51  1  0  0  0
 21 52  1  0  0  0
 21 53  1  0  0  0
 21 54  1  0  0  0
 22 23  1  0  0  0
 22 24  2  0  0  0
 23 55  1  0  0  0
M  END
> <s_m_entry_id>
31264

> <s_m_entry_name>
dock_pv.477

> <s_m_Source_Path>
/home/csk/Desktop/cluster/DUD-E-result/rxra

> <s_m_Source_File>
dock_pv.maegz

> <i_m_Source_File_Index>
477

> <chembl_id>
CHEMBL208349

> <chembl_pref_name>
None

> <i_lp_mmshare_version>
53161

> <r_lp_tautomer_probability>
1

> <s_lp_Force_Field>
OPLS_2005

> <r_lp_Energy>
22.137074

> <b_lp_Chiralities_Consistent>
1

> <s_lp_Variant>
CHEMBL2061_lig579-1

> <s_i_glide_gridfile>
glide-grid_1mv9

> <i_i_glide_lignum>
710

> <i_i_glide_rotatable_bonds>
8

> <r_i_docking_score>
-7.9751163412962

> <r_i_glide_ligand_efficiency>
-0.332296514220675

> <r_i_glide_ligand_efficiency_sa>
-0.958509008683439

> <r_i_glide_ligand_efficiency_ln>
-1.90881129471519

> <r_i_glide_gscore>
-7.9751163412962

> <r_i_glide_lipo>
-4.71820566108073

> <r_i_glide_hbond>
-0.135061805328795

> <r_i_glide_metal>
0

> <r_i_glide_rewards>
-1.75377047749198

> <r_i_glide_evdw>
-34.0965232849121

> <r_i_glide_ecoul>
-3.52641725540161

> <r_i_glide_erotb>
0.865710355161147

> <r_i_glide_esite>
0

> <r_i_glide_emodel>
-40.7641887369385

> <r_i_glide_energy>
-37.6229405403137

> <r_i_glide_einternal>
7.40771532058716

> <i_i_glide_confnum>
91

> <i_i_glide_posenum>
243

> <r_i_glide_eff_state_penalty>
0

> <s_user_duplicate_titles>
CHEMBL2061_lig579,345649

> <i_f3d_flags>
0

> <s_m_subgroup_title>
dock_pv

> <s_m_subgroupid>
dock_pv

> <b_m_subgroup_collapsed>
1

$$$$
CHEMBL2061_lig540 
                    3D
 Schrodinger Suite 2021-1.
 32 33  0  0  1  0            999 V2000
   58.9723   45.6892   29.7391 C   0  0  0  0  0  0
   58.2746   46.0778   28.5972 C   0  0  0  0  0  0
   56.8849   46.0627   28.5835 C   0  0  0  0  0  0
   56.1770   45.6707   29.7233 C   0  0  0  0  0  0
   56.8758   45.2592   30.8570 C   0  0  0  0  0  0
   58.2662   45.2792   30.8734 C   0  0  0  0  0  0
   54.6780   45.6803   29.7421 C   0  0  0  0  0  0
   54.1315   46.6993   29.0187 O   0  0  0  0  0  0
   54.0156   44.9129   30.4419 O   0  0  0  0  0  0
   60.4968   45.6774   29.7085 C   0  0  0  0  0  0
   61.0451   46.1276   30.9456 O   0  0  0  0  0  0
   62.4180   46.0899   31.1331 C   0  0  0  0  0  0
   62.9130   46.4296   32.4033 C   0  0  0  0  0  0
   64.2868   46.3855   32.6597 C   0  0  0  0  0  0
   65.1781   46.0093   31.6592 C   0  0  0  0  0  0
   64.7027   45.6771   30.3952 C   0  0  0  0  0  0
   63.3351   45.7191   30.1308 C   0  0  0  0  0  0
   61.9622   46.8221   33.5206 C   0  0  0  0  0  0
   58.8083   46.3752   27.7069 H   0  0  0  0  0  0
   56.3697   46.3391   27.6757 H   0  0  0  0  0  0
   56.3400   44.9600   31.7390 H   0  0  0  0  0  0
   58.7816   45.0127   31.7818 H   0  0  0  0  0  0
   54.8274   47.2501   28.6570 H   0  0  0  0  0  0
   60.8118   44.6529   29.5002 H   0  0  0  0  0  0
   60.8598   46.3194   28.9021 H   0  0  0  0  0  0
   64.6698   46.6433   33.6356 H   0  0  0  0  0  0
   66.2389   45.9781   31.8620 H   0  0  0  0  0  0
   65.3967   45.3911   29.6175 H   0  0  0  0  0  0
   63.0064   45.4542   29.1380 H   0  0  0  0  0  0
   62.4820   47.0887   34.4429 H   0  0  0  0  0  0
   61.3666   47.6760   33.2013 H   0  0  0  0  0  0
   61.2664   46.0088   33.7324 H   0  0  0  0  0  0
  1  2  2  0  0  0
  1  6  1  0  0  0
  1 10  1  0  0  0
  2  3  1  0  0  0
  2 19  1  0  0  0
  3  4  2  0  0  0
  3 20  1  0  0  0
  4  5  1  0  0  0
  4  7  1  0  0  0
  5  6  2  0  0  0
  5 21  1  0  0  0
  6 22  1  0  0  0
  7  8  1  0  0  0
  7  9  2  0  0  0
  8 23  1  0  0  0
 10 11  1  0  0  0
 10 24  1  0  0  0
 10 25  1  0  0  0
 11 12  1  0  0  0
 12 13  2  0  0  0
 12 17  1  0  0  0
 13 14  1  0  0  0
 13 18  1  0  0  0
 14 15  2  0  0  0
 14 26  1  0  0  0
 15 16  1  0  0  0
 15 27  1  0  0  0
 16 17  2  0  0  0
 16 28  1  0  0  0
 17 29  1  0  0  0
 18 30  1  0  0  0
 18 31  1  0  0  0
 18 32  1  0  0  0
M  END
> <s_m_entry_id>
31265

> <s_m_entry_name>
dock_pv.478

> <s_m_Source_Path>
/home/csk/Desktop/cluster/DUD-E-result/rxra

> <s_m_Source_File>
dock_pv.maegz

> <i_m_Source_File_Index>
478

> <chembl_id>
CHEMBL4582833

> <chembl_pref_name>
None

> <i_lp_mmshare_version>
53161

> <r_lp_tautomer_probability>
1

> <s_lp_Force_Field>
OPLS_2005

> <r_lp_Energy>
17.019444

> <b_lp_Chiralities_Consistent>
1

> <s_lp_Variant>
CHEMBL2061_lig540 -1

> <s_i_glide_gridfile>
glide-grid_1mv9

> <i_i_glide_lignum>
640

> <i_i_glide_rotatable_bonds>
5

> <r_i_docking_score>
-7.96754530714122

> <r_i_glide_ligand_efficiency>
-0.44264140595229

> <r_i_glide_ligand_efficiency_sa>
-1.16004865425233

> <r_i_glide_ligand_efficiency_ln>
-2.04801643723887

> <r_i_glide_gscore>
-7.96754530714122

> <r_i_glide_lipo>
-3.93202469143811

> <r_i_glide_hbond>
-0.373965090083211

> <r_i_glide_metal>
0

> <r_i_glide_rewards>
-2.70940770011969

> <r_i_glide_evdw>
-32.1199798583984

> <r_i_glide_ecoul>
-3.51991367340088

> <r_i_glide_erotb>
1.18183821842985

> <r_i_glide_esite>
0

> <r_i_glide_emodel>
-51.0565715253015

> <r_i_glide_energy>
-35.6398935317993

> <r_i_glide_einternal>
4.10797500610352

> <i_i_glide_confnum>
9

> <i_i_glide_posenum>
379

> <r_i_glide_eff_state_penalty>
0

> <s_user_duplicate_titles>
CHEMBL2061_lig540 

> <i_f3d_flags>
0

> <s_m_subgroup_title>
dock_pv

> <s_m_subgroupid>
dock_pv

> <b_m_subgroup_collapsed>
1

$$$$
CHEMBL2061_lig523 
                    3D
 Schrodinger Suite 2021-1.
 34 35  0  0  1  0            999 V2000
   63.7522   46.3301   32.2181 C   0  0  0  0  0  0
   62.6533   46.8477   32.9089 C   0  0  0  0  0  0
   61.3837   46.7530   32.3302 C   0  0  0  0  0  0
   61.1844   46.1555   31.0780 C   0  0  0  0  0  0
   62.3068   45.6770   30.3963 C   0  0  0  0  0  0
   63.5825   45.7324   30.9663 C   0  0  0  0  0  0
   59.8095   45.9710   30.5223 C   0  0  0  0  0  0
   58.7254   45.6770   31.3631 C   0  0  0  0  0  0
   57.4175   45.6028   30.8792 C   0  0  0  0  0  0
   57.1740   45.6770   29.4997 C   0  0  0  0  0  0
   58.2664   45.9383   28.6550 C   0  0  0  0  0  0
   59.5547   46.0989   29.1569 C   0  0  0  0  0  0
   55.7844   45.4821   28.9336 C   0  0  0  0  0  0
   64.7482   45.0977   30.2253 C   0  0  0  0  0  0
   64.8080   45.6246   29.0020 F   0  0  0  0  0  0
   65.9189   45.2770   30.8405 F   0  0  0  0  0  0
   62.8204   47.4862   34.2858 C   0  0  0  0  0  0
   61.8195   47.1373   35.0967 F   0  0  0  0  0  0
   63.9688   47.1376   34.8694 F   0  0  0  0  0  0
   62.8080   48.8077   34.1390 F   0  0  0  0  0  0
   54.8758   44.8770   29.5004 O   0  0  0  0  0  0
   55.6080   46.0770   27.7390 O   0  0  0  0  0  0
   56.2758   45.6150   31.8836 C   0  0  0  0  0  0
   64.5253   43.7863   30.1390 F   0  0  0  0  0  0
   64.7368   46.3819   32.6615 H   0  0  0  0  0  0
   60.5343   47.1275   32.8788 H   0  0  0  0  0  0
   62.1822   45.1877   29.4404 H   0  0  0  0  0  0
   58.8857   45.6084   32.4291 H   0  0  0  0  0  0
   58.1581   46.0019   27.5869 H   0  0  0  0  0  0
   60.3588   46.3178   28.4694 H   0  0  0  0  0  0
   56.4028   46.5367   27.4702 H   0  0  0  0  0  0
   56.6266   45.6770   32.9136 H   0  0  0  0  0  0
   55.6234   46.4675   31.7050 H   0  0  0  0  0  0
   55.6595   44.7291   31.7390 H   0  0  0  0  0  0
  1  2  2  0  0  0
  1  6  1  0  0  0
  1 25  1  0  0  0
  2  3  1  0  0  0
  2 17  1  0  0  0
  3  4  2  0  0  0
  3 26  1  0  0  0
  4  5  1  0  0  0
  4  7  1  0  0  0
  5  6  2  0  0  0
  5 27  1  0  0  0
  6 14  1  0  0  0
  7  8  2  0  0  0
  7 12  1  0  0  0
  8  9  1  0  0  0
  8 28  1  0  0  0
  9 10  2  0  0  0
  9 23  1  0  0  0
 10 11  1  0  0  0
 10 13  1  0  0  0
 11 12  2  0  0  0
 11 29  1  0  0  0
 12 30  1  0  0  0
 13 21  2  0  0  0
 13 22  1  0  0  0
 14 15  1  0  0  0
 14 16  1  0  0  0
 14 24  1  0  0  0
 17 18  1  0  0  0
 17 19  1  0  0  0
 17 20  1  0  0  0
 22 31  1  0  0  0
 23 32  1  0  0  0
 23 33  1  0  0  0
 23 34  1  0  0  0
M  END
> <s_m_entry_id>
31267

> <s_m_entry_name>
dock_pv.480

> <s_m_Source_Path>
/home/csk/Desktop/cluster/DUD-E-result/rxra

> <s_m_Source_File>
dock_pv.maegz

> <i_m_Source_File_Index>
480

> <chembl_id>
CHEMBL4517482

> <chembl_pref_name>
None

> <i_lp_mmshare_version>
53161

> <r_lp_tautomer_probability>
1

> <s_lp_Force_Field>
OPLS_2005

> <r_lp_Energy>
17.099241

> <b_lp_Chiralities_Consistent>
1

> <s_lp_Variant>
CHEMBL2061_lig523 -1

> <s_i_glide_gridfile>
glide-grid_1mv9

> <i_i_glide_lignum>
623

> <i_i_glide_rotatable_bonds>
5

> <r_i_docking_score>
-7.89637600096031

> <r_i_glide_ligand_efficiency>
-0.32901566670668

> <r_i_glide_ligand_efficiency_sa>
-0.949045406858856

> <r_i_glide_ligand_efficiency_ln>
-1.88996511811403

> <r_i_glide_gscore>
-7.89637600096031

> <r_i_glide_lipo>
-3.47500931587427

> <r_i_glide_hbond>
0

> <r_i_glide_metal>
0

> <r_i_glide_rewards>
-3.43320847024084

> <r_i_glide_evdw>
-24.9768085479736

> <r_i_glide_ecoul>
-0.354861885309219

> <r_i_glide_erotb>
0.313911495349865

> <r_i_glide_esite>
0

> <r_i_glide_emodel>
-29.4244056694514

> <r_i_glide_energy>
-25.3316704332829

> <r_i_glide_einternal>
2.95492339134216

> <i_i_glide_confnum>
3

> <i_i_glide_posenum>
231

> <r_i_glide_eff_state_penalty>
0

> <s_user_duplicate_titles>
CHEMBL2061_lig523 

> <i_f3d_flags>
0

> <s_m_subgroup_title>
dock_pv

> <s_m_subgroupid>
dock_pv

> <b_m_subgroup_collapsed>
1

$$$$
CHEMBL2061_lig98
                    3D
 Schrodinger Suite 2021-1.
 59 60  0  0  1  0            999 V2000
   63.7007   46.3528   33.2485 C   0  0  0  0  0  0
   62.4321   46.9462   33.0881 C   0  0  0  0  0  0
   64.4479   45.9819   32.1145 C   0  0  0  0  0  0
   62.6030   46.7192   30.7020 C   0  0  0  0  0  0
   61.9068   47.1281   31.8235 C   0  0  0  0  0  0
   63.8532   46.1397   30.8555 C   0  0  0  0  0  0
   62.0390   46.9728   29.3746 C   0  0  0  0  0  0
   64.2191   46.1302   34.5014 O   0  0  0  0  0  0
   61.6453   47.4414   34.2194 C   0  0  0  0  0  0
   57.9128   45.2776   31.2617 C   0  0  0  0  0  0
   57.1529   44.8624   30.1333 C   0  0  0  0  0  0
   59.5528   46.1457   33.6632 C   0  0  0  0  0  0
   62.8498   47.4164   28.3319 C   0  0  0  0  0  0
   60.6731   46.8129   29.1556 C   0  0  0  0  0  0
   57.3628   45.7932   32.3670 C   0  0  0  0  0  0
   60.3760   47.0594   34.4743 C   0  0  0  0  0  0
   60.1143   47.1292   27.9359 C   0  0  0  0  0  0
   62.2886   47.7752   27.1233 C   0  0  0  0  0  0
   60.9106   47.6749   26.9355 C   0  0  0  0  0  0
   58.2568   46.4063   33.3390 C   0  0  0  0  0  0
   56.2281   45.4703   29.5981 O   0  0  0  0  0  0
   65.9057   45.4788   32.2034 C   0  0  0  0  0  0
   63.9063   44.1959   35.8884 C   0  0  0  0  0  0
   63.3465   45.4928   35.4362 C   0  0  0  0  0  0
   58.8096   46.8764   27.7390 F   0  0  0  0  0  0
   63.1072   48.1915   26.1390 F   0  0  0  0  0  0
   57.6078   43.6771   29.7390 O   0  0  0  0  0  0
   63.2092   43.7298   36.9392 F   0  0  0  0  0  0
   64.0079   43.2612   34.9481 F   0  0  0  0  0  0
   62.3578   48.4768   35.0702 C   0  0  0  0  0  0
   55.8409   45.9301   32.5390 C   0  0  0  0  0  0
   66.4088   44.8770   30.8812 C   0  0  0  0  0  0
   66.2026   44.4721   33.3164 C   0  0  0  0  0  0
   60.9540   47.6246   31.7163 H   0  0  0  0  0  0
   64.3569   45.8533   29.9477 H   0  0  0  0  0  0
   58.9773   45.1956   31.1542 H   0  0  0  0  0  0
   60.0399   45.2772   33.2685 H   0  0  0  0  0  0
   63.9169   47.5197   28.4486 H   0  0  0  0  0  0
   60.0323   46.4484   29.9347 H   0  0  0  0  0  0
   60.0094   47.5470   35.3477 H   0  0  0  0  0  0
   60.4742   47.9646   25.9937 H   0  0  0  0  0  0
   57.7678   47.2764   33.7362 H   0  0  0  0  0  0
   66.5038   46.3664   32.4159 H   0  0  0  0  0  0
   64.9122   44.4771   36.1390 H   0  0  0  0  0  0
   63.2370   46.1328   36.3080 H   0  0  0  0  0  0
   62.3583   45.2771   35.0659 H   0  0  0  0  0  0
   58.3728   43.3426   30.2132 H   0  0  0  0  0  0
   63.2471   48.1169   35.5757 H   0  0  0  0  0  0
   62.7020   49.2766   34.4121 H   0  0  0  0  0  0
   61.7017   48.8760   35.8446 H   0  0  0  0  0  0
   55.6053   46.4768   33.4520 H   0  0  0  0  0  0
   55.4713   46.4770   31.6864 H   0  0  0  0  0  0
   55.2219   45.0281   32.4650 H   0  0  0  0  0  0
   66.4167   45.6523   30.1389 H   0  0  0  0  0  0
   67.4156   44.4766   30.9230 H   0  0  0  0  0  0
   65.7589   44.0770   30.5262 H   0  0  0  0  0  0
   66.1897   44.9043   34.3133 H   0  0  0  0  0  0
   65.5366   43.6153   33.2612 H   0  0  0  0  0  0
   67.2064   44.0933   33.1952 H   0  0  0  0  0  0
  1  2  1  0  0  0
  1  3  2  0  0  0
  1  8  1  0  0  0
  2  5  2  0  0  0
  2  9  1  0  0  0
  3  6  1  0  0  0
  3 22  1  0  0  0
  4  6  2  0  0  0
  4  7  1  0  0  0
  4  5  1  0  0  0
  5 34  1  0  0  0
  6 35  1  0  0  0
  7 13  1  0  0  0
  7 14  2  0  0  0
  8 24  1  0  0  0
  9 16  2  0  0  0
  9 30  1  0  0  0
 10 15  2  0  0  0
 10 11  1  0  0  0
 10 36  1  0  0  0
 11 21  2  0  0  0
 11 27  1  0  0  0
 12 16  1  0  0  0
 12 20  2  0  0  0
 12 37  1  0  0  0
 13 18  2  0  0  0
 13 38  1  0  0  0
 14 17  1  0  0  0
 14 39  1  0  0  0
 15 20  1  0  0  0
 15 31  1  0  0  0
 16 40  1  0  0  0
 17 19  2  0  0  0
 17 25  1  0  0  0
 18 26  1  0  0  0
 18 19  1  0  0  0
 19 41  1  0  0  0
 20 42  1  0  0  0
 22 32  1  0  0  0
 22 33  1  0  0  0
 22 43  1  0  0  0
 23 24  1  0  0  0
 23 28  1  0  0  0
 23 29  1  0  0  0
 23 44  1  0  0  0
 24 45  1  0  0  0
 24 46  1  0  0  0
 27 47  1  0  0  0
 30 48  1  0  0  0
 30 49  1  0  0  0
 30 50  1  0  0  0
 31 51  1  0  0  0
 31 52  1  0  0  0
 31 53  1  0  0  0
 32 54  1  0  0  0
 32 55  1  0  0  0
 32 56  1  0  0  0
 33 57  1  0  0  0
 33 58  1  0  0  0
 33 59  1  0  0  0
M  END
> <s_m_entry_id>
31268

> <s_m_entry_name>
dock_pv.481

> <s_m_Source_Path>
/home/csk/Desktop/cluster/DUD-E-result/rxra

> <s_m_Source_File>
dock_pv.maegz

> <i_m_Source_File_Index>
481

> <chembl_id>
CHEMBL337393

> <chembl_pref_name>
None

> <i_lp_mmshare_version>
53161

> <r_lp_tautomer_probability>
1

> <s_lp_Force_Field>
OPLS_2005

> <r_lp_Energy>
32.469956

> <b_lp_Chiralities_Consistent>
1

> <s_lp_Variant>
CHEMBL2061_lig98-1

> <s_i_glide_gridfile>
glide-grid_1mv9

> <i_i_glide_lignum>
137

> <i_i_glide_rotatable_bonds>
10

> <r_i_docking_score>
-7.87980883759593

> <r_i_glide_ligand_efficiency>
-0.238782085987755

> <r_i_glide_ligand_efficiency_sa>
-0.76590173730108

> <r_i_glide_ligand_efficiency_ln>
-1.75242868601471

> <r_i_glide_gscore>
-7.87980883759593

> <r_i_glide_lipo>
-5.88989708444712

> <r_i_glide_hbond>
0

> <r_i_glide_metal>
0

> <r_i_glide_rewards>
-2.29390315360281

> <r_i_glide_evdw>
0.435519188642502

> <r_i_glide_ecoul>
-2.51376628875732

> <r_i_glide_erotb>
0.659280384335476

> <r_i_glide_esite>
0

> <r_i_glide_emodel>
-27.0046580113283

> <r_i_glide_energy>
-2.07824710011482

> <r_i_glide_einternal>
28.5913124084473

> <i_i_glide_confnum>
134

> <i_i_glide_posenum>
39

> <r_i_glide_eff_state_penalty>
0

> <s_user_duplicate_titles>
CHEMBL2061_lig98,217364

> <i_f3d_flags>
0

> <s_m_subgroup_title>
dock_pv

> <s_m_subgroupid>
dock_pv

> <b_m_subgroup_collapsed>
1

$$$$
CHEMBL2061_lig483
                    3D
 Schrodinger Suite 2021-1.
 45 48  0  0  1  0            999 V2000
   56.2249   45.6770   28.8263 C   0  0  0  0  0  0
   55.7065   45.3906   30.0845 C   0  0  0  0  0  0
   56.5476   45.4034   31.1950 C   0  0  0  0  0  0
   57.5814   45.9637   28.6865 C   0  0  0  0  0  0
   58.4424   45.9473   29.7855 C   0  0  0  0  0  0
   57.9174   45.6770   31.0544 C   0  0  0  0  0  0
   58.8080   45.6770   32.2920 C   0  0  0  0  0  0
   60.1209   46.0770   32.0908 N   0  0  0  0  0  0
   58.4080   45.2833   33.3784 O   0  0  0  0  0  0
   60.9977   46.0423   33.2972 C   0  0  0  0  0  0
   61.2080   47.2920   34.1512 C   0  0  0  0  0  0
   62.1126   47.0282   35.3793 C   0  0  0  0  0  0
   63.4645   46.5795   35.0224 N   0  0  0  0  0  0
   59.8946   46.1750   29.6746 C   0  0  0  0  0  0
   60.6519   46.1887   30.8013 C   0  0  0  0  0  0
   60.7271   46.3506   28.4997 C   0  0  0  0  0  0
   62.0855   46.2766   29.0055 C   0  0  0  0  0  0
   62.0823   46.2375   30.3962 C   0  0  0  0  0  0
   63.3239   46.2016   31.0577 C   0  0  0  0  0  0
   64.5033   46.0770   30.3290 C   0  0  0  0  0  0
   64.4652   46.0770   28.9390 C   0  0  0  0  0  0
   63.2598   46.2250   28.2661 C   0  0  0  0  0  0
   60.3397   46.4770   27.3390 O   0  0  0  0  0  0
   64.2679   47.6687   34.4739 C   0  0  0  0  0  0
   64.1561   46.0329   36.1872 C   0  0  0  0  0  0
   55.5825   45.6750   27.9581 H   0  0  0  0  0  0
   54.6546   45.1810   30.2010 H   0  0  0  0  0  0
   56.1132   45.2770   32.1724 H   0  0  0  0  0  0
   57.9683   46.1758   27.7103 H   0  0  0  0  0  0
   60.6493   45.2770   33.9890 H   0  0  0  0  0  0
   61.9691   45.6770   33.0485 H   0  0  0  0  0  0
   61.6080   48.1091   33.5527 H   0  0  0  0  0  0
   60.2470   47.6080   34.5480 H   0  0  0  0  0  0
   62.1562   47.9116   36.0201 H   0  0  0  0  0  0
   61.6375   46.2442   35.9728 H   0  0  0  0  0  0
   63.4657   46.2408   32.1201 H   0  0  0  0  0  0
   65.4532   46.0116   30.8397 H   0  0  0  0  0  0
   65.3865   46.0081   28.3818 H   0  0  0  0  0  0
   63.2435   46.2522   27.1855 H   0  0  0  0  0  0
   65.2615   47.3167   34.1920 H   0  0  0  0  0  0
   63.8090   48.0770   33.5761 H   0  0  0  0  0  0
   64.3874   48.4770   35.1958 H   0  0  0  0  0  0
   65.1469   45.6670   35.9128 H   0  0  0  0  0  0
   64.2800   46.7815   36.9714 H   0  0  0  0  0  0
   63.6076   45.1870   36.6036 H   0  0  0  0  0  0
  1  2  2  0  0  0
  1  4  1  0  0  0
  1 26  1  0  0  0
  2  3  1  0  0  0
  2 27  1  0  0  0
  3  6  2  0  0  0
  3 28  1  0  0  0
  4  5  2  0  0  0
  4 29  1  0  0  0
  5 14  1  0  0  0
  5  6  1  0  0  0
  6  7  1  0  0  0
  7  8  1  0  0  0
  7  9  2  0  0  0
  8 15  1  0  0  0
  8 10  1  0  0  0
 10 11  1  0  0  0
 10 30  1  0  0  0
 10 31  1  0  0  0
 11 12  1  0  0  0
 11 32  1  0  0  0
 11 33  1  0  0  0
 12 13  1  0  0  0
 12 34  1  0  0  0
 12 35  1  0  0  0
 13 24  1  0  0  0
 13 25  1  0  0  0
 14 15  2  0  0  0
 14 16  1  0  0  0
 15 18  1  0  0  0
 16 17  1  0  0  0
 16 23  2  0  0  0
 17 18  2  0  0  0
 17 22  1  0  0  0
 18 19  1  0  0  0
 19 20  2  0  0  0
 19 36  1  0  0  0
 20 21  1  0  0  0
 20 37  1  0  0  0
 21 22  2  0  0  0
 21 38  1  0  0  0
 22 39  1  0  0  0
 24 40  1  0  0  0
 24 41  1  0  0  0
 24 42  1  0  0  0
 25 43  1  0  0  0
 25 44  1  0  0  0
 25 45  1  0  0  0
M  END
> <s_m_entry_id>
31269

> <s_m_entry_name>
dock_pv.482

> <s_m_Source_Path>
/home/csk/Desktop/cluster/DUD-E-result/rxra

> <s_m_Source_File>
dock_pv.maegz

> <i_m_Source_File_Index>
482

> <chembl_id>
CHEMBL425544

> <chembl_pref_name>
None

> <i_lp_mmshare_version>
53161

> <r_lp_tautomer_probability>
1

> <s_lp_Force_Field>
OPLS_2005

> <r_lp_Energy>
51.146128

> <b_lp_Chiralities_Consistent>
1

> <s_lp_Variant>
CHEMBL2061_lig483-1

> <s_i_glide_gridfile>
glide-grid_1mv9

> <i_i_glide_lignum>
572

> <i_i_glide_rotatable_bonds>
4

> <r_i_docking_score>
-7.82179676891344

> <r_i_glide_ligand_efficiency>
-0.312871870756537

> <r_i_glide_ligand_efficiency_sa>
-0.91484289889837

> <r_i_glide_ligand_efficiency_ln>
-1.8540002345667

> <r_i_glide_gscore>
-7.82179676891344

> <r_i_glide_lipo>
-4.88521751553994

> <r_i_glide_hbond>
0

> <r_i_glide_metal>
0

> <r_i_glide_rewards>
-2.18830853740767

> <r_i_glide_evdw>
-21.1986083984375

> <r_i_glide_ecoul>
-0.195104420185089

> <r_i_glide_erotb>
0.340925366983811

> <r_i_glide_esite>
0

> <r_i_glide_emodel>
-31.4160029637019

> <r_i_glide_energy>
-21.3937128186226

> <r_i_glide_einternal>
1.13713800907135

> <i_i_glide_confnum>
3

> <i_i_glide_posenum>
365

> <r_i_glide_eff_state_penalty>
0

> <s_user_duplicate_titles>
CHEMBL2061_lig483

> <i_f3d_flags>
0

> <s_m_subgroup_title>
dock_pv

> <s_m_subgroupid>
dock_pv

> <b_m_subgroup_collapsed>
1

$$$$
CHEMBL2061_lig70
                    3D
 Schrodinger Suite 2021-1.
 34 36  0  0  1  0            999 V2000
   60.7789   46.4775   29.3177 C   0  0  0  0  0  0
   62.2161   46.8948   29.2711 C   0  0  0  0  0  0
   62.2111   46.5445   31.6912 C   0  0  0  0  0  0
   62.8672   46.8748   30.5639 C   0  0  0  0  0  0
   60.2182   46.0770   30.5389 C   0  0  0  0  0  0
   60.9226   46.1242   31.7184 O   0  0  0  0  0  0
   59.9489   46.4778   28.1914 C   0  0  0  0  0  0
   58.0897   45.6744   29.5136 C   0  0  0  0  0  0
   62.8077   46.5024   33.0358 C   0  0  0  0  0  0
   58.8897   45.6770   30.6405 C   0  0  0  0  0  0
   56.7869   45.2762   29.5958 O   0  0  0  0  0  0
   58.6208   46.0770   28.2987 C   0  0  0  0  0  0
   64.1267   46.0768   33.2394 C   0  0  0  0  0  0
   64.6876   46.0516   34.5273 C   0  0  0  0  0  0
   62.7771   47.2416   28.2320 O   0  0  0  0  0  0
   63.9048   46.4758   35.6071 C   0  0  0  0  0  0
   62.0558   46.9328   34.1315 C   0  0  0  0  0  0
   62.6037   46.9304   35.4064 C   0  0  0  0  0  0
   60.4080   46.8783   26.9684 O   0  0  0  0  0  0
   64.4080   46.4402   36.8791 O   0  0  0  0  0  0
   65.9748   45.6309   34.8051 O   0  0  0  0  0  0
   66.8077   45.1873   33.7430 C   0  0  0  0  0  0
   63.9029   47.1607   30.6306 H   0  0  0  0  0  0
   58.4827   45.3855   31.5960 H   0  0  0  0  0  0
   56.3868   45.2225   28.7266 H   0  0  0  0  0  0
   58.0084   46.0688   27.4198 H   0  0  0  0  0  0
   64.7027   45.7530   32.3863 H   0  0  0  0  0  0
   61.0405   47.2768   33.9968 H   0  0  0  0  0  0
   62.0074   47.2771   36.2361 H   0  0  0  0  0  0
   61.3374   47.1317   27.0310 H   0  0  0  0  0  0
   65.3102   46.1071   36.8942 H   0  0  0  0  0  0
   67.7673   44.8771   34.1526 H   0  0  0  0  0  0
   66.3777   44.3269   33.2288 H   0  0  0  0  0  0
   66.9912   45.9857   33.0226 H   0  0  0  0  0  0
  1  5  1  0  0  0
  1  7  2  0  0  0
  1  2  1  0  0  0
  2  4  1  0  0  0
  2 15  2  0  0  0
  3  6  1  0  0  0
  3  9  1  0  0  0
  3  4  2  0  0  0
  4 23  1  0  0  0
  5  6  1  0  0  0
  5 10  2  0  0  0
  7 12  1  0  0  0
  7 19  1  0  0  0
  8 12  2  0  0  0
  8 11  1  0  0  0
  8 10  1  0  0  0
  9 13  1  0  0  0
  9 17  2  0  0  0
 10 24  1  0  0  0
 11 25  1  0  0  0
 12 26  1  0  0  0
 13 14  2  0  0  0
 13 27  1  0  0  0
 14 16  1  0  0  0
 14 21  1  0  0  0
 16 18  2  0  0  0
 16 20  1  0  0  0
 17 18  1  0  0  0
 17 28  1  0  0  0
 18 29  1  0  0  0
 19 30  1  0  0  0
 20 31  1  0  0  0
 21 22  1  0  0  0
 22 32  1  0  0  0
 22 33  1  0  0  0
 22 34  1  0  0  0
M  END
> <s_m_entry_id>
31271

> <s_m_entry_name>
dock_pv.484

> <s_m_Source_Path>
/home/csk/Desktop/cluster/DUD-E-result/rxra

> <s_m_Source_File>
dock_pv.maegz

> <i_m_Source_File_Index>
484

> <chembl_id>
CHEMBL214321

> <chembl_pref_name>
CHRYSOERIOL

> <i_lp_mmshare_version>
53161

> <r_lp_tautomer_probability>
1

> <s_lp_Force_Field>
OPLS_2005

> <r_lp_Energy>
20.571101

> <b_lp_Chiralities_Consistent>
1

> <s_lp_Variant>
CHEMBL2061_lig70-1

> <s_i_glide_gridfile>
glide-grid_1mv9

> <i_i_glide_lignum>
97

> <i_i_glide_rotatable_bonds>
5

> <r_i_docking_score>
-7.79886569235327

> <r_i_glide_ligand_efficiency>
-0.354493895106967

> <r_i_glide_ligand_efficiency_sa>
-0.993305835543497

> <r_i_glide_ligand_efficiency_ln>
-1.90632724574912

> <r_i_glide_gscore>
-7.79886569235327

> <r_i_glide_lipo>
-4.37275086385957

> <r_i_glide_hbond>
0

> <r_i_glide_metal>
0

> <r_i_glide_rewards>
-1.8482974829436

> <r_i_glide_evdw>
-33.5290794372559

> <r_i_glide_ecoul>
-0.701448798179626

> <r_i_glide_erotb>
0.203853946039636

> <r_i_glide_esite>
0

> <r_i_glide_emodel>
-46.3397692691353

> <r_i_glide_energy>
-34.2305282354355

> <r_i_glide_einternal>
3.855544090271

> <i_i_glide_confnum>
2

> <i_i_glide_posenum>
233

> <r_i_glide_eff_state_penalty>
0

> <s_user_duplicate_titles>
CHEMBL2061_lig70

> <i_f3d_flags>
0

> <s_m_subgroup_title>
dock_pv

> <s_m_subgroupid>
dock_pv

> <b_m_subgroup_collapsed>
1

$$$$
CHEMBL2061_lig52
                    3D
 Schrodinger Suite 2021-1.
 56 58  0  0  1  0            999 V2000
   61.6055   46.1230   31.0313 C   0  0  0  0  0  0
   62.4014   45.7682   29.9360 N   0  0  0  0  0  0
   62.4503   46.4127   32.0951 C   0  0  0  0  0  0
   63.7137   45.6061   30.3858 C   0  0  0  0  0  0
   63.7476   45.9783   31.7485 C   0  0  0  0  0  0
   60.1417   46.0770   31.1128 C   0  0  0  0  0  0
   54.3789   47.1027   28.9909 C   0  0  0  0  0  0
   62.1513   46.8890   33.4538 C   0  0  0  0  0  0
   54.2286   45.9058   29.9101 C   0  0  0  0  0  0
   59.2519   45.2772   30.4905 C   0  0  0  0  0  0
   61.9740   45.5170   28.5452 C   0  0  0  0  0  0
   53.6080   48.1467   29.3373 O   0  0  0  0  0  0
   55.2080   47.1699   28.1389 O   0  0  0  0  0  0
   55.3356   44.8395   29.7833 C   0  0  1  0  0  0
   56.8331   45.3019   29.6674 C   0  0  0  0  0  0
   62.8748   47.9692   33.9492 C   0  0  0  0  0  0
   61.2739   46.2014   34.2772 C   0  0  0  0  0  0
   61.6543   47.8575   35.9845 C   0  0  0  0  0  0
   57.7939   44.9940   30.8202 C   0  0  2  0  0  0
   64.8727   45.1423   29.7528 C   0  0  0  0  0  0
   64.9267   45.8417   32.4915 C   0  0  0  0  0  0
   62.6530   48.4386   35.2277 C   0  0  0  0  0  0
   61.0785   46.6632   35.5664 C   0  0  0  0  0  0
   61.2181   48.4770   37.1025 F   0  0  0  0  0  0
   55.1295   44.0893   30.9438 O   0  0  0  0  0  0
   57.3929   45.6769   31.9870 O   0  0  0  0  0  0
   62.2142   44.0361   28.1617 C   0  0  0  0  0  0
   62.6675   46.5204   27.5940 C   0  0  0  0  0  0
   66.0305   45.2781   31.8827 C   0  0  0  0  0  0
   66.0049   44.9322   30.5397 C   0  0  0  0  0  0
   59.7811   46.6878   31.9209 H   0  0  0  0  0  0
   54.2441   46.2721   30.9281 H   0  0  0  0  0  0
   53.2520   45.4555   29.7379 H   0  0  0  0  0  0
   59.6283   44.6176   29.7398 H   0  0  0  0  0  0
   60.9104   45.7290   28.4616 H   0  0  0  0  0  0
   53.8874   48.9162   28.8356 H   0  0  0  0  0  0
   55.0996   44.1927   28.9379 H   0  0  0  0  0  0
   57.2424   44.8569   28.7628 H   0  0  0  0  0  0
   56.9348   46.3680   29.4995 H   0  0  0  0  0  0
   63.6075   48.4523   33.3394 H   0  0  0  0  0  0
   60.7619   45.3146   33.9346 H   0  0  0  0  0  0
   57.7479   43.9261   31.0410 H   0  0  0  0  0  0
   64.8883   44.8916   28.7087 H   0  0  0  0  0  0
   64.9584   46.1066   33.5378 H   0  0  0  0  0  0
   63.2086   49.2766   35.6080 H   0  0  0  0  0  0
   60.4088   46.1254   36.2143 H   0  0  0  0  0  0
   55.6502   44.5084   31.6380 H   0  0  0  0  0  0
   58.0699   45.5511   32.6569 H   0  0  0  0  0  0
   62.0021   43.8545   27.1097 H   0  0  0  0  0  0
   63.2347   43.7007   28.3036 H   0  0  0  0  0  0
   61.6092   43.3617   28.7647 H   0  0  0  0  0  0
   62.4187   46.3317   26.5499 H   0  0  0  0  0  0
   62.3650   47.5451   27.8222 H   0  0  0  0  0  0
   63.7526   46.4910   27.6615 H   0  0  0  0  0  0
   66.9174   45.1142   32.4716 H   0  0  0  0  0  0
   66.8945   44.5196   30.0862 H   0  0  0  0  0  0
  1  2  1  0  0  0
  1  3  2  0  0  0
  1  6  1  0  0  0
  2  4  1  0  0  0
  2 11  1  0  0  0
  3  5  1  0  0  0
  3  8  1  0  0  0
  4 20  2  0  0  0
  4  5  1  0  0  0
  5 21  2  0  0  0
  6 10  2  0  0  0
  6 31  1  0  0  0
  7  9  1  0  0  0
  7 12  1  0  0  0
  7 13  2  0  0  0
  8 16  2  0  0  0
  8 17  1  0  0  0
  9 14  1  0  0  0
  9 32  1  0  0  0
  9 33  1  0  0  0
 10 19  1  0  0  0
 10 34  1  0  0  0
 11 27  1  0  0  0
 11 28  1  0  0  0
 11 35  1  0  0  0
 12 36  1  0  0  0
 14 15  1  0  0  0
 14 25  1  0  0  0
 14 37  1  0  0  0
 15 19  1  0  0  0
 15 38  1  0  0  0
 15 39  1  0  0  0
 16 22  1  0  0  0
 16 40  1  0  0  0
 17 23  2  0  0  0
 17 41  1  0  0  0
 18 22  2  0  0  0
 18 24  1  0  0  0
 18 23  1  0  0  0
 19 26  1  0  0  0
 19 42  1  0  0  0
 20 30  1  0  0  0
 20 43  1  0  0  0
 21 29  1  0  0  0
 21 44  1  0  0  0
 22 45  1  0  0  0
 23 46  1  0  0  0
 25 47  1  0  0  0
 26 48  1  0  0  0
 27 49  1  0  0  0
 27 50  1  0  0  0
 27 51  1  0  0  0
 28 52  1  0  0  0
 28 53  1  0  0  0
 28 54  1  0  0  0
 29 30  2  0  0  0
 29 55  1  0  0  0
 30 56  1  0  0  0
M  END
> <s_m_entry_id>
31272

> <s_m_entry_name>
dock_pv.485

> <s_m_Source_Path>
/home/csk/Desktop/cluster/DUD-E-result/rxra

> <s_m_Source_File>
dock_pv.maegz

> <i_m_Source_File_Index>
485

> <chembl_id>
CHEMBL2220442

> <chembl_pref_name>
FLUVASTATIN

> <i_lp_mmshare_version>
53161

> <r_lp_tautomer_probability>
1

> <s_lp_Force_Field>
OPLS_2005

> <r_lp_Energy>
26.872305

> <b_lp_Chiralities_Consistent>
1

> <s_lp_Variant>
CHEMBL2061_lig52-4

> <s_i_glide_gridfile>
glide-grid_1mv9

> <i_i_glide_lignum>
73

> <i_i_glide_rotatable_bonds>
11

> <r_i_docking_score>
-7.78381765213744

> <r_i_glide_ligand_efficiency>
-0.259460588404581

> <r_i_glide_ligand_efficiency_sa>
-0.80620437339061

> <r_i_glide_ligand_efficiency_ln>
-1.76856818205181

> <r_i_glide_gscore>
-7.78381765213744

> <r_i_glide_lipo>
-5.409547991794

> <r_i_glide_hbond>
0

> <r_i_glide_metal>
0

> <r_i_glide_rewards>
-1.97707401542747

> <r_i_glide_evdw>
-17.5844993591309

> <r_i_glide_ecoul>
-2.21925282478333

> <r_i_glide_erotb>
0.814917246758068

> <r_i_glide_esite>
0

> <r_i_glide_emodel>
-60.9742714207476

> <r_i_glide_energy>
-19.8037521839142

> <r_i_glide_einternal>
8.6465425491333

> <i_i_glide_confnum>
197

> <i_i_glide_posenum>
271

> <r_i_glide_eff_state_penalty>
0

> <s_user_duplicate_titles>
CHEMBL2061_lig52

> <i_f3d_flags>
0

> <s_m_subgroup_title>
dock_pv

> <s_m_subgroupid>
dock_pv

> <b_m_subgroup_collapsed>
1

$$$$
CHEMBL2061_lig501
                    3D
 Schrodinger Suite 2021-1.
 54 55  0  0  1  0            999 V2000
   63.6768   46.1895   32.0253 C   0  0  0  0  0  0
   63.7144   45.2506   30.9799 C   0  0  0  0  0  0
   62.7118   45.2611   30.0002 C   0  0  0  0  0  0
   61.6379   46.1464   30.0684 C   0  0  0  0  0  0
   61.6077   47.0739   31.1081 C   0  0  0  0  0  0
   62.6169   47.1096   32.0640 C   0  0  0  0  0  0
   60.6115   46.0970   29.0992 N   0  0  0  0  0  0
   59.2223   45.9116   29.3449 C   0  0  0  0  0  0
   61.0822   46.4080   27.7379 C   0  0  0  0  0  0
   61.0198   47.9067   27.4147 C   0  0  0  0  0  0
   58.2497   46.0773   28.3506 C   0  0  0  0  0  0
   56.8981   45.8899   28.6491 C   0  0  0  0  0  0
   56.5188   45.4753   29.9267 C   0  0  0  0  0  0
   57.5415   45.2771   30.8629 C   0  0  0  0  0  0
   58.8485   45.5101   30.5884 N   0  0  0  0  0  0
   55.0643   45.3514   30.2928 C   0  0  0  0  0  0
   54.8084   44.4747   31.2987 O   0  0  0  0  0  0
   54.1796   46.0028   29.7386 O   0  0  0  0  0  0
   64.7032   46.1568   32.9576 O   0  0  0  0  0  0
   64.7109   47.0440   34.0759 C   0  0  0  0  0  0
   63.6442   46.7013   35.1411 C   0  0  0  0  0  0
   63.5053   47.8599   36.1391 C   0  0  0  0  0  0
   63.9373   45.3622   35.8433 C   0  0  0  0  0  0
   64.8492   44.2237   30.9138 C   0  0  0  0  0  0
   66.0917   44.8522   30.2596 C   0  0  0  0  0  0
   64.4445   42.8773   30.2722 C   0  0  0  0  0  0
   62.7312   44.5510   29.1890 H   0  0  0  0  0  0
   60.8082   47.7879   31.1683 H   0  0  0  0  0  0
   62.5589   47.8696   32.8272 H   0  0  0  0  0  0
   62.1118   46.0783   27.5910 H   0  0  0  0  0  0
   60.5115   45.8518   26.9964 H   0  0  0  0  0  0
   61.2961   48.0768   26.3747 H   0  0  0  0  0  0
   60.0203   48.3120   27.5678 H   0  0  0  0  0  0
   61.7100   48.4759   28.0395 H   0  0  0  0  0  0
   58.5157   46.3911   27.3548 H   0  0  0  0  0  0
   56.1564   46.0659   27.8816 H   0  0  0  0  0  0
   57.3410   45.0151   31.8898 H   0  0  0  0  0  0
   55.5971   43.9897   31.5501 H   0  0  0  0  0  0
   64.6154   48.0762   33.7390 H   0  0  0  0  0  0
   65.6982   46.9839   34.5347 H   0  0  0  0  0  0
   62.6754   46.5916   34.6564 H   0  0  0  0  0  0
   64.3848   47.9411   36.7782 H   0  0  0  0  0  0
   62.6350   47.7214   36.7753 H   0  0  0  0  0  0
   63.3724   48.8174   35.6334 H   0  0  0  0  0  0
   64.8696   45.4039   36.4070 H   0  0  0  0  0  0
   63.1430   45.0893   36.5385 H   0  0  0  0  0  0
   64.0238   44.5492   35.1206 H   0  0  0  0  0  0
   65.1090   43.9687   31.9432 H   0  0  0  0  0  0
   66.4759   45.6682   30.8727 H   0  0  0  0  0  0
   66.8971   44.1286   30.1388 H   0  0  0  0  0  0
   65.8604   45.2667   29.2780 H   0  0  0  0  0  0
   63.6075   42.4330   30.8064 H   0  0  0  0  0  0
   64.1629   42.9627   29.2250 H   0  0  0  0  0  0
   65.2437   42.1433   30.3190 H   0  0  0  0  0  0
  1  2  2  0  0  0
  1  6  1  0  0  0
  1 19  1  0  0  0
  2  3  1  0  0  0
  2 24  1  0  0  0
  3  4  2  0  0  0
  3 27  1  0  0  0
  4  5  1  0  0  0
  4  7  1  0  0  0
  5  6  2  0  0  0
  5 28  1  0  0  0
  6 29  1  0  0  0
  7  8  1  0  0  0
  7  9  1  0  0  0
  8 11  2  0  0  0
  8 15  1  0  0  0
  9 10  1  0  0  0
  9 30  1  0  0  0
  9 31  1  0  0  0
 10 32  1  0  0  0
 10 33  1  0  0  0
 10 34  1  0  0  0
 11 12  1  0  0  0
 11 35  1  0  0  0
 12 13  2  0  0  0
 12 36  1  0  0  0
 13 14  1  0  0  0
 13 16  1  0  0  0
 14 15  2  0  0  0
 14 37  1  0  0  0
 16 17  1  0  0  0
 16 18  2  0  0  0
 17 38  1  0  0  0
 19 20  1  0  0  0
 20 21  1  0  0  0
 20 39  1  0  0  0
 20 40  1  0  0  0
 21 22  1  0  0  0
 21 23  1  0  0  0
 21 41  1  0  0  0
 22 42  1  0  0  0
 22 43  1  0  0  0
 22 44  1  0  0  0
 23 45  1  0  0  0
 23 46  1  0  0  0
 23 47  1  0  0  0
 24 25  1  0  0  0
 24 26  1  0  0  0
 24 48  1  0  0  0
 25 49  1  0  0  0
 25 50  1  0  0  0
 25 51  1  0  0  0
 26 52  1  0  0  0
 26 53  1  0  0  0
 26 54  1  0  0  0
M  END
> <s_m_entry_id>
31273

> <s_m_entry_name>
dock_pv.486

> <s_m_Source_Path>
/home/csk/Desktop/cluster/DUD-E-result/rxra

> <s_m_Source_File>
dock_pv.maegz

> <i_m_Source_File_Index>
486

> <chembl_id>
CHEMBL3425765

> <chembl_pref_name>
None

> <i_lp_mmshare_version>
53161

> <r_lp_tautomer_probability>
1

> <s_lp_Force_Field>
OPLS_2005

> <r_lp_Energy>
25.997224

> <b_lp_Chiralities_Consistent>
1

> <s_lp_Variant>
CHEMBL2061_lig501-1

> <s_i_glide_gridfile>
glide-grid_1mv9

> <i_i_glide_lignum>
593

> <i_i_glide_rotatable_bonds>
9

> <r_i_docking_score>
-7.75321478565514

> <r_i_glide_ligand_efficiency>
-0.298200568679044

> <r_i_glide_ligand_efficiency_sa>
-0.883418011349089

> <r_i_glide_ligand_efficiency_ln>
-1.82081705203839

> <r_i_glide_gscore>
-7.75321478565514

> <r_i_glide_lipo>
-5.28943601923581

> <r_i_glide_hbond>
-0.0954466974050713

> <r_i_glide_metal>
0

> <r_i_glide_rewards>
-0.416365377320862

> <r_i_glide_evdw>
-44.902717590332

> <r_i_glide_ecoul>
-3.06473636627197

> <r_i_glide_erotb>
0.752879642764001

> <r_i_glide_esite>
0

> <r_i_glide_emodel>
-64.325768900059

> <r_i_glide_energy>
-47.967453956604

> <r_i_glide_einternal>
7.39542484283447

> <i_i_glide_confnum>
16

> <i_i_glide_posenum>
179

> <r_i_glide_eff_state_penalty>
0

> <s_user_duplicate_titles>
CHEMBL2061_lig501

> <i_f3d_flags>
0

> <s_m_subgroup_title>
dock_pv

> <s_m_subgroupid>
dock_pv

> <b_m_subgroup_collapsed>
1

$$$$
CHEMBL2061_lig87 
                    3D
 Schrodinger Suite 2021-1.
 45 48  0  0  1  0            999 V2000
   65.0397   46.8770   33.7123 C   0  0  0  0  0  0
   63.8592   47.0807   34.4316 C   0  0  0  0  0  0
   62.6201   46.8677   33.8218 C   0  0  0  0  0  0
   64.9875   46.4770   32.3749 C   0  0  0  0  0  0
   63.7472   46.2571   31.7695 C   0  0  0  0  0  0
   62.5695   46.4435   32.4902 C   0  0  0  0  0  0
   61.4450   46.0770   31.6188 C   0  0  0  0  0  0
   62.0612   45.6713   30.3869 C   0  0  0  0  0  0
   63.3848   45.8355   30.4151 C   0  0  0  0  0  0
   64.3253   45.7073   29.2449 C   0  0  0  0  0  0
   64.0071   46.6985   28.1390 C   0  0  0  0  0  0
   60.1390   46.0770   31.9327 C   0  0  0  0  0  0
   64.9481   47.2787   27.3390 N   0  0  0  0  0  0
   64.3949   48.1672   26.5315 N   0  0  0  0  0  0
   63.0455   48.0770   26.8026 N   0  0  0  0  0  0
   62.8187   47.1363   27.7955 N   0  0  0  0  0  0
   58.9844   45.6952   31.0793 C   0  0  0  0  0  0
   58.9154   45.8970   29.6944 C   0  0  0  0  0  0
   57.7110   45.7033   29.0213 C   0  0  0  0  0  0
   56.5604   45.3545   29.7323 C   0  0  0  0  0  0
   56.6537   45.1350   31.1044 C   0  0  0  0  0  0
   57.8579   45.2770   31.7646 C   0  0  0  0  0  0
   55.2081   45.2852   29.0266 C   0  0  0  0  0  0
   54.7872   46.6839   28.5320 C   0  0  0  0  0  0
   54.1063   44.6478   29.8997 C   0  0  0  0  0  0
   65.9966   47.0431   34.1834 H   0  0  0  0  0  0
   63.9055   47.4008   35.4623 H   0  0  0  0  0  0
   61.7176   47.0151   34.3959 H   0  0  0  0  0  0
   65.9089   46.3369   31.8296 H   0  0  0  0  0  0
   61.5403   45.3268   29.5092 H   0  0  0  0  0  0
   65.3505   45.8025   29.5982 H   0  0  0  0  0  0
   64.2425   44.6878   28.8697 H   0  0  0  0  0  0
   59.8826   46.4091   32.9289 H   0  0  0  0  0  0
   65.9469   47.1429   27.4174 H   0  0  0  0  0  0
   59.7497   46.2874   29.1352 H   0  0  0  0  0  0
   57.6617   45.8978   27.9607 H   0  0  0  0  0  0
   55.7968   44.8803   31.7046 H   0  0  0  0  0  0
   57.8925   45.1515   32.8373 H   0  0  0  0  0  0
   55.3416   44.6394   28.1567 H   0  0  0  0  0  0
   55.4693   47.0361   27.7605 H   0  0  0  0  0  0
   54.7986   47.4179   29.3385 H   0  0  0  0  0  0
   53.7892   46.6926   28.0979 H   0  0  0  0  0  0
   54.4090   43.6770   30.2852 H   0  0  0  0  0  0
   53.8420   45.2779   30.7465 H   0  0  0  0  0  0
   53.2080   44.4768   29.3390 H   0  0  0  0  0  0
  1  2  2  0  0  0
  1  4  1  0  0  0
  1 26  1  0  0  0
  2  3  1  0  0  0
  2 27  1  0  0  0
  3  6  2  0  0  0
  3 28  1  0  0  0
  4  5  2  0  0  0
  4 29  1  0  0  0
  5  6  1  0  0  0
  5  9  1  0  0  0
  6  7  1  0  0  0
  7  8  1  0  0  0
  7 12  2  0  0  0
  8  9  2  0  0  0
  8 30  1  0  0  0
  9 10  1  0  0  0
 10 11  1  0  0  0
 10 31  1  0  0  0
 10 32  1  0  0  0
 11 13  1  0  0  0
 11 16  2  0  0  0
 12 17  1  0  0  0
 12 33  1  0  0  0
 13 14  1  0  0  0
 13 34  1  0  0  0
 14 15  2  0  0  0
 15 16  1  0  0  0
 17 18  2  0  0  0
 17 22  1  0  0  0
 18 19  1  0  0  0
 18 35  1  0  0  0
 19 20  2  0  0  0
 19 36  1  0  0  0
 20 21  1  0  0  0
 20 23  1  0  0  0
 21 22  2  0  0  0
 21 37  1  0  0  0
 22 38  1  0  0  0
 23 24  1  0  0  0
 23 25  1  0  0  0
 23 39  1  0  0  0
 24 40  1  0  0  0
 24 41  1  0  0  0
 24 42  1  0  0  0
 25 43  1  0  0  0
 25 44  1  0  0  0
 25 45  1  0  0  0
M  END
> <s_m_entry_id>
31274

> <s_m_entry_name>
dock_pv.487

> <s_m_Source_Path>
/home/csk/Desktop/cluster/DUD-E-result/rxra

> <s_m_Source_File>
dock_pv.maegz

> <i_m_Source_File_Index>
487

> <chembl_id>
CHEMBL4436664

> <chembl_pref_name>
None

> <i_lp_mmshare_version>
53161

> <r_lp_tautomer_probability>
0.3

> <s_lp_Force_Field>
OPLS_2005

> <r_lp_Energy>
40.735279

> <b_lp_Chiralities_Consistent>
1

> <s_lp_Variant>
CHEMBL2061_lig87 -1

> <s_i_glide_gridfile>
glide-grid_1mv9

> <i_i_glide_lignum>
123

> <i_i_glide_rotatable_bonds>
4

> <r_i_docking_score>
-7.72034823024568

> <r_i_glide_ligand_efficiency>
-0.308813929209827

> <r_i_glide_ligand_efficiency_sa>
-0.902977405847889

> <r_i_glide_ligand_efficiency_ln>
-1.82995389073507

> <r_i_glide_gscore>
-7.72034823024568

> <r_i_glide_lipo>
-4.55284064415016

> <r_i_glide_hbond>
-0.193727238352471

> <r_i_glide_metal>
0

> <r_i_glide_rewards>
-1.85692431340842

> <r_i_glide_evdw>
-32.0679702758789

> <r_i_glide_ecoul>
-0.239110261201859

> <r_i_glide_erotb>
0.522409018639598

> <r_i_glide_esite>
0

> <r_i_glide_emodel>
-39.88007491531

> <r_i_glide_energy>
-32.3070805370808

> <r_i_glide_einternal>
4.41309928894043

> <i_i_glide_confnum>
8

> <i_i_glide_posenum>
390

> <r_i_glide_eff_state_penalty>
0

> <s_user_duplicate_titles>
CHEMBL2061_lig87 

> <i_f3d_flags>
0

> <s_m_subgroup_title>
dock_pv

> <s_m_subgroupid>
dock_pv

> <b_m_subgroup_collapsed>
1

$$$$
CHEMBL2061_lig537 
                    3D
 Schrodinger Suite 2021-1.
 41 42  0  0  1  0            999 V2000
   61.1069   46.7848   29.8593 C   0  0  0  0  0  0
   60.3763   46.0770   30.8106 C   0  0  0  0  0  0
   59.0701   45.6770   30.5526 C   0  0  0  0  0  0
   58.4645   45.9621   29.3263 C   0  0  0  0  0  0
   59.2080   46.6548   28.3598 C   0  0  0  0  0  0
   60.5142   47.0695   28.6259 C   0  0  0  0  0  0
   57.0294   45.5632   29.0709 C   0  0  0  0  0  0
   56.5802   44.5494   29.8642 O   0  0  0  0  0  0
   56.3356   46.0770   28.1974 O   0  0  0  0  0  0
   62.5237   47.2770   30.1628 C   0  0  0  0  0  0
   63.2091   46.4619   31.1250 O   0  0  0  0  0  0
   63.1759   46.7291   32.4871 C   0  0  0  0  0  0
   64.0422   46.0107   33.3487 C   0  0  0  0  0  0
   64.0254   46.3204   34.7243 C   0  0  0  0  0  0
   63.1647   47.2800   35.2445 C   0  0  0  0  0  0
   62.2914   47.9490   34.4013 C   0  0  0  0  0  0
   62.2995   47.6770   33.0375 C   0  0  0  0  0  0
   65.0029   44.9160   32.7970 C   0  0  0  0  0  0
   65.8330   44.2256   33.9139 C   0  0  0  0  0  0
   66.0077   45.5582   31.8044 C   0  0  0  0  0  0
   64.1927   43.7823   32.1119 C   0  0  0  0  0  0
   60.8018   45.8426   31.7731 H   0  0  0  0  0  0
   58.5377   45.1730   31.3463 H   0  0  0  0  0  0
   58.7884   46.8770   27.3904 H   0  0  0  0  0  0
   61.0619   47.6145   27.8704 H   0  0  0  0  0  0
   57.3105   44.1590   30.3456 H   0  0  0  0  0  0
   62.5182   48.3345   30.4302 H   0  0  0  0  0  0
   63.1102   47.2086   29.2458 H   0  0  0  0  0  0
   64.6780   45.8305   35.4290 H   0  0  0  0  0  0
   63.1728   47.5004   36.3019 H   0  0  0  0  0  0
   61.6080   48.6814   34.8030 H   0  0  0  0  0  0
   61.6086   48.2221   32.4145 H   0  0  0  0  0  0
   65.1973   43.7978   34.6904 H   0  0  0  0  0  0
   66.4080   43.3931   33.5224 H   0  0  0  0  0  0
   66.5367   44.9103   34.3901 H   0  0  0  0  0  0
   65.5393   45.8755   30.8738 H   0  0  0  0  0  0
   66.4791   46.4387   32.2426 H   0  0  0  0  0  0
   66.8079   44.8770   31.5209 H   0  0  0  0  0  0
   63.5182   44.1393   31.3390 H   0  0  0  0  0  0
   64.8080   43.0359   31.6205 H   0  0  0  0  0  0
   63.6080   43.2332   32.8474 H   0  0  0  0  0  0
  1  2  2  0  0  0
  1  6  1  0  0  0
  1 10  1  0  0  0
  2  3  1  0  0  0
  2 22  1  0  0  0
  3  4  2  0  0  0
  3 23  1  0  0  0
  4  5  1  0  0  0
  4  7  1  0  0  0
  5  6  2  0  0  0
  5 24  1  0  0  0
  6 25  1  0  0  0
  7  8  1  0  0  0
  7  9  2  0  0  0
  8 26  1  0  0  0
 10 11  1  0  0  0
 10 27  1  0  0  0
 10 28  1  0  0  0
 11 12  1  0  0  0
 12 13  2  0  0  0
 12 17  1  0  0  0
 13 14  1  0  0  0
 13 18  1  0  0  0
 14 15  2  0  0  0
 14 29  1  0  0  0
 15 16  1  0  0  0
 15 30  1  0  0  0
 16 17  2  0  0  0
 16 31  1  0  0  0
 17 32  1  0  0  0
 18 19  1  0  0  0
 18 20  1  0  0  0
 18 21  1  0  0  0
 19 33  1  0  0  0
 19 34  1  0  0  0
 19 35  1  0  0  0
 20 36  1  0  0  0
 20 37  1  0  0  0
 20 38  1  0  0  0
 21 39  1  0  0  0
 21 40  1  0  0  0
 21 41  1  0  0  0
M  END
> <s_m_entry_id>
31275

> <s_m_entry_name>
dock_pv.488

> <s_m_Source_Path>
/home/csk/Desktop/cluster/DUD-E-result/rxra

> <s_m_Source_File>
dock_pv.maegz

> <i_m_Source_File_Index>
488

> <chembl_id>
CHEMBL4570663

> <chembl_pref_name>
None

> <i_lp_mmshare_version>
53161

> <r_lp_tautomer_probability>
1

> <s_lp_Force_Field>
OPLS_2005

> <r_lp_Energy>
23.729337

> <b_lp_Chiralities_Consistent>
1

> <s_lp_Variant>
CHEMBL2061_lig537 -1

> <s_i_glide_gridfile>
glide-grid_1mv9

> <i_i_glide_lignum>
637

> <i_i_glide_rotatable_bonds>
6

> <r_i_docking_score>
-7.71865101910732

> <r_i_glide_ligand_efficiency>
-0.367554810433682

> <r_i_glide_ligand_efficiency_sa>
-1.01405585162156

> <r_i_glide_ligand_efficiency_ln>
-1.90842086747131

> <r_i_glide_gscore>
-7.71865101910732

> <r_i_glide_lipo>
-4.27831955941461

> <r_i_glide_hbond>
0

> <r_i_glide_metal>
0

> <r_i_glide_rewards>
-2.57857699171538

> <r_i_glide_evdw>
-35.5126342773438

> <r_i_glide_ecoul>
0.114517025649548

> <r_i_glide_erotb>
0.896699692042421

> <r_i_glide_esite>
0

> <r_i_glide_emodel>
-50.2992298464755

> <r_i_glide_energy>
-35.3981172516942

> <r_i_glide_einternal>
3.62758851051331

> <i_i_glide_confnum>
19

> <i_i_glide_posenum>
4

> <r_i_glide_eff_state_penalty>
0

> <s_user_duplicate_titles>
CHEMBL2061_lig537 

> <i_f3d_flags>
0

> <s_m_subgroup_title>
dock_pv

> <s_m_subgroupid>
dock_pv

> <b_m_subgroup_collapsed>
1

$$$$
CHEMBL2061_lig9
                    3D
 Schrodinger Suite 2021-1.
 55 57  0  0  1  0            999 V2000
   63.4730   46.5854   34.2000 C   0  0  0  0  0  0
   62.1246   46.6492   33.9329 C   0  0  0  0  0  0
   61.6794   46.2109   32.6732 C   0  0  0  0  0  0
   62.6261   45.6793   31.7624 C   0  0  0  0  0  0
   64.3932   46.0144   33.3174 C   0  0  0  0  0  0
   63.9780   45.5643   32.0448 C   0  0  0  0  0  0
   64.9295   44.9072   31.0022 C   0  0  0  0  0  0
   66.4080   45.0965   31.4316 C   0  0  0  0  0  0
   66.5872   44.8858   32.9486 C   0  0  0  0  0  0
   65.8482   45.9778   33.7247 C   0  0  0  0  0  0
   61.2389   47.1390   35.0822 C   0  0  0  0  0  0
   66.4075   47.3628   33.3973 C   0  0  0  0  0  0
   66.0082   45.5831   35.1827 C   0  0  0  0  0  0
   64.6297   43.3904   30.9084 C   0  0  0  0  0  0
   64.7663   45.5888   29.6229 C   0  0  0  0  0  0
   60.2221   46.0771   32.3425 C   0  0  0  0  0  0
   59.7856   46.0770   30.9048 C   0  0  0  0  0  0
   60.5606   46.6973   29.9134 C   0  0  0  0  0  0
   60.1099   46.8150   28.6073 C   0  0  0  0  0  0
   58.8026   46.4164   28.3236 C   0  0  0  0  0  0
   57.9825   45.8311   29.2968 C   0  0  0  0  0  0
   58.5008   45.6311   30.5761 C   0  0  0  0  0  0
   60.9894   47.4408   27.5622 C   0  0  0  0  0  0
   62.3214   47.2121   27.7364 O   0  0  0  0  0  0
   60.5387   48.0770   26.6215 O   0  0  0  0  0  0
   56.5460   45.4950   28.9978 C   0  0  0  0  0  0
   56.0329   44.4770   29.7397 O   0  0  0  0  0  0
   55.8918   46.0769   28.1380 O   0  0  0  0  0  0
   59.3766   45.9473   33.2328 O   0  0  0  0  0  0
   63.8045   46.9835   35.1440 H   0  0  0  0  0  0
   62.3044   45.2226   30.8408 H   0  0  0  0  0  0
   66.7356   46.0961   31.1630 H   0  0  0  0  0  0
   67.0825   44.4770   30.8479 H   0  0  0  0  0  0
   67.6080   44.8775   33.3386 H   0  0  0  0  0  0
   66.1962   43.9068   33.2281 H   0  0  0  0  0  0
   61.8023   47.3032   36.0018 H   0  0  0  0  0  0
   60.7510   48.0770   34.8482 H   0  0  0  0  0  0
   60.4795   46.4021   35.3353 H   0  0  0  0  0  0
   67.4957   47.3991   33.3390 H   0  0  0  0  0  0
   66.0080   47.6770   32.4460 H   0  0  0  0  0  0
   66.0473   48.0770   34.1336 H   0  0  0  0  0  0
   67.0800   45.6770   35.3390 H   0  0  0  0  0  0
   65.5218   46.2133   35.9190 H   0  0  0  0  0  0
   65.6955   44.5526   35.3567 H   0  0  0  0  0  0
   65.2591   42.9073   30.1587 H   0  0  0  0  0  0
   64.7764   42.8688   31.8545 H   0  0  0  0  0  0
   63.6079   43.2013   30.5926 H   0  0  0  0  0  0
   65.5552   45.2775   28.9386 H   0  0  0  0  0  0
   63.8224   45.3241   29.1482 H   0  0  0  0  0  0
   64.8086   46.6736   29.6961 H   0  0  0  0  0  0
   61.4992   47.1691   30.1676 H   0  0  0  0  0  0
   58.4083   46.5677   27.3390 H   0  0  0  0  0  0
   57.8736   45.1987   31.3459 H   0  0  0  0  0  0
   62.4697   46.5984   28.4551 H   0  0  0  0  0  0
   55.1674   44.2549   29.3959 H   0  0  0  0  0  0
  1  2  2  0  0  0
  1  5  1  0  0  0
  1 30  1  0  0  0
  2 11  1  0  0  0
  2  3  1  0  0  0
  3  4  2  0  0  0
  3 16  1  0  0  0
  4  6  1  0  0  0
  4 31  1  0  0  0
  5 10  1  0  0  0
  5  6  2  0  0  0
  6  7  1  0  0  0
  7 14  1  0  0  0
  7 15  1  0  0  0
  7  8  1  0  0  0
  8  9  1  0  0  0
  8 32  1  0  0  0
  8 33  1  0  0  0
  9 10  1  0  0  0
  9 34  1  0  0  0
  9 35  1  0  0  0
 10 12  1  0  0  0
 10 13  1  0  0  0
 11 36  1  0  0  0
 11 37  1  0  0  0
 11 38  1  0  0  0
 12 39  1  0  0  0
 12 40  1  0  0  0
 12 41  1  0  0  0
 13 42  1  0  0  0
 13 43  1  0  0  0
 13 44  1  0  0  0
 14 45  1  0  0  0
 14 46  1  0  0  0
 14 47  1  0  0  0
 15 48  1  0  0  0
 15 49  1  0  0  0
 15 50  1  0  0  0
 16 17  1  0  0  0
 16 29  2  0  0  0
 17 18  2  0  0  0
 17 22  1  0  0  0
 18 19  1  0  0  0
 18 51  1  0  0  0
 19 20  2  0  0  0
 19 23  1  0  0  0
 20 21  1  0  0  0
 20 52  1  0  0  0
 21 22  2  0  0  0
 21 26  1  0  0  0
 22 53  1  0  0  0
 23 24  1  0  0  0
 23 25  2  0  0  0
 24 54  1  0  0  0
 26 27  1  0  0  0
 26 28  2  0  0  0
 27 55  1  0  0  0
M  END
> <s_m_entry_id>
31276

> <s_m_entry_name>
dock_pv.489

> <s_m_Source_Path>
/home/csk/Desktop/cluster/DUD-E-result/rxra

> <s_m_Source_File>
dock_pv.maegz

> <i_m_Source_File_Index>
489

> <chembl_id>
CHEMBL567392

> <chembl_pref_name>
None

> <i_lp_mmshare_version>
53161

> <r_lp_tautomer_probability>
1

> <s_lp_Force_Field>
OPLS_2005

> <r_lp_Energy>
34.573226

> <b_lp_Chiralities_Consistent>
1

> <s_lp_Variant>
CHEMBL2061_lig9-1

> <s_i_glide_gridfile>
glide-grid_1mv9

> <i_i_glide_lignum>
12

> <i_i_glide_rotatable_bonds>
6

> <r_i_docking_score>
-7.70950330248189

> <r_i_glide_ligand_efficiency>
-0.265844941464893

> <r_i_glide_ligand_efficiency_sa>
-0.816759885769302

> <r_i_glide_ligand_efficiency_ln>
-1.76528076013247

> <r_i_glide_gscore>
-7.70950330248189

> <r_i_glide_lipo>
-4.8468073148857

> <r_i_glide_hbond>
0

> <r_i_glide_metal>
0

> <r_i_glide_rewards>
-2.57038591361838

> <r_i_glide_evdw>
-16.5176334381104

> <r_i_glide_ecoul>
0.207488000392914

> <r_i_glide_erotb>
0.502448397868767

> <r_i_glide_esite>
0

> <r_i_glide_emodel>
-5.2676948200941

> <r_i_glide_energy>
-16.3101454377174

> <r_i_glide_einternal>
39.7027549743652

> <i_i_glide_confnum>
71

> <i_i_glide_posenum>
164

> <r_i_glide_eff_state_penalty>
0

> <s_user_duplicate_titles>
CHEMBL2061_lig9

> <i_f3d_flags>
0

> <s_m_subgroup_title>
dock_pv

> <s_m_subgroupid>
dock_pv

> <b_m_subgroup_collapsed>
1

$$$$
CHEMBL2061_lig17
                    3D
 Schrodinger Suite 2021-1.
 62 61  0  0  1  0            999 V2000
   54.9728   45.2687   30.4915 C   0  0  0  0  0  0
   54.0086   44.5954   30.1392 O   0  0  0  0  0  0
   56.0095   45.8346   29.5201 C   0  0  0  0  0  0
   55.2075   45.6768   31.7698 O   0  0  0  0  0  0
   63.8537   45.1244   28.8809 C   0  0  0  0  0  0
   59.8981   46.4642   29.2378 C   0  0  0  0  0  0
   64.0123   45.4960   33.3356 C   0  0  0  0  0  0
   57.4932   45.7072   29.9665 C   0  0  2  0  0  0
   58.3873   46.4663   28.9539 C   0  0  0  0  0  0
   64.0717   45.4942   34.8754 C   0  0  0  0  0  0
   60.7009   47.2592   28.1806 C   0  0  0  0  0  0
   63.5646   45.0481   30.3920 C   0  0  0  0  0  0
   64.3608   44.1311   32.7194 C   0  0  0  0  0  0
   62.7191   45.6900   28.0035 C   0  0  0  0  0  0
   64.5189   44.0978   31.1754 C   0  0  1  0  0  0
   62.2329   47.1263   28.3418 C   0  0  1  0  0  0
   63.3974   46.7096   35.5540 C   0  0  0  0  0  0
   57.9084   44.2426   30.1933 C   0  0  0  0  0  0
   61.8583   46.6174   35.5327 C   0  0  0  0  0  0
   63.8896   48.0587   35.0013 C   0  0  0  0  0  0
   64.4076   42.6329   30.6871 C   0  0  0  0  0  0
   62.9842   48.1814   27.5027 C   0  0  0  0  0  0
   55.8780   45.3200   28.5654 H   0  0  0  0  0  0
   55.7512   46.8745   29.3178 H   0  0  0  0  0  0
   56.0160   46.1860   31.8482 H   0  0  0  0  0  0
   64.0079   44.1076   28.5365 H   0  0  0  0  0  0
   64.7842   45.6673   28.7035 H   0  0  0  0  0  0
   60.0977   46.8755   30.2255 H   0  0  0  0  0  0
   60.2446   45.4344   29.2810 H   0  0  0  0  0  0
   64.6901   46.2606   32.9511 H   0  0  0  0  0  0
   63.0102   45.7811   33.0127 H   0  0  0  0  0  0
   57.6335   46.2044   30.9258 H   0  0  0  0  0  0
   58.2149   46.0744   27.9521 H   0  0  0  0  0  0
   58.0629   47.5069   28.9390 H   0  0  0  0  0  0
   63.6086   44.5813   35.2561 H   0  0  0  0  0  0
   65.1159   45.4384   35.1881 H   0  0  0  0  0  0
   60.4161   46.9378   27.1772 H   0  0  0  0  0  0
   60.4132   48.3092   28.2459 H   0  0  0  0  0  0
   63.6419   46.0587   30.7894 H   0  0  0  0  0  0
   62.5288   44.7487   30.5389 H   0  0  0  0  0  0
   63.6081   43.4066   33.0355 H   0  0  0  0  0  0
   65.2918   43.7733   33.1646 H   0  0  0  0  0  0
   61.9017   44.9726   28.0393 H   0  0  0  0  0  0
   63.0295   45.6557   26.9584 H   0  0  0  0  0  0
   65.5342   44.4389   30.9664 H   0  0  0  0  0  0
   62.4550   47.3483   29.3862 H   0  0  0  0  0  0
   63.7082   46.6800   36.5978 H   0  0  0  0  0  0
   57.8245   43.6772   29.2765 H   0  0  0  0  0  0
   58.9334   44.1568   30.5388 H   0  0  0  0  0  0
   57.2878   43.7457   30.9386 H   0  0  0  0  0  0
   61.4605   46.6775   34.5196 H   0  0  0  0  0  0
   61.5111   45.6781   35.9660 H   0  0  0  0  0  0
   61.4076   47.4269   36.1075 H   0  0  0  0  0  0
   63.4997   48.2534   34.0014 H   0  0  0  0  0  0
   63.5818   48.8855   35.6424 H   0  0  0  0  0  0
   64.9770   48.0769   34.9384 H   0  0  0  0  0  0
   63.3699   42.3376   30.5374 H   0  0  0  0  0  0
   64.9304   42.4770   29.7435 H   0  0  0  0  0  0
   64.8156   41.9216   31.4039 H   0  0  0  0  0  0
   62.8224   48.0344   26.4339 H   0  0  0  0  0  0
   62.6581   49.1943   27.7396 H   0  0  0  0  0  0
   64.0590   48.1376   27.6826 H   0  0  0  0  0  0
  1  2  2  0  0  0
  1  3  1  0  0  0
  1  4  1  0  0  0
  3  8  1  0  0  0
  3 23  1  0  0  0
  3 24  1  0  0  0
  4 25  1  0  0  0
  5 14  1  0  0  0
  5 12  1  0  0  0
  5 26  1  0  0  0
  5 27  1  0  0  0
  6  9  1  0  0  0
  6 11  1  0  0  0
  6 28  1  0  0  0
  6 29  1  0  0  0
  7 13  1  0  0  0
  7 10  1  0  0  0
  7 30  1  0  0  0
  7 31  1  0  0  0
  8  9  1  0  0  0
  8 18  1  0  0  0
  8 32  1  0  0  0
  9 33  1  0  0  0
  9 34  1  0  0  0
 10 17  1  0  0  0
 10 35  1  0  0  0
 10 36  1  0  0  0
 11 16  1  0  0  0
 11 37  1  0  0  0
 11 38  1  0  0  0
 12 15  1  0  0  0
 12 39  1  0  0  0
 12 40  1  0  0  0
 13 15  1  0  0  0
 13 41  1  0  0  0
 13 42  1  0  0  0
 14 16  1  0  0  0
 14 43  1  0  0  0
 14 44  1  0  0  0
 15 21  1  0  0  0
 15 45  1  0  0  0
 16 22  1  0  0  0
 16 46  1  0  0  0
 17 19  1  0  0  0
 17 20  1  0  0  0
 17 47  1  0  0  0
 18 48  1  0  0  0
 18 49  1  0  0  0
 18 50  1  0  0  0
 19 51  1  0  0  0
 19 52  1  0  0  0
 19 53  1  0  0  0
 20 54  1  0  0  0
 20 55  1  0  0  0
 20 56  1  0  0  0
 21 57  1  0  0  0
 21 58  1  0  0  0
 21 59  1  0  0  0
 22 60  1  0  0  0
 22 61  1  0  0  0
 22 62  1  0  0  0
M  END
> <s_m_entry_id>
31278

> <s_m_entry_name>
dock_pv.491

> <s_m_Source_Path>
/home/csk/Desktop/cluster/DUD-E-result/rxra

> <s_m_Source_File>
dock_pv.maegz

> <i_m_Source_File_Index>
491

> <chembl_id>
CHEMBL1215869

> <chembl_pref_name>
PHYTANIC ACID

> <i_lp_mmshare_version>
53161

> <r_lp_tautomer_probability>
1

> <s_lp_Force_Field>
OPLS_2005

> <r_lp_Energy>
12.278714

> <b_lp_Chiralities_Consistent>
1

> <s_lp_Variant>
CHEMBL2061_lig17-1

> <s_i_glide_gridfile>
glide-grid_1mv9

> <i_i_glide_lignum>
20

> <i_i_glide_rotatable_bonds>
15

> <r_i_docking_score>
-7.69441116546123

> <r_i_glide_ligand_efficiency>
-0.34974596206642

> <r_i_glide_ligand_efficiency_sa>
-0.980001940438272

> <r_i_glide_ligand_efficiency_ln>
-1.88079474930526

> <r_i_glide_gscore>
-7.69441116546123

> <r_i_glide_lipo>
-5.42079322696408

> <r_i_glide_hbond>
-0.32

> <r_i_glide_metal>
0

> <r_i_glide_rewards>
-1.83449857737768

> <r_i_glide_evdw>
-40.1719703674316

> <r_i_glide_ecoul>
-3.87257552146912

> <r_i_glide_erotb>
2.47036548547248

> <r_i_glide_esite>
0

> <r_i_glide_emodel>
-60.117173702568

> <r_i_glide_energy>
-44.0445458889008

> <r_i_glide_einternal>
8.39601516723633

> <i_i_glide_confnum>
171

> <i_i_glide_posenum>
383

> <r_i_glide_eff_state_penalty>
0

> <s_user_duplicate_titles>
CHEMBL2061_lig17

> <i_f3d_flags>
0

> <s_m_subgroup_title>
dock_pv

> <s_m_subgroupid>
dock_pv

> <b_m_subgroup_collapsed>
1

$$$$
CHEMBL2061_lig137
                    3D
 Schrodinger Suite 2021-1.
 70 70  0  0  1  0            999 V2000
   63.4925   45.9611   30.2028 C   0  0  0  0  0  0
   62.5125   46.9752   30.2191 C   0  0  0  0  0  0
   64.0177   45.4218   31.4055 C   0  0  0  0  0  0
   62.5184   46.8960   32.6458 C   0  0  0  0  0  0
   62.0286   47.4146   31.4461 C   0  0  0  0  0  0
   63.5411   45.9707   32.5952 C   0  0  0  0  0  0
   63.8672   45.4648   28.9870 O   0  0  0  0  0  0
   61.9508   47.5875   28.9858 C   0  0  0  0  0  0
   56.9948   45.6768   30.4624 C   0  0  0  0  0  0
   65.0969   44.2883   31.4777 C   0  0  0  0  0  0
   55.7648   45.1797   31.0128 C   0  0  0  0  0  0
   61.9049   47.2963   33.9905 C   0  0  0  0  0  0
   59.5563   46.8522   29.3328 C   0  0  0  0  0  0
   57.1710   45.9724   29.1509 C   0  0  0  0  0  0
   60.6360   47.5663   28.6588 C   0  0  0  0  0  0
   58.4109   46.5847   28.6692 C   0  0  0  0  0  0
   55.2082   45.6770   31.9809 O   0  0  0  0  0  0
   62.3134   44.5814   27.3380 C   0  0  0  0  0  0
   63.0766   44.3576   28.6048 C   0  0  0  0  0  0
   55.2968   44.0856   30.3562 O   0  0  0  0  0  0
   62.0080   43.3650   26.9392 F   0  0  0  0  0  0
   61.2090   45.2773   27.4932 F   0  0  0  0  0  0
   62.9381   48.2655   28.0393 C   0  0  0  0  0  0
   65.3320   43.7961   32.9698 C   0  0  0  0  0  0
   60.4086   46.8770   34.0016 C   0  0  0  0  0  0
   64.6790   42.9773   30.7402 C   0  0  0  0  0  0
   66.3722   44.8711   30.7848 C   0  0  0  0  0  0
   62.6078   46.7227   35.2512 C   0  0  0  0  0  0
   62.0078   48.8167   34.1388 C   0  0  0  0  0  0
   56.0371   45.7834   28.1385 C   0  0  0  0  0  0
   60.0235   45.4529   34.2338 C   0  0  0  0  0  0
   66.2954   44.6358   33.8316 C   0  0  0  0  0  0
   61.2500   48.1623   31.4600 H   0  0  0  0  0  0
   63.9269   45.6593   33.5382 H   0  0  0  0  0  0
   57.7648   45.8485   31.1997 H   0  0  0  0  0  0
   59.6769   46.5301   30.3561 H   0  0  0  0  0  0
   60.3603   48.0985   27.7586 H   0  0  0  0  0  0
   58.4084   46.8752   27.6309 H   0  0  0  0  0  0
   62.8524   45.0811   26.5399 H   0  0  0  0  0  0
   63.7477   43.5359   28.3936 H   0  0  0  0  0  0
   62.3731   43.9986   29.3605 H   0  0  0  0  0  0
   55.8920   43.8403   29.6446 H   0  0  0  0  0  0
   63.6047   48.9591   28.5386 H   0  0  0  0  0  0
   63.5540   47.5173   27.5401 H   0  0  0  0  0  0
   62.4293   48.8237   27.2537 H   0  0  0  0  0  0
   64.3737   43.7034   33.4794 H   0  0  0  0  0  0
   65.6085   42.7489   33.0600 H   0  0  0  0  0  0
   59.8655   47.4551   34.7430 H   0  0  0  0  0  0
   60.0078   47.0660   33.0142 H   0  0  0  0  0  0
   65.0297   42.0474   31.1865 H   0  0  0  0  0  0
   63.6079   42.8483   30.7116 H   0  0  0  0  0  0
   65.0929   42.9127   29.7399 H   0  0  0  0  0  0
   67.1435   44.1401   30.5397 H   0  0  0  0  0  0
   66.1350   45.2764   29.8046 H   0  0  0  0  0  0
   66.8064   45.6799   31.3672 H   0  0  0  0  0  0
   62.0813   47.0528   36.1407 H   0  0  0  0  0  0
   62.6256   45.6346   35.2810 H   0  0  0  0  0  0
   63.6396   47.0676   35.3365 H   0  0  0  0  0  0
   61.3512   49.0326   34.9831 H   0  0  0  0  0  0
   63.0245   49.1629   34.3414 H   0  0  0  0  0  0
   61.6149   49.3875   33.2933 H   0  0  0  0  0  0
   56.1083   46.4771   27.3190 H   0  0  0  0  0  0
   56.0068   44.7729   27.7430 H   0  0  0  0  0  0
   55.0616   46.0050   28.5690 H   0  0  0  0  0  0
   58.9459   45.3122   34.1392 H   0  0  0  0  0  0
   60.4075   44.8773   33.4393 H   0  0  0  0  0  0
   60.4075   45.1303   35.1985 H   0  0  0  0  0  0
   66.2306   44.3426   34.8778 H   0  0  0  0  0  0
   67.3219   44.4786   33.5181 H   0  0  0  0  0  0
   66.0976   45.7067   33.7761 H   0  0  0  0  0  0
  1  2  1  0  0  0
  1  3  2  0  0  0
  1  7  1  0  0  0
  2  5  2  0  0  0
  2  8  1  0  0  0
  3  6  1  0  0  0
  3 10  1  0  0  0
  4  6  2  0  0  0
  4 12  1  0  0  0
  4  5  1  0  0  0
  5 33  1  0  0  0
  6 34  1  0  0  0
  7 19  1  0  0  0
  8 15  2  0  0  0
  8 23  1  0  0  0
  9 14  2  0  0  0
  9 11  1  0  0  0
  9 35  1  0  0  0
 10 24  1  0  0  0
 10 26  1  0  0  0
 10 27  1  0  0  0
 11 17  2  0  0  0
 11 20  1  0  0  0
 12 25  1  0  0  0
 12 28  1  0  0  0
 12 29  1  0  0  0
 13 15  1  0  0  0
 13 16  2  0  0  0
 13 36  1  0  0  0
 14 16  1  0  0  0
 14 30  1  0  0  0
 15 37  1  0  0  0
 16 38  1  0  0  0
 18 19  1  0  0  0
 18 21  1  0  0  0
 18 22  1  0  0  0
 18 39  1  0  0  0
 19 40  1  0  0  0
 19 41  1  0  0  0
 20 42  1  0  0  0
 23 43  1  0  0  0
 23 44  1  0  0  0
 23 45  1  0  0  0
 24 32  1  0  0  0
 24 46  1  0  0  0
 24 47  1  0  0  0
 25 31  1  0  0  0
 25 48  1  0  0  0
 25 49  1  0  0  0
 26 50  1  0  0  0
 26 51  1  0  0  0
 26 52  1  0  0  0
 27 53  1  0  0  0
 27 54  1  0  0  0
 27 55  1  0  0  0
 28 56  1  0  0  0
 28 57  1  0  0  0
 28 58  1  0  0  0
 29 59  1  0  0  0
 29 60  1  0  0  0
 29 61  1  0  0  0
 30 62  1  0  0  0
 30 63  1  0  0  0
 30 64  1  0  0  0
 31 65  1  0  0  0
 31 66  1  0  0  0
 31 67  1  0  0  0
 32 68  1  0  0  0
 32 69  1  0  0  0
 32 70  1  0  0  0
M  END
> <s_m_entry_id>
31279

> <s_m_entry_name>
dock_pv.492

> <s_m_Source_Path>
/home/csk/Desktop/cluster/DUD-E-result/rxra

> <s_m_Source_File>
dock_pv.maegz

> <i_m_Source_File_Index>
492

> <chembl_id>
CHEMBL313647

> <chembl_pref_name>
None

> <i_lp_mmshare_version>
53161

> <r_lp_tautomer_probability>
1

> <s_lp_Force_Field>
OPLS_2005

> <r_lp_Energy>
38.388694

> <b_lp_Chiralities_Consistent>
1

> <s_lp_Variant>
CHEMBL2061_lig137-1

> <s_i_glide_gridfile>
glide-grid_1mv9

> <i_i_glide_lignum>
176

> <i_i_glide_rotatable_bonds>
12

> <r_i_docking_score>
-7.67823663255259

> <r_i_glide_ligand_efficiency>
-0.239944894767268

> <r_i_glide_ligand_efficiency_sa>
-0.761777555855882

> <r_i_glide_ligand_efficiency_ln>
-1.71936648285422

> <r_i_glide_gscore>
-7.67823663255259

> <r_i_glide_lipo>
-6.25280598632101

> <r_i_glide_hbond>
0

> <r_i_glide_metal>
0

> <r_i_glide_rewards>
-1.69041319006438

> <r_i_glide_evdw>
-5.33297395706177

> <r_i_glide_ecoul>
-1.76555347442627

> <r_i_glide_erotb>
0.796464262849831

> <r_i_glide_esite>
0

> <r_i_glide_emodel>
-43.6135785189582

> <r_i_glide_energy>
-7.09852743148804

> <r_i_glide_einternal>
16.823184967041

> <i_i_glide_confnum>
289

> <i_i_glide_posenum>
69

> <r_i_glide_eff_state_penalty>
0

> <s_user_duplicate_titles>
CHEMBL2061_lig137

> <i_f3d_flags>
0

> <s_m_subgroup_title>
dock_pv

> <s_m_subgroupid>
dock_pv

> <b_m_subgroup_collapsed>
1

$$$$
CHEMBL2061_lig139
                    3D
 Schrodinger Suite 2021-1.
 70 70  0  0  1  0            999 V2000
   61.7858   46.4772   32.2374 C   0  0  0  0  0  0
   63.6533   46.0307   30.7824 C   0  0  0  0  0  0
   63.1244   46.0817   32.0819 C   0  0  0  0  0  0
   61.5940   46.9299   29.8246 C   0  0  0  0  0  0
   61.0506   46.7869   31.0839 C   0  0  0  0  0  0
   62.9166   46.5936   29.7276 C   0  0  0  0  0  0
   61.1215   46.5109   33.5640 C   0  0  0  0  0  0
   57.0564   45.3884   30.4368 C   0  0  0  0  0  0
   64.9932   45.3552   30.4741 C   0  0  0  0  0  0
   56.2590   45.2294   29.2382 C   0  0  0  0  0  0
   60.8058   47.3109   28.5379 C   0  0  0  0  0  0
   58.8572   45.6874   32.8034 C   0  0  0  0  0  0
   56.6133   45.5672   31.7136 C   0  0  0  0  0  0
   59.8421   46.1373   33.7877 C   0  0  0  0  0  0
   57.5230   45.8228   32.8411 C   0  0  0  0  0  0
   56.5793   45.6803   28.1458 O   0  0  0  0  0  0
   63.9327   45.8323   33.1786 O   0  0  0  0  0  0
   55.1405   44.4769   29.3992 O   0  0  0  0  0  0
   61.9121   47.1330   34.7181 C   0  0  0  0  0  0
   65.0147   43.8092   30.6694 C   0  0  0  0  0  0
   60.6490   46.0755   27.6146 C   0  0  0  0  0  0
   65.3532   45.5326   29.0096 C   0  0  0  0  0  0
   66.0978   46.0209   31.2957 C   0  0  0  0  0  0
   59.3527   47.7921   28.7977 C   0  0  0  0  0  0
   61.5128   48.4243   27.7314 C   0  0  0  0  0  0
   55.1389   45.5788   32.0259 C   0  0  0  0  0  0
   63.9178   44.5315   33.7542 C   0  0  0  0  0  0
   61.8879   45.2317   27.2577 C   0  0  0  0  0  0
   63.8260   42.9842   30.1380 C   0  0  0  0  0  0
   65.2679   44.1821   34.3847 C   0  0  0  0  0  0
   60.0081   46.8770   31.1380 H   0  0  0  0  0  0
   63.2906   46.6916   28.7342 H   0  0  0  0  0  0
   58.1033   45.3746   30.1997 H   0  0  0  0  0  0
   59.2088   45.2770   31.8942 H   0  0  0  0  0  0
   59.6080   46.2422   34.8157 H   0  0  0  0  0  0
   57.0743   46.2114   33.7389 H   0  0  0  0  0  0
   54.8025   44.2582   28.5273 H   0  0  0  0  0  0
   62.4800   46.3910   35.2728 H   0  0  0  0  0  0
   62.6103   47.8877   34.3529 H   0  0  0  0  0  0
   61.2553   47.6259   35.4359 H   0  0  0  0  0  0
   65.8834   43.4070   30.1391 H   0  0  0  0  0  0
   65.2075   43.5783   31.7064 H   0  0  0  0  0  0
   59.9125   45.4348   28.0858 H   0  0  0  0  0  0
   60.1943   46.3783   26.6706 H   0  0  0  0  0  0
   66.4015   45.2637   28.9390 H   0  0  0  0  0  0
   64.7205   44.8783   28.4239 H   0  0  0  0  0  0
   65.2100   46.5385   28.6193 H   0  0  0  0  0  0
   67.0548   45.6753   30.9316 H   0  0  0  0  0  0
   66.0079   47.0900   31.1928 H   0  0  0  0  0  0
   66.0925   45.8308   32.3563 H   0  0  0  0  0  0
   58.8078   47.6771   27.8726 H   0  0  0  0  0  0
   58.8013   47.1685   29.4833 H   0  0  0  0  0  0
   59.2225   48.8261   29.1122 H   0  0  0  0  0  0
   60.8637   48.7939   26.9397 H   0  0  0  0  0  0
   61.7524   49.2768   28.3493 H   0  0  0  0  0  0
   62.4385   48.0982   27.2585 H   0  0  0  0  0  0
   54.9030   46.0768   32.9665 H   0  0  0  0  0  0
   54.5702   46.0770   31.2488 H   0  0  0  0  0  0
   54.8082   44.5457   31.9950 H   0  0  0  0  0  0
   63.2080   44.4993   34.5662 H   0  0  0  0  0  0
   63.6082   43.7613   33.0514 H   0  0  0  0  0  0
   61.6199   44.4721   26.5393 H   0  0  0  0  0  0
   62.6947   45.8170   26.8206 H   0  0  0  0  0  0
   62.2703   44.6807   28.1131 H   0  0  0  0  0  0
   63.5913   42.1814   30.8381 H   0  0  0  0  0  0
   62.9339   43.5913   29.9913 H   0  0  0  0  0  0
   64.0551   42.4997   29.1851 H   0  0  0  0  0  0
   65.2659   43.1223   34.5849 H   0  0  0  0  0  0
   66.1282   44.3383   33.7432 H   0  0  0  0  0  0
   65.4340   44.7205   35.3204 H   0  0  0  0  0  0
  1  3  1  0  0  0
  1  5  2  0  0  0
  1  7  1  0  0  0
  2  3  2  0  0  0
  2  9  1  0  0  0
  2  6  1  0  0  0
  3 17  1  0  0  0
  4  5  1  0  0  0
  4  6  2  0  0  0
  4 11  1  0  0  0
  5 31  1  0  0  0
  6 32  1  0  0  0
  7 14  2  0  0  0
  7 19  1  0  0  0
  8 13  2  0  0  0
  8 10  1  0  0  0
  8 33  1  0  0  0
  9 20  1  0  0  0
  9 22  1  0  0  0
  9 23  1  0  0  0
 10 16  2  0  0  0
 10 18  1  0  0  0
 11 21  1  0  0  0
 11 24  1  0  0  0
 11 25  1  0  0  0
 12 14  1  0  0  0
 12 15  2  0  0  0
 12 34  1  0  0  0
 13 15  1  0  0  0
 13 26  1  0  0  0
 14 35  1  0  0  0
 15 36  1  0  0  0
 17 27  1  0  0  0
 18 37  1  0  0  0
 19 38  1  0  0  0
 19 39  1  0  0  0
 19 40  1  0  0  0
 20 29  1  0  0  0
 20 41  1  0  0  0
 20 42  1  0  0  0
 21 28  1  0  0  0
 21 43  1  0  0  0
 21 44  1  0  0  0
 22 45  1  0  0  0
 22 46  1  0  0  0
 22 47  1  0  0  0
 23 48  1  0  0  0
 23 49  1  0  0  0
 23 50  1  0  0  0
 24 51  1  0  0  0
 24 52  1  0  0  0
 24 53  1  0  0  0
 25 54  1  0  0  0
 25 55  1  0  0  0
 25 56  1  0  0  0
 26 57  1  0  0  0
 26 58  1  0  0  0
 26 59  1  0  0  0
 27 30  1  0  0  0
 27 60  1  0  0  0
 27 61  1  0  0  0
 28 62  1  0  0  0
 28 63  1  0  0  0
 28 64  1  0  0  0
 29 65  1  0  0  0
 29 66  1  0  0  0
 29 67  1  0  0  0
 30 68  1  0  0  0
 30 69  1  0  0  0
 30 70  1  0  0  0
M  END
> <s_m_entry_id>
31280

> <s_m_entry_name>
dock_pv.493

> <s_m_Source_Path>
/home/csk/Desktop/cluster/DUD-E-result/rxra

> <s_m_Source_File>
dock_pv.maegz

> <i_m_Source_File_Index>
493

> <chembl_id>
CHEMBL315986

> <chembl_pref_name>
None

> <i_lp_mmshare_version>
53161

> <r_lp_tautomer_probability>
1

> <s_lp_Force_Field>
OPLS_2005

> <r_lp_Energy>
39.864979

> <b_lp_Chiralities_Consistent>
1

> <s_lp_Variant>
CHEMBL2061_lig139-1

> <s_i_glide_gridfile>
glide-grid_1mv9

> <i_i_glide_lignum>
178

> <i_i_glide_rotatable_bonds>
11

> <r_i_docking_score>
-7.61320034659488

> <r_i_glide_ligand_efficiency>
-0.253773344886496

> <r_i_glide_ligand_efficiency_sa>
-0.788532785481974

> <r_i_glide_ligand_efficiency_ln>
-1.7298020712081

> <r_i_glide_gscore>
-7.61320034659488

> <r_i_glide_lipo>
-5.96480446151768

> <r_i_glide_hbond>
0

> <r_i_glide_metal>
0

> <r_i_glide_rewards>
-1.92991373791484

> <r_i_glide_evdw>
-11.6186618804932

> <r_i_glide_ecoul>
0.343921065330505

> <r_i_glide_erotb>
0.810862787062723

> <r_i_glide_esite>
0

> <r_i_glide_emodel>
-46.0796422544971

> <r_i_glide_energy>
-11.2747408151627

> <r_i_glide_einternal>
13.1733236312866

> <i_i_glide_confnum>
127

> <i_i_glide_posenum>
256

> <r_i_glide_eff_state_penalty>
0

> <s_user_duplicate_titles>
CHEMBL2061_lig139

> <i_f3d_flags>
0

> <s_m_subgroup_title>
dock_pv

> <s_m_subgroupid>
dock_pv

> <b_m_subgroup_collapsed>
1

$$$$
CHEMBL2061_lig71 
                    3D
 Schrodinger Suite 2021-1.
 40 42  0  0  1  0            999 V2000
   62.0490   46.8274   34.4334 C   0  0  0  0  0  0
   63.0022   47.0074   33.4304 C   0  0  0  0  0  0
   62.6163   46.8768   32.0910 C   0  0  0  0  0  0
   60.7604   46.4066   34.1166 C   0  0  0  0  0  0
   60.4077   46.1916   32.7854 C   0  0  0  0  0  0
   61.3171   46.4771   31.7537 C   0  0  0  0  0  0
   60.8818   46.3630   30.3363 C   0  0  0  0  0  0
   59.1357   45.6995   32.5314 O   0  0  0  0  0  0
   58.6545   45.6768   31.2309 C   0  0  0  0  0  0
   59.4402   46.0312   30.1190 C   0  0  0  0  0  0
   58.8177   46.0770   28.8597 C   0  0  0  0  0  0
   57.4832   45.6957   28.7164 C   0  0  0  0  0  0
   56.7451   45.2760   29.8141 C   0  0  0  0  0  0
   57.3275   45.2797   31.0724 C   0  0  0  0  0  0
   55.4465   44.8770   29.6542 O   0  0  0  0  0  0
   59.4957   46.4773   27.7398 O   0  0  0  0  0  0
   61.6515   46.5958   29.4005 O   0  0  0  0  0  0
   62.3947   47.0329   35.7383 O   0  0  0  0  0  0
   64.3083   47.2769   33.7942 O   0  0  0  0  0  0
   65.3278   46.4678   33.1965 C   0  0  0  0  0  0
   65.0461   44.9819   33.4003 C   0  0  0  0  0  0
   64.7196   44.0570   32.4735 C   0  0  0  0  0  0
   64.6213   44.3082   30.9745 C   0  0  0  0  0  0
   64.3925   42.6412   32.9069 C   0  0  0  0  0  0
   63.3420   47.0745   31.3153 H   0  0  0  0  0  0
   60.0437   46.2256   34.8999 H   0  0  0  0  0  0
   57.0249   45.7244   27.7396 H   0  0  0  0  0  0
   56.7315   45.0333   31.9282 H   0  0  0  0  0  0
   55.2480   44.7140   28.7289 H   0  0  0  0  0  0
   60.4145   46.6753   27.9549 H   0  0  0  0  0  0
   63.3123   47.3130   35.7986 H   0  0  0  0  0  0
   66.2750   46.6970   33.6858 H   0  0  0  0  0  0
   65.4655   46.7457   32.1527 H   0  0  0  0  0  0
   65.0923   44.6704   34.4344 H   0  0  0  0  0  0
   65.2067   43.5713   30.4260 H   0  0  0  0  0  0
   64.9748   45.2906   30.6700 H   0  0  0  0  0  0
   63.5842   44.2196   30.6513 H   0  0  0  0  0  0
   64.0531   42.0210   32.0759 H   0  0  0  0  0  0
   65.2769   42.1812   33.3389 H   0  0  0  0  0  0
   63.6086   42.6431   33.6643 H   0  0  0  0  0  0
  1  2  2  0  0  0
  1  4  1  0  0  0
  1 18  1  0  0  0
  2  3  1  0  0  0
  2 19  1  0  0  0
  3  6  2  0  0  0
  3 25  1  0  0  0
  4  5  2  0  0  0
  4 26  1  0  0  0
  5  6  1  0  0  0
  5  8  1  0  0  0
  6  7  1  0  0  0
  7 10  1  0  0  0
  7 17  2  0  0  0
  8  9  1  0  0  0
  9 10  2  0  0  0
  9 14  1  0  0  0
 10 11  1  0  0  0
 11 12  2  0  0  0
 11 16  1  0  0  0
 12 13  1  0  0  0
 12 27  1  0  0  0
 13 14  2  0  0  0
 13 15  1  0  0  0
 14 28  1  0  0  0
 15 29  1  0  0  0
 16 30  1  0  0  0
 18 31  1  0  0  0
 19 20  1  0  0  0
 20 21  1  0  0  0
 20 32  1  0  0  0
 20 33  1  0  0  0
 21 22  2  0  0  0
 21 34  1  0  0  0
 22 23  1  0  0  0
 22 24  1  0  0  0
 23 35  1  0  0  0
 23 36  1  0  0  0
 23 37  1  0  0  0
 24 38  1  0  0  0
 24 39  1  0  0  0
 24 40  1  0  0  0
M  END
> <s_m_entry_id>
31281

> <s_m_entry_name>
dock_pv.494

> <s_m_Source_Path>
/home/csk/Desktop/cluster/DUD-E-result/rxra

> <s_m_Source_File>
dock_pv.maegz

> <i_m_Source_File_Index>
494

> <chembl_id>
CHEMBL4463166

> <chembl_pref_name>
None

> <i_lp_mmshare_version>
53161

> <r_lp_tautomer_probability>
1

> <s_lp_Force_Field>
OPLS_2005

> <r_lp_Energy>
27.771975

> <b_lp_Chiralities_Consistent>
1

> <s_lp_Variant>
CHEMBL2061_lig71 -1

> <s_i_glide_gridfile>
glide-grid_1mv9

> <i_i_glide_lignum>
98

> <i_i_glide_rotatable_bonds>
6

> <r_i_docking_score>
-7.5921098763358

> <r_i_glide_ligand_efficiency>
-0.316337911513992

> <r_i_glide_ligand_efficiency_sa>
-0.912476432939362

> <r_i_glide_ligand_efficiency_ln>
-1.81714027262869

> <r_i_glide_gscore>
-7.5921098763358

> <r_i_glide_lipo>
-4.88943775302615

> <r_i_glide_hbond>
0

> <r_i_glide_metal>
0

> <r_i_glide_rewards>
-1.61628984443128

> <r_i_glide_evdw>
-29.0592975616455

> <r_i_glide_ecoul>
-1.04060935974121

> <r_i_glide_erotb>
0.522674003165095

> <r_i_glide_esite>
0

> <r_i_glide_emodel>
-38.3897710365323

> <r_i_glide_energy>
-30.0999069213867

> <r_i_glide_einternal>
7.29550647735596

> <i_i_glide_confnum>
23

> <i_i_glide_posenum>
249

> <r_i_glide_eff_state_penalty>
0

> <s_user_duplicate_titles>
CHEMBL2061_lig71 

> <i_f3d_flags>
0

> <s_m_subgroup_title>
dock_pv

> <s_m_subgroupid>
dock_pv

> <b_m_subgroup_collapsed>
1

$$$$
CHEMBL2061_lig478
                    3D
 Schrodinger Suite 2021-1.
 44 47  0  0  1  0            999 V2000
   57.4694   45.4895   30.6576 C   0  0  0  0  0  0
   57.6385   45.7473   29.3039 C   0  0  0  0  0  0
   58.9050   46.0770   28.8050 C   0  0  0  0  0  0
   58.5326   45.6770   31.5320 C   0  0  0  0  0  0
   59.7926   46.0770   31.0569 C   0  0  0  0  0  0
   60.0048   46.1745   29.6771 C   0  0  0  0  0  0
   61.4065   46.3910   29.1167 C   0  0  0  0  0  0
   62.4109   46.4471   30.0728 N   0  0  0  0  0  0
   61.6170   46.4925   27.9018 O   0  0  0  0  0  0
   63.7577   46.7095   29.5616 C   0  0  0  0  0  0
   64.5892   45.4930   29.0921 C   0  0  0  0  0  0
   65.4034   44.7477   30.1690 C   0  0  0  0  0  0
   64.5570   44.0266   31.1080 N   0  0  1  0  0  0
   60.9281   46.3563   31.9597 C   0  0  0  0  0  0
   62.1645   46.4994   31.4455 C   0  0  0  0  0  0
   60.9725   46.4770   33.3995 C   0  0  0  0  0  0
   62.3667   46.6342   33.7515 C   0  0  0  0  0  0
   63.1282   46.6470   32.5913 C   0  0  0  0  0  0
   64.5209   46.7685   32.7495 C   0  0  0  0  0  0
   65.1036   46.8438   34.0160 C   0  0  0  0  0  0
   64.3052   46.8210   35.1560 C   0  0  0  0  0  0
   62.9247   46.7287   35.0268 C   0  0  0  0  0  0
   60.0080   46.3891   34.1390 O   0  0  0  0  0  0
   64.0750   42.7738   30.5484 C   0  0  0  0  0  0
   56.5241   45.6774   28.4727 N   0  0  0  0  0  0
   56.5037   45.2105   31.0513 H   0  0  0  0  0  0
   59.0363   46.2191   27.7413 H   0  0  0  0  0  0
   58.3531   45.5307   32.5854 H   0  0  0  0  0  0
   63.6898   47.4009   28.7188 H   0  0  0  0  0  0
   64.2694   47.2770   30.3198 H   0  0  0  0  0  0
   63.9727   44.8015   28.5194 H   0  0  0  0  0  0
   65.3258   45.8855   28.3947 H   0  0  0  0  0  0
   66.1478   44.0775   29.7391 H   0  0  0  0  0  0
   66.0087   45.4657   30.7146 H   0  0  0  0  0  0
   65.0082   43.8885   32.0022 H   0  0  0  0  0  0
   65.2081   46.8276   31.9317 H   0  0  0  0  0  0
   66.1760   46.9255   34.1102 H   0  0  0  0  0  0
   64.7529   46.8764   36.1369 H   0  0  0  0  0  0
   62.3048   46.7116   35.9116 H   0  0  0  0  0  0
   63.3358   42.9414   29.7636 H   0  0  0  0  0  0
   64.8959   42.1815   30.1409 H   0  0  0  0  0  0
   63.6079   42.1787   31.3324 H   0  0  0  0  0  0
   55.7054   45.1999   28.8178 H   0  0  0  0  0  0
   56.6683   45.7743   27.4785 H   0  0  0  0  0  0
  1  2  2  0  0  0
  1  4  1  0  0  0
  1 26  1  0  0  0
  2  3  1  0  0  0
  2 25  1  0  0  0
  3  6  2  0  0  0
  3 27  1  0  0  0
  4  5  2  0  0  0
  4 28  1  0  0  0
  5  6  1  0  0  0
  5 14  1  0  0  0
  6  7  1  0  0  0
  7  8  1  0  0  0
  7  9  2  0  0  0
  8 15  1  0  0  0
  8 10  1  0  0  0
 10 11  1  0  0  0
 10 29  1  0  0  0
 10 30  1  0  0  0
 11 12  1  0  0  0
 11 31  1  0  0  0
 11 32  1  0  0  0
 12 13  1  0  0  0
 12 33  1  0  0  0
 12 34  1  0  0  0
 13 24  1  0  0  0
 13 35  1  0  0  0
 14 15  2  0  0  0
 14 16  1  0  0  0
 15 18  1  0  0  0
 16 17  1  0  0  0
 16 23  2  0  0  0
 17 18  2  0  0  0
 17 22  1  0  0  0
 18 19  1  0  0  0
 19 20  2  0  0  0
 19 36  1  0  0  0
 20 21  1  0  0  0
 20 37  1  0  0  0
 21 22  2  0  0  0
 21 38  1  0  0  0
 22 39  1  0  0  0
 24 40  1  0  0  0
 24 41  1  0  0  0
 24 42  1  0  0  0
 25 43  1  0  0  0
 25 44  1  0  0  0
M  END
> <s_m_entry_id>
31283

> <s_m_entry_name>
dock_pv.496

> <s_m_Source_Path>
/home/csk/Desktop/cluster/DUD-E-result/rxra

> <s_m_Source_File>
dock_pv.maegz

> <i_m_Source_File_Index>
496

> <chembl_id>
CHEMBL2172210

> <chembl_pref_name>
None

> <i_lp_mmshare_version>
53161

> <r_lp_tautomer_probability>
1

> <s_lp_Force_Field>
OPLS_2005

> <r_lp_Energy>
48.760322

> <b_lp_Chiralities_Consistent>
1

> <s_lp_Variant>
CHEMBL2061_lig478-1

> <s_i_glide_gridfile>
glide-grid_1mv9

> <i_i_glide_lignum>
567

> <i_i_glide_rotatable_bonds>
4

> <r_i_docking_score>
-7.47645285724316

> <r_i_glide_ligand_efficiency>
-0.299058114289726

> <r_i_glide_ligand_efficiency_sa>
-0.8744512300014

> <r_i_glide_ligand_efficiency_ln>
-1.77214337837894

> <r_i_glide_gscore>
-7.47645285724316

> <r_i_glide_lipo>
-4.37509280007884

> <r_i_glide_hbond>
0

> <r_i_glide_metal>
0

> <r_i_glide_rewards>
-2.47932037952688

> <r_i_glide_evdw>
-25.1876773834229

> <r_i_glide_ecoul>
0.857561349868774

> <r_i_glide_erotb>
0.508709989053396

> <r_i_glide_esite>
0

> <r_i_glide_emodel>
-24.6261377000498

> <r_i_glide_energy>
-24.3301160335541

> <r_i_glide_einternal>
3.00086450576782

> <i_i_glide_confnum>
15

> <i_i_glide_posenum>
125

> <r_i_glide_eff_state_penalty>
0

> <s_user_duplicate_titles>
CHEMBL2061_lig478

> <i_f3d_flags>
0

> <s_m_subgroup_title>
dock_pv

> <s_m_subgroupid>
dock_pv

> <b_m_subgroup_collapsed>
1

$$$$
CHEMBL2061_lig36
                    3D
 Schrodinger Suite 2021-1.
 47 48  0  0  1  0            999 V2000
   62.0745   47.0881   34.8523 C   0  0  0  0  0  0
   62.6254   45.4641   28.7774 C   0  0  0  0  0  0
   58.5621   45.6155   31.5283 C   0  0  0  0  0  0
   58.3352   45.9204   28.5409 C   0  0  0  0  0  0
   59.1589   46.0793   32.6657 C   0  0  0  0  0  0
   59.1892   46.9722   28.4312 C   0  0  0  0  0  0
   63.4543   46.5223   28.4109 C   0  0  0  0  0  0
   63.1913   46.7973   34.0766 C   0  0  0  0  0  0
   56.9168   45.9525   28.7844 C   0  0  0  0  0  0
   57.0862   45.6439   31.3210 C   0  0  0  0  0  0
   56.4149   45.7786   30.0202 C   0  0  0  0  0  0
   60.8069   46.7905   34.3424 C   0  0  0  0  0  0
   61.2509   45.6564   28.7721 C   0  0  0  0  0  0
   60.6670   46.8484   28.3497 C   0  0  0  0  0  0
   60.6047   46.2877   33.0562 C   0  0  0  0  0  0
   56.0368   46.0766   27.7561 O   0  0  0  0  0  0
   56.3245   45.6771   32.2733 O   0  0  0  0  0  0
   63.0367   46.2849   32.7880 C   0  0  0  0  0  0
   62.9143   47.7277   27.9484 C   0  0  0  0  0  0
   61.5153   47.8881   27.9163 C   0  0  0  0  0  0
   61.7471   46.0778   32.2625 C   0  0  0  0  0  0
   62.2733   47.6734   36.0870 O   0  0  0  0  0  0
   63.1757   44.2779   29.2145 O   0  0  0  0  0  0
   64.4341   47.0353   34.6045 O   0  0  0  0  0  0
   64.8047   46.3556   28.5405 O   0  0  0  0  0  0
   62.7009   43.0906   28.5909 C   0  0  0  0  0  0
   61.2264   48.4920   36.5848 C   0  0  0  0  0  0
   64.7561   45.7593   31.7171 I   0  0  0  0  0  0
   64.2362   49.2576   27.3411 I   0  0  0  0  0  0
   59.1298   45.2122   30.7172 H   0  0  0  0  0  0
   58.6624   44.8896   28.5414 H   0  0  0  0  0  0
   58.4824   46.4133   33.4499 H   0  0  0  0  0  0
   58.8080   47.9787   28.4805 H   0  0  0  0  0  0
   55.3378   45.7568   30.1064 H   0  0  0  0  0  0
   59.9469   47.0104   34.9355 H   0  0  0  0  0  0
   60.6335   44.8696   29.1676 H   0  0  0  0  0  0
   55.1462   46.0052   28.0976 H   0  0  0  0  0  0
   61.0987   48.8261   27.5842 H   0  0  0  0  0  0
   61.6378   45.6652   31.2770 H   0  0  0  0  0  0
   64.3470   47.3995   35.4892 H   0  0  0  0  0  0
   65.3502   47.1213   28.3552 H   0  0  0  0  0  0
   63.5512   42.5087   28.2363 H   0  0  0  0  0  0
   62.1661   42.4940   29.3292 H   0  0  0  0  0  0
   62.0483   43.2577   27.7325 H   0  0  0  0  0  0
   61.5929   49.1864   37.3373 H   0  0  0  0  0  0
   60.8097   49.0663   35.7601 H   0  0  0  0  0  0
   60.4215   47.9325   37.0583 H   0  0  0  0  0  0
  1  8  2  0  0  0
  1 12  1  0  0  0
  1 22  1  0  0  0
  2 13  2  0  0  0
  2 23  1  0  0  0
  2  7  1  0  0  0
  3  5  2  0  0  0
  3 30  1  0  0  0
  3 10  1  0  0  0
  4  6  2  0  0  0
  4 31  1  0  0  0
  4  9  1  0  0  0
  5 15  1  0  0  0
  5 32  1  0  0  0
  6 14  1  0  0  0
  6 33  1  0  0  0
  7 19  2  0  0  0
  7 25  1  0  0  0
  8 18  1  0  0  0
  8 24  1  0  0  0
  9 11  2  0  0  0
  9 16  1  0  0  0
 10 11  1  0  0  0
 10 17  2  0  0  0
 11 34  1  0  0  0
 12 15  2  0  0  0
 12 35  1  0  0  0
 13 14  1  0  0  0
 13 36  1  0  0  0
 14 20  2  0  0  0
 15 21  1  0  0  0
 16 37  1  0  0  0
 18 21  2  0  0  0
 18 28  1  0  0  0
 19 20  1  0  0  0
 19 29  1  0  0  0
 20 38  1  0  0  0
 21 39  1  0  0  0
 22 27  1  0  0  0
 23 26  1  0  0  0
 24 40  1  0  0  0
 25 41  1  0  0  0
 26 42  1  0  0  0
 26 43  1  0  0  0
 26 44  1  0  0  0
 27 45  1  0  0  0
 27 46  1  0  0  0
 27 47  1  0  0  0
M  END
> <s_m_entry_id>
31284

> <s_m_entry_name>
dock_pv.497

> <s_m_Source_Path>
/home/csk/Desktop/cluster/DUD-E-result/rxra

> <s_m_Source_File>
dock_pv.maegz

> <i_m_Source_File_Index>
497

> <chembl_id>
CHEMBL2323727

> <chembl_pref_name>
None

> <i_lp_mmshare_version>
53161

> <r_lp_tautomer_probability>
0.0769230769230769

> <s_lp_Force_Field>
OPLS_2005

> <r_lp_Energy>
28.288138

> <b_lp_Chiralities_Consistent>
1

> <s_lp_Variant>
CHEMBL2061_lig36-3

> <s_i_glide_gridfile>
glide-grid_1mv9

> <i_i_glide_lignum>
44

> <i_i_glide_rotatable_bonds>
10

> <r_i_docking_score>
-7.45160407378185

> <r_i_glide_ligand_efficiency>
-0.256951864613167

> <r_i_glide_ligand_efficiency_sa>
-0.789437536156296

> <r_i_glide_ligand_efficiency_ln>
-1.70622837652034

> <r_i_glide_gscore>
-7.45160407378185

> <r_i_glide_lipo>
-5.65839838026672

> <r_i_glide_hbond>
0

> <r_i_glide_metal>
0

> <r_i_glide_rewards>
-0.984156232715292

> <r_i_glide_evdw>
-17.3773231506348

> <r_i_glide_ecoul>
-0.916477680206299

> <r_i_glide_erotb>
0.197288348762842

> <r_i_glide_esite>
0

> <r_i_glide_emodel>
-56.028635398875

> <r_i_glide_energy>
-18.2938008308411

> <r_i_glide_einternal>
9.11713218688965

> <i_i_glide_confnum>
14

> <i_i_glide_posenum>
6

> <r_i_glide_eff_state_penalty>
0

> <s_user_duplicate_titles>
CHEMBL2061_lig36

> <i_f3d_flags>
0

> <s_m_subgroup_title>
dock_pv

> <s_m_subgroupid>
dock_pv

> <b_m_subgroup_collapsed>
1

$$$$
CHEMBL2061_lig79 
                    3D
 Schrodinger Suite 2021-1.
 46 49  0  0  1  0            999 V2000
   62.0257   46.6632   34.7401 C   0  0  0  0  0  0
   60.7264   46.4888   34.2832 C   0  0  0  0  0  0
   60.4271   46.4742   32.9320 C   0  0  0  0  0  0
   63.0443   46.7983   33.8072 C   0  0  0  0  0  0
   62.7438   46.7204   32.4427 C   0  0  0  0  0  0
   61.4432   46.5473   31.9917 C   0  0  0  0  0  0
   61.4587   46.4881   30.5256 C   0  0  0  0  0  0
   62.8714   46.6959   30.1718 C   0  0  0  0  0  0
   63.6205   46.7698   31.2982 C   0  0  0  0  0  0
   63.4247   46.6758   28.7532 C   0  0  0  0  0  0
   65.1325   46.7908   31.5118 C   0  0  0  0  0  0
   65.6873   45.5508   32.2403 C   0  0  0  0  0  0
   64.9620   44.2816   31.8611 C   0  0  0  0  0  0
   64.7350   43.9019   30.5626 N   0  0  0  0  0  0
   64.1174   42.7314   30.5407 N   0  0  0  0  0  0
   64.0095   42.3678   31.8694 N   0  0  0  0  0  0
   64.4977   43.3780   32.6899 N   0  0  0  0  0  0
   60.4527   46.2737   29.6330 C   0  0  0  0  0  0
   58.9943   45.9512   29.7010 C   0  0  0  0  0  0
   58.3429   45.2260   30.7086 C   0  0  0  0  0  0
   57.0026   44.8771   30.5990 C   0  0  0  0  0  0
   56.2417   45.3296   29.5436 C   0  0  0  0  0  0
   56.8557   46.0745   28.5390 C   0  0  0  0  0  0
   58.2246   46.3475   28.6026 C   0  0  0  0  0  0
   54.9086   45.0008   29.5381 O   0  0  0  0  0  0
   54.0077   46.0774   29.3381 C   0  0  0  0  0  0
   62.2354   46.7143   35.7977 H   0  0  0  0  0  0
   59.9004   46.4320   34.9390 H   0  0  0  0  0  0
   59.3889   46.4631   32.6671 H   0  0  0  0  0  0
   64.0509   46.9526   34.1637 H   0  0  0  0  0  0
   63.2615   47.6451   28.2825 H   0  0  0  0  0  0
   64.4919   46.4610   28.7177 H   0  0  0  0  0  0
   62.9306   45.9148   28.1496 H   0  0  0  0  0  0
   65.6039   46.8636   30.5414 H   0  0  0  0  0  0
   65.4387   47.6695   32.0800 H   0  0  0  0  0  0
   66.7529   45.4534   32.0325 H   0  0  0  0  0  0
   65.6332   45.6950   33.3203 H   0  0  0  0  0  0
   64.9756   44.4218   29.7334 H   0  0  0  0  0  0
   60.7874   46.2972   28.6057 H   0  0  0  0  0  0
   58.8078   44.8760   31.5984 H   0  0  0  0  0  0
   56.5280   44.2626   31.3383 H   0  0  0  0  0  0
   56.2808   46.3996   27.6858 H   0  0  0  0  0  0
   58.6860   46.8764   27.7776 H   0  0  0  0  0  0
   52.9886   45.7165   29.4649 H   0  0  0  0  0  0
   54.0897   46.5027   28.3387 H   0  0  0  0  0  0
   54.1665   46.8724   30.0552 H   0  0  0  0  0  0
  1  2  2  0  0  0
  1  4  1  0  0  0
  1 27  1  0  0  0
  2  3  1  0  0  0
  2 28  1  0  0  0
  3  6  2  0  0  0
  3 29  1  0  0  0
  4  5  2  0  0  0
  4 30  1  0  0  0
  5  6  1  0  0  0
  5  9  1  0  0  0
  6  7  1  0  0  0
  7  8  1  0  0  0
  7 18  2  0  0  0
  8  9  2  0  0  0
  8 10  1  0  0  0
  9 11  1  0  0  0
 10 31  1  0  0  0
 10 32  1  0  0  0
 10 33  1  0  0  0
 11 12  1  0  0  0
 11 34  1  0  0  0
 11 35  1  0  0  0
 12 13  1  0  0  0
 12 36  1  0  0  0
 12 37  1  0  0  0
 13 14  1  0  0  0
 13 17  2  0  0  0
 14 15  1  0  0  0
 14 38  1  0  0  0
 15 16  2  0  0  0
 16 17  1  0  0  0
 18 19  1  0  0  0
 18 39  1  0  0  0
 19 20  2  0  0  0
 19 24  1  0  0  0
 20 21  1  0  0  0
 20 40  1  0  0  0
 21 22  2  0  0  0
 21 41  1  0  0  0
 22 23  1  0  0  0
 22 25  1  0  0  0
 23 24  2  0  0  0
 23 42  1  0  0  0
 24 43  1  0  0  0
 25 26  1  0  0  0
 26 44  1  0  0  0
 26 45  1  0  0  0
 26 46  1  0  0  0
M  END
> <s_m_entry_id>
31285

> <s_m_entry_name>
dock_pv.498

> <s_m_Source_Path>
/home/csk/Desktop/cluster/DUD-E-result/rxra

> <s_m_Source_File>
dock_pv.maegz

> <i_m_Source_File_Index>
498

> <chembl_id>
CHEMBL4458920

> <chembl_pref_name>
None

> <i_lp_mmshare_version>
53161

> <r_lp_tautomer_probability>
0.3

> <s_lp_Force_Field>
OPLS_2005

> <r_lp_Energy>
43.164212

> <b_lp_Chiralities_Consistent>
1

> <s_lp_Variant>
CHEMBL2061_lig79 -1

> <s_i_glide_gridfile>
glide-grid_1mv9

> <i_i_glide_lignum>
107

> <i_i_glide_rotatable_bonds>
5

> <r_i_docking_score>
-7.34982163295591

> <r_i_glide_ligand_efficiency>
-0.282685447421381

> <r_i_glide_ligand_efficiency_sa>
-0.837454525672318

> <r_i_glide_ligand_efficiency_ln>
-1.72608149376787

> <r_i_glide_gscore>
-7.34982163295591

> <r_i_glide_lipo>
-5.2769672117083

> <r_i_glide_hbond>
0

> <r_i_glide_metal>
0

> <r_i_glide_rewards>
-1.44335727929984

> <r_i_glide_evdw>
-28.5907154083252

> <r_i_glide_ecoul>
1.06508469581604

> <r_i_glide_erotb>
0.640275924096079

> <r_i_glide_esite>
0

> <r_i_glide_emodel>
-25.4221461562245

> <r_i_glide_energy>
-27.5256307125092

> <r_i_glide_einternal>
8.45309257507324

> <i_i_glide_confnum>
9

> <i_i_glide_posenum>
83

> <r_i_glide_eff_state_penalty>
0

> <s_user_duplicate_titles>
CHEMBL2061_lig79 ,CHEMBL2061_lig79 

> <i_f3d_flags>
0

> <s_m_subgroup_title>
dock_pv

> <s_m_subgroupid>
dock_pv

> <b_m_subgroup_collapsed>
1

$$$$
CHEMBL2061_lig520
                    3D
 Schrodinger Suite 2021-1.
 38 39  0  0  1  0            999 V2000
   61.4024   46.1159   31.5354 C   0  0  0  0  0  0
   60.2043   46.0770   30.8483 C   0  0  0  0  0  0
   60.1342   46.4572   29.5069 C   0  0  0  0  0  0
   61.3080   46.8677   28.8620 C   0  0  0  0  0  0
   62.5283   46.8770   29.5484 C   0  0  0  0  0  0
   62.5778   46.4900   30.8957 C   0  0  0  0  0  0
   63.7877   46.4035   31.6360 N   0  0  0  0  0  0
   63.9903   46.8675   32.9390 C   0  0  0  0  0  0
   65.2567   46.4770   33.3364 C   0  0  0  0  0  0
   65.8335   45.7728   32.2934 C   0  0  0  0  0  0
   64.9417   45.7355   31.2375 C   0  0  0  0  0  0
   58.7906   46.4765   28.7652 C   0  0  0  0  0  0
   57.6319   45.7119   29.4618 C   0  0  0  0  0  0
   56.2378   45.8680   28.8079 C   0  0  0  0  0  0
   55.0653   45.5297   29.7390 C   0  0  0  0  0  0
   54.0080   46.1520   29.7390 O   0  0  0  0  0  0
   55.3276   44.4770   30.5570 O   0  0  0  0  0  0
   62.9716   47.6789   33.7207 C   0  0  0  0  0  0
   65.1100   45.0636   29.8908 C   0  0  0  0  0  0
   61.4058   45.8035   32.5683 H   0  0  0  0  0  0
   59.3432   45.7540   31.4083 H   0  0  0  0  0  0
   61.2782   47.1772   27.8273 H   0  0  0  0  0  0
   63.4220   47.1871   29.0285 H   0  0  0  0  0  0
   65.7122   46.6810   34.2947 H   0  0  0  0  0  0
   66.8080   45.3156   32.3049 H   0  0  0  0  0  0
   58.9333   46.0770   27.7598 H   0  0  0  0  0  0
   58.5170   47.5248   28.6532 H   0  0  0  0  0  0
   57.5388   46.0770   30.4843 H   0  0  0  0  0  0
   57.8994   44.6549   29.5260 H   0  0  0  0  0  0
   56.1552   45.2770   27.8964 H   0  0  0  0  0  0
   56.0867   46.9055   28.5220 H   0  0  0  0  0  0
   56.2017   44.1184   30.3916 H   0  0  0  0  0  0
   63.4565   48.2983   34.4759 H   0  0  0  0  0  0
   62.4080   48.3615   33.0837 H   0  0  0  0  0  0
   62.2568   47.0479   34.2481 H   0  0  0  0  0  0
   66.0283   44.4770   29.8632 H   0  0  0  0  0  0
   64.2876   44.3854   29.6613 H   0  0  0  0  0  0
   65.1869   45.7808   29.0747 H   0  0  0  0  0  0
  1  2  2  0  0  0
  1  6  1  0  0  0
  1 20  1  0  0  0
  2  3  1  0  0  0
  2 21  1  0  0  0
  3  4  2  0  0  0
  3 12  1  0  0  0
  4  5  1  0  0  0
  4 22  1  0  0  0
  5  6  2  0  0  0
  5 23  1  0  0  0
  6  7  1  0  0  0
  7  8  1  0  0  0
  7 11  1  0  0  0
  8  9  2  0  0  0
  8 18  1  0  0  0
  9 10  1  0  0  0
  9 24  1  0  0  0
 10 11  2  0  0  0
 10 25  1  0  0  0
 11 19  1  0  0  0
 12 13  1  0  0  0
 12 26  1  0  0  0
 12 27  1  0  0  0
 13 14  1  0  0  0
 13 28  1  0  0  0
 13 29  1  0  0  0
 14 15  1  0  0  0
 14 30  1  0  0  0
 14 31  1  0  0  0
 15 16  2  0  0  0
 15 17  1  0  0  0
 17 32  1  0  0  0
 18 33  1  0  0  0
 18 34  1  0  0  0
 18 35  1  0  0  0
 19 36  1  0  0  0
 19 37  1  0  0  0
 19 38  1  0  0  0
M  END
> <s_m_entry_id>
31286

> <s_m_entry_name>
dock_pv.499

> <s_m_Source_Path>
/home/csk/Desktop/cluster/DUD-E-result/rxra

> <s_m_Source_File>
dock_pv.maegz

> <i_m_Source_File_Index>
499

> <chembl_id>
CHEMBL4167506

> <chembl_pref_name>
None

> <i_lp_mmshare_version>
53161

> <r_lp_tautomer_probability>
1

> <s_lp_Force_Field>
OPLS_2005

> <r_lp_Energy>
9.072964

> <b_lp_Chiralities_Consistent>
1

> <s_lp_Variant>
CHEMBL2061_lig520-1

> <s_i_glide_gridfile>
glide-grid_1mv9

> <i_i_glide_lignum>
620

> <i_i_glide_rotatable_bonds>
6

> <r_i_docking_score>
-7.29499413177771

> <r_i_glide_ligand_efficiency>
-0.383947059567248

> <r_i_glide_ligand_efficiency_sa>
-1.02452496576564

> <r_i_glide_ligand_efficiency_ln>
-1.84943769451323

> <r_i_glide_gscore>
-7.29499413177771

> <r_i_glide_lipo>
-3.77633656674489

> <r_i_glide_hbond>
-0.150502229109278

> <r_i_glide_metal>
0

> <r_i_glide_rewards>
-2.60490318575253

> <r_i_glide_evdw>
-32.2438697814941

> <r_i_glide_ecoul>
-3.22200751304626

> <r_i_glide_erotb>
1.33224246586063

> <r_i_glide_esite>
0

> <r_i_glide_emodel>
-49.1937973719977

> <r_i_glide_energy>
-35.4658772945404

> <r_i_glide_einternal>
5.81926441192627

> <i_i_glide_confnum>
90

> <i_i_glide_posenum>
259

> <r_i_glide_eff_state_penalty>
0

> <s_user_duplicate_titles>
CHEMBL2061_lig520

> <i_f3d_flags>
0

> <s_m_subgroup_title>
dock_pv

> <s_m_subgroupid>
dock_pv

> <b_m_subgroup_collapsed>
1

$$$$
CHEMBL2061_lig60
                    3D
 Schrodinger Suite 2021-1.
 52 54  0  0  1  0            999 V2000
   62.3913   44.6142   27.7708 C   0  0  0  0  0  0
   61.3043   45.6768   27.6236 C   0  0  0  0  0  0
   61.7002   47.0260   28.2170 C   0  0  2  0  0  0
   62.8262   44.4105   29.2312 C   0  0  0  0  0  0
   63.2368   45.7134   29.9831 C   0  0  1  0  0  0
   62.0900   46.7680   29.7184 C   0  0  1  0  0  0
   62.1230   48.0340   30.5865 C   0  0  0  0  0  0
   62.4080   47.7141   32.0241 C   0  0  0  0  0  0
   63.3021   45.4166   31.5202 C   0  0  2  0  0  0
   62.9450   46.5725   32.4661 C   0  0  0  0  0  0
   63.0583   46.3050   33.9577 C   0  0  0  0  0  0
   64.3766   45.6028   34.3329 C   0  0  1  0  0  0
   64.5090   44.2862   33.5312 C   0  0  0  0  0  0
   64.4871   44.5305   32.0171 C   0  0  0  0  0  0
   65.6037   46.5231   34.0931 C   0  0  0  0  0  0
   64.2575   45.2463   35.8061 C   0  0  0  0  0  0
   64.4080   46.0758   36.8475 C   0  0  0  0  0  0
   64.6580   46.1053   29.5335 C   0  0  0  0  0  0
   60.3499   47.7961   28.1408 C   0  0  0  0  0  0
   60.4083   48.8770   27.3390 O   0  0  0  0  0  0
   59.3325   47.4552   28.7449 O   0  0  0  0  0  0
   62.7995   47.7278   27.3387 C   0  0  0  0  0  0
   61.2101   46.2609   30.1296 H   0  0  0  0  0  0
   62.4080   44.8770   31.6816 H   0  0  0  0  0  0
   63.2080   44.9320   27.1571 H   0  0  0  0  0  0
   62.0460   43.6673   27.3535 H   0  0  0  0  0  0
   60.4592   45.2770   28.1833 H   0  0  0  0  0  0
   60.9713   45.7467   26.5881 H   0  0  0  0  0  0
   63.5909   43.6362   29.3097 H   0  0  0  0  0  0
   61.9565   43.9938   29.7378 H   0  0  0  0  0  0
   61.1359   48.4770   30.5862 H   0  0  0  0  0  0
   62.8079   48.7822   30.2130 H   0  0  0  0  0  0
   62.1493   48.4658   32.7566 H   0  0  0  0  0  0
   62.2101   45.6769   34.2359 H   0  0  0  0  0  0
   62.9414   47.2284   34.5292 H   0  0  0  0  0  0
   63.6913   43.6063   33.7807 H   0  0  0  0  0  0
   65.4265   43.7611   33.8045 H   0  0  0  0  0  0
   65.4452   44.9623   31.7336 H   0  0  0  0  0  0
   64.4537   43.5651   31.5110 H   0  0  0  0  0  0
   65.7683   46.7305   33.0364 H   0  0  0  0  0  0
   65.4747   47.5014   34.5532 H   0  0  0  0  0  0
   66.5203   46.0768   34.4822 H   0  0  0  0  0  0
   64.0079   44.2177   36.0280 H   0  0  0  0  0  0
   64.3157   45.6770   37.8460 H   0  0  0  0  0  0
   64.6183   47.1264   36.7349 H   0  0  0  0  0  0
   65.0782   46.8597   30.1989 H   0  0  0  0  0  0
   65.3421   45.2572   29.5505 H   0  0  0  0  0  0
   64.7436   46.4917   28.5316 H   0  0  0  0  0  0
   61.3009   49.0277   27.0293 H   0  0  0  0  0  0
   63.5778   47.0530   27.0020 H   0  0  0  0  0  0
   62.4310   48.0931   26.3802 H   0  0  0  0  0  0
   63.2771   48.5590   27.8584 H   0  0  0  0  0  0
  1  2  1  0  0  0
  1  4  1  0  0  0
  1 25  1  0  0  0
  1 26  1  0  0  0
  2  3  1  0  0  0
  2 27  1  0  0  0
  2 28  1  0  0  0
  3 19  1  0  0  0
  3  6  1  0  0  0
  3 22  1  0  0  0
  4  5  1  0  0  0
  4 29  1  0  0  0
  4 30  1  0  0  0
  5  9  1  0  0  0
  5 18  1  0  0  0
  5  6  1  0  0  0
  6  7  1  0  0  0
  6 23  1  0  0  0
  7  8  1  0  0  0
  7 31  1  0  0  0
  7 32  1  0  0  0
  8 10  2  0  0  0
  8 33  1  0  0  0
  9 14  1  0  0  0
  9 10  1  0  0  0
  9 24  1  0  0  0
 10 11  1  0  0  0
 11 12  1  0  0  0
 11 34  1  0  0  0
 11 35  1  0  0  0
 12 13  1  0  0  0
 12 15  1  0  0  0
 12 16  1  0  0  0
 13 14  1  0  0  0
 13 36  1  0  0  0
 13 37  1  0  0  0
 14 38  1  0  0  0
 14 39  1  0  0  0
 15 40  1  0  0  0
 15 41  1  0  0  0
 15 42  1  0  0  0
 16 17  2  0  0  0
 16 43  1  0  0  0
 17 44  1  0  0  0
 17 45  1  0  0  0
 18 46  1  0  0  0
 18 47  1  0  0  0
 18 48  1  0  0  0
 19 20  1  0  0  0
 19 21  2  0  0  0
 20 49  1  0  0  0
 22 50  1  0  0  0
 22 51  1  0  0  0
 22 52  1  0  0  0
M  END
> <s_m_entry_id>
31288

> <s_m_entry_name>
dock_pv.501

> <s_m_Source_Path>
/home/csk/Desktop/cluster/DUD-E-result/rxra

> <s_m_Source_File>
dock_pv.maegz

> <i_m_Source_File_Index>
501

> <chembl_id>
CHEMBL512164

> <chembl_pref_name>
ISOPIMARIC ACID

> <i_lp_mmshare_version>
53161

> <r_lp_tautomer_probability>
1

> <s_lp_Force_Field>
OPLS_2005

> <r_lp_Energy>
43.94808

> <b_lp_Chiralities_Consistent>
1

> <s_lp_Variant>
CHEMBL2061_lig60-1

> <s_i_glide_gridfile>
glide-grid_1mv9

> <i_i_glide_lignum>
84

> <i_i_glide_rotatable_bonds>
3

> <r_i_docking_score>
-7.22908807162793

> <r_i_glide_ligand_efficiency>
-0.328594912346724

> <r_i_glide_ligand_efficiency_sa>
-0.920735867300103

> <r_i_glide_ligand_efficiency_ln>
-1.76705281210016

> <r_i_glide_gscore>
-7.22908807162793

> <r_i_glide_lipo>
-4.29192583999461

> <r_i_glide_hbond>
0

> <r_i_glide_metal>
0

> <r_i_glide_rewards>
-2.60548702570388

> <r_i_glide_evdw>
-17.5828990936279

> <r_i_glide_ecoul>
0.966080904006958

> <r_i_glide_erotb>
0.40255761315091

> <r_i_glide_esite>
0

> <r_i_glide_emodel>
-32.0771942667308

> <r_i_glide_energy>
-16.616818189621

> <r_i_glide_einternal>
2.43743109703064

> <i_i_glide_confnum>
1

> <i_i_glide_posenum>
12

> <r_i_glide_eff_state_penalty>
0

> <s_user_duplicate_titles>
CHEMBL2061_lig60

> <i_f3d_flags>
0

> <s_m_subgroup_title>
dock_pv

> <s_m_subgroupid>
dock_pv

> <b_m_subgroup_collapsed>
1

$$$$
CHEMBL2061_lig246 
                    3D
 Schrodinger Suite 2021-1.
 51 54  0  0  1  0            999 V2000
   58.2397   45.6770   32.9191 C   0  0  0  0  0  0
   59.5188   45.8837   33.4016 C   0  0  0  0  0  0
   60.5592   46.0770   32.5102 C   0  0  0  0  0  0
   58.0160   45.6315   31.5484 C   0  0  0  0  0  0
   59.0637   45.8527   30.6459 C   0  0  0  0  0  0
   60.3454   46.0770   31.1166 C   0  0  0  0  0  0
   61.2128   46.2521   29.9327 C   0  0  0  0  0  0
   60.3365   46.2636   28.7784 C   0  0  0  0  0  0
   59.0896   45.9584   29.1947 C   0  0  0  0  0  0
   60.8080   46.4468   27.3391 C   0  0  0  0  0  0
   57.8806   45.6349   28.3682 C   0  0  0  0  0  0
   56.5779   46.4261   28.5168 C   0  0  0  0  0  0
   55.4685   45.7422   29.2374 C   0  0  0  0  0  0
   55.5185   44.4765   29.7388 N   0  0  0  0  0  0
   54.3910   44.1723   30.3499 N   0  0  0  0  0  0
   53.6080   45.2770   30.1390 N   0  0  0  0  0  0
   54.2966   46.2635   29.4504 N   0  0  0  0  0  0
   62.5555   46.3562   29.8848 C   0  0  0  0  0  0
   63.4285   46.3302   31.0396 C   0  0  0  0  0  0
   64.3952   45.3342   31.1566 C   0  0  0  0  0  0
   65.1437   45.2477   32.3225 C   0  0  0  0  0  0
   64.9115   46.1544   33.3628 C   0  0  0  0  0  0
   63.9331   47.1372   33.2357 C   0  0  0  0  0  0
   63.2338   47.2650   32.0478 C   0  0  0  0  0  0
   65.7522   46.1907   34.6215 C   0  0  0  0  0  0
   67.0819   45.4208   34.5311 C   0  0  0  0  0  0
   64.9286   45.8535   35.8809 C   0  0  0  0  0  0
   57.4124   45.6288   33.6054 H   0  0  0  0  0  0
   59.7142   45.9011   34.4624 H   0  0  0  0  0  0
   61.5068   46.1141   32.9971 H   0  0  0  0  0  0
   56.9994   45.5365   31.2458 H   0  0  0  0  0  0
   60.9708   47.5060   27.1387 H   0  0  0  0  0  0
   61.7480   45.9212   27.1718 H   0  0  0  0  0  0
   60.1073   46.0770   26.5960 H   0  0  0  0  0  0
   58.1957   45.6770   27.3390 H   0  0  0  0  0  0
   57.7174   44.5820   28.5644 H   0  0  0  0  0  0
   56.7535   47.4110   28.9390 H   0  0  0  0  0  0
   56.1759   46.4997   27.5062 H   0  0  0  0  0  0
   56.3114   43.8520   29.6986 H   0  0  0  0  0  0
   63.0535   46.4731   28.9340 H   0  0  0  0  0  0
   64.5488   44.6148   30.3647 H   0  0  0  0  0  0
   65.8946   44.4773   32.4039 H   0  0  0  0  0  0
   63.7621   47.8562   34.0239 H   0  0  0  0  0  0
   62.5000   48.0525   31.9428 H   0  0  0  0  0  0
   66.0080   47.2454   34.6527 H   0  0  0  0  0  0
   67.6080   45.6638   33.6107 H   0  0  0  0  0  0
   66.9058   44.3476   34.5390 H   0  0  0  0  0  0
   67.7672   45.6770   35.3384 H   0  0  0  0  0  0
   64.0080   46.4349   35.9341 H   0  0  0  0  0  0
   64.6458   44.8026   35.8960 H   0  0  0  0  0  0
   65.4833   46.0770   36.7920 H   0  0  0  0  0  0
  1  2  2  0  0  0
  1  4  1  0  0  0
  1 28  1  0  0  0
  2  3  1  0  0  0
  2 29  1  0  0  0
  3  6  2  0  0  0
  3 30  1  0  0  0
  4  5  2  0  0  0
  4 31  1  0  0  0
  5  6  1  0  0  0
  5  9  1  0  0  0
  6  7  1  0  0  0
  7  8  1  0  0  0
  7 18  2  0  0  0
  8  9  2  0  0  0
  8 10  1  0  0  0
  9 11  1  0  0  0
 10 32  1  0  0  0
 10 33  1  0  0  0
 10 34  1  0  0  0
 11 12  1  0  0  0
 11 35  1  0  0  0
 11 36  1  0  0  0
 12 13  1  0  0  0
 12 37  1  0  0  0
 12 38  1  0  0  0
 13 14  1  0  0  0
 13 17  2  0  0  0
 14 15  1  0  0  0
 14 39  1  0  0  0
 15 16  2  0  0  0
 16 17  1  0  0  0
 18 19  1  0  0  0
 18 40  1  0  0  0
 19 20  2  0  0  0
 19 24  1  0  0  0
 20 21  1  0  0  0
 20 41  1  0  0  0
 21 22  2  0  0  0
 21 42  1  0  0  0
 22 23  1  0  0  0
 22 25  1  0  0  0
 23 24  2  0  0  0
 23 43  1  0  0  0
 24 44  1  0  0  0
 25 26  1  0  0  0
 25 27  1  0  0  0
 25 45  1  0  0  0
 26 46  1  0  0  0
 26 47  1  0  0  0
 26 48  1  0  0  0
 27 49  1  0  0  0
 27 50  1  0  0  0
 27 51  1  0  0  0
M  END
> <s_m_entry_id>
31289

> <s_m_entry_name>
dock_pv.502

> <s_m_Source_Path>
/home/csk/Desktop/cluster/DUD-E-result/rxra

> <s_m_Source_File>
dock_pv.maegz

> <i_m_Source_File_Index>
502

> <chembl_id>
CHEMBL4531596

> <chembl_pref_name>
None

> <i_lp_mmshare_version>
53161

> <r_lp_tautomer_probability>
0.3

> <s_lp_Force_Field>
OPLS_2005

> <r_lp_Energy>
40.722227

> <b_lp_Chiralities_Consistent>
1

> <s_lp_Variant>
CHEMBL2061_lig246 -1

> <s_i_glide_gridfile>
glide-grid_1mv9

> <i_i_glide_lignum>
287

> <i_i_glide_rotatable_bonds>
5

> <r_i_docking_score>
-7.22277356592381

> <r_i_glide_ligand_efficiency>
-0.267510132071252

> <r_i_glide_ligand_efficiency_sa>
-0.802530395332087

> <r_i_glide_ligand_efficiency_ln>
-1.68134260941848

> <r_i_glide_gscore>
-7.22277356592381

> <r_i_glide_lipo>
-4.98884785179274

> <r_i_glide_hbond>
0

> <r_i_glide_metal>
0

> <r_i_glide_rewards>
-2.12854993505122

> <r_i_glide_evdw>
-5.21715831756592

> <r_i_glide_ecoul>
-1.87928211688995

> <r_i_glide_erotb>
0.60228914993902

> <r_i_glide_esite>
-0.164914695607081

> <r_i_glide_emodel>
-24.0475277585934

> <r_i_glide_energy>
-7.09644043445587

> <r_i_glide_einternal>
11.1701707839966

> <i_i_glide_confnum>
18

> <i_i_glide_posenum>
325

> <r_i_glide_eff_state_penalty>
0

> <s_user_duplicate_titles>
CHEMBL2061_lig246 

> <i_f3d_flags>
0

> <s_m_subgroup_title>
dock_pv

> <s_m_subgroupid>
dock_pv

> <b_m_subgroup_collapsed>
1

$$$$
CHEMBL2061_lig112
                    3D
 Schrodinger Suite 2021-1.
 46 46  0  0  1  0            999 V2000
   55.6926   45.2668   29.7230 P   0  0  0  0  0  0
   58.5315   45.0927   29.7796 C   0  0  1  0  0  0
   58.8527   45.6770   31.1690 C   0  0  0  0  0  0
   57.1915   44.4756   29.7390 N   0  0  3  0  0  0
   60.1429   46.0770   31.2858 N   0  0  0  0  0  0
   62.4003   46.4770   32.2229 C   0  0  0  0  0  0
   63.1837   46.9816   33.1890 N   0  0  0  0  0  0
   60.8882   46.7339   32.3669 C   0  0  2  0  0  0
   65.0038   45.5652   34.1229 C   0  0  0  0  0  0
   58.7995   46.0858   28.6078 C   0  0  0  0  0  0
   55.5533   46.4859   28.8860 O   0  0  0  0  0  0
   58.0107   45.6770   32.0732 O   0  0  0  0  0  0
   62.8256   45.8491   31.2529 O   0  0  0  0  0  0
   64.1757   44.9472   34.7891 O   0  0  0  0  0  0
   54.6597   44.0770   29.3390 O   0  0  0  0  0  0
   55.4160   45.4951   31.3007 O   0  0  0  0  0  0
   64.6348   46.7929   33.2694 C   0  0  0  0  0  0
   66.2877   45.2128   34.1390 N   0  0  0  0  0  0
   60.2322   46.5696   28.3671 C   0  0  0  0  0  0
   60.3794   46.3524   33.7797 C   0  0  0  0  0  0
   60.4651   47.9305   28.0863 C   0  0  0  0  0  0
   61.3283   45.6770   28.3144 C   0  0  0  0  0  0
   62.6005   46.1444   28.0153 C   0  0  0  0  0  0
   61.7425   48.3767   27.7727 C   0  0  0  0  0  0
   62.8077   47.4883   27.7391 C   0  0  0  0  0  0
   59.2215   44.2523   29.7390 H   0  0  0  0  0  0
   57.1902   43.4605   29.8413 H   0  0  0  0  0  0
   60.7311   45.9424   30.4719 H   0  0  0  0  0  0
   62.7551   47.4712   33.9591 H   0  0  0  0  0  0
   60.8080   47.7976   32.1661 H   0  0  0  0  0  0
   58.4404   45.6770   27.6661 H   0  0  0  0  0  0
   58.1793   46.9658   28.7776 H   0  0  0  0  0  0
   54.8599   43.5947   28.5042 H   0  0  0  0  0  0
   56.2301   45.7400   31.7969 H   0  0  0  0  0  0
   65.0659   47.6770   33.7390 H   0  0  0  0  0  0
   65.0763   46.7101   32.2745 H   0  0  0  0  0  0
   66.5622   44.4213   34.7001 H   0  0  0  0  0  0
   66.9780   45.7263   33.6138 H   0  0  0  0  0  0
   60.9634   46.8145   34.5752 H   0  0  0  0  0  0
   59.3524   46.6699   33.9443 H   0  0  0  0  0  0
   60.4081   45.2770   33.9371 H   0  0  0  0  0  0
   59.6499   48.6367   28.1390 H   0  0  0  0  0  0
   61.2080   44.6267   28.5257 H   0  0  0  0  0  0
   63.4335   45.4572   28.0051 H   0  0  0  0  0  0
   61.9106   49.4244   27.5736 H   0  0  0  0  0  0
   63.8011   47.8429   27.5062 H   0  0  0  0  0  0
  1  4  1  0  0  0
  1 11  2  0  0  0
  1 15  1  0  0  0
  1 16  1  0  0  0
  2  4  1  0  0  0
  2  3  1  0  0  0
  2 10  1  0  0  0
  2 26  1  0  0  0
  3  5  1  0  0  0
  3 12  2  0  0  0
  4 27  1  0  0  0
  5  8  1  0  0  0
  5 28  1  0  0  0
  6  8  1  0  0  0
  6  7  1  0  0  0
  6 13  2  0  0  0
  7 17  1  0  0  0
  7 29  1  0  0  0
  8 20  1  0  0  0
  8 30  1  0  0  0
  9 17  1  0  0  0
  9 14  2  0  0  0
  9 18  1  0  0  0
 10 19  1  0  0  0
 10 31  1  0  0  0
 10 32  1  0  0  0
 15 33  1  0  0  0
 16 34  1  0  0  0
 17 35  1  0  0  0
 17 36  1  0  0  0
 18 37  1  0  0  0
 18 38  1  0  0  0
 19 21  2  0  0  0
 19 22  1  0  0  0
 20 39  1  0  0  0
 20 40  1  0  0  0
 20 41  1  0  0  0
 21 24  1  0  0  0
 21 42  1  0  0  0
 22 23  2  0  0  0
 22 43  1  0  0  0
 23 25  1  0  0  0
 23 44  1  0  0  0
 24 25  2  0  0  0
 24 45  1  0  0  0
 25 46  1  0  0  0
M  END
> <s_m_entry_id>
31290

> <s_m_entry_name>
dock_pv.503

> <s_m_Source_Path>
/home/csk/Desktop/cluster/DUD-E-result/rxra

> <s_m_Source_File>
dock_pv.maegz

> <i_m_Source_File_Index>
503

> <chembl_id>
CHEMBL2372524

> <chembl_pref_name>
None

> <i_lp_mmshare_version>
53161

> <r_lp_tautomer_probability>
1

> <s_lp_Force_Field>
OPLS_2005

> <r_lp_Energy>
-23.554615

> <b_lp_Chiralities_Consistent>
1

> <s_lp_Variant>
CHEMBL2061_lig112-1

> <s_i_glide_gridfile>
glide-grid_1mv9

> <i_i_glide_lignum>
151

> <i_i_glide_rotatable_bonds>
13

> <r_i_docking_score>
-7.12772892686158

> <r_i_glide_ligand_efficiency>
-0.285109157074463

> <r_i_glide_ligand_efficiency_sa>
-0.833664231718162

> <r_i_glide_ligand_efficiency_ln>
-1.68948535646561

> <r_i_glide_gscore>
-7.12772892686158

> <r_i_glide_lipo>
-3.07223695682429

> <r_i_glide_hbond>
0

> <r_i_glide_metal>
0

> <r_i_glide_rewards>
-2.32772581067802

> <r_i_glide_evdw>
-39.4396858215332

> <r_i_glide_ecoul>
-6.73133850097656

> <r_i_glide_erotb>
1.25391890686387

> <r_i_glide_esite>
0

> <r_i_glide_emodel>
-56.9113677814838

> <r_i_glide_energy>
-46.1710243225098

> <r_i_glide_einternal>
9.81631565093994

> <i_i_glide_confnum>
16

> <i_i_glide_posenum>
85

> <r_i_glide_eff_state_penalty>
0

> <s_user_duplicate_titles>
CHEMBL2061_lig112

> <i_f3d_flags>
0

> <s_m_subgroup_title>
dock_pv

> <s_m_subgroupid>
dock_pv

> <b_m_subgroup_collapsed>
1

$$$$
CHEMBL2061_lig62
                    3D
 Schrodinger Suite 2021-1.
 39 40  0  0  1  0            999 V2000
   56.5314   46.0770   28.1872 O   0  0  0  0  0  0
   56.9025   44.4770   29.7390 O   0  0  0  0  0  0
   62.1490   45.7429   28.4724 C   0  0  1  0  0  0
   61.6572   46.7286   29.5170 C   0  0  0  0  0  0
   60.5760   47.7091   29.0357 C   0  0  1  0  0  0
   62.7588   46.5456   27.2987 C   0  0  1  0  0  0
   62.3219   46.6107   30.6866 C   0  0  0  0  0  0
   63.0814   44.8226   29.2526 C   0  0  0  0  0  0
   63.3465   45.4934   30.5961 C   0  0  0  0  0  0
   61.1510   48.4770   27.8190 C   0  0  0  0  0  0
   61.6780   47.5168   26.7556 C   0  0  0  0  0  0
   59.2241   47.0399   28.7067 C   0  0  0  0  0  0
   58.5431   46.1555   29.4780 C   0  0  0  0  0  0
   64.0998   47.2821   27.5178 C   0  0  0  0  0  0
   62.2129   47.4252   31.9574 C   0  0  0  0  0  0
   57.2493   45.6135   29.0680 C   0  0  0  0  0  0
   59.0787   45.6770   30.8170 C   0  0  0  0  0  0
   61.3092   45.1532   28.1010 H   0  0  0  0  0  0
   57.6132   44.1905   30.3147 H   0  0  0  0  0  0
   60.4080   48.4770   29.7758 H   0  0  0  0  0  0
   62.9493   45.7921   26.5390 H   0  0  0  0  0  0
   64.0080   44.6013   28.7226 H   0  0  0  0  0  0
   62.5829   43.8686   29.4322 H   0  0  0  0  0  0
   63.2561   44.7808   31.4159 H   0  0  0  0  0  0
   64.3519   45.9137   30.6502 H   0  0  0  0  0  0
   61.9556   49.1375   28.1390 H   0  0  0  0  0  0
   60.4080   49.1379   27.3742 H   0  0  0  0  0  0
   60.8080   46.9585   26.4059 H   0  0  0  0  0  0
   62.0711   48.0770   25.9101 H   0  0  0  0  0  0
   58.8080   47.3176   27.7517 H   0  0  0  0  0  0
   63.9800   48.1647   28.1390 H   0  0  0  0  0  0
   64.8450   46.6484   27.9975 H   0  0  0  0  0  0
   64.5202   47.6167   26.5687 H   0  0  0  0  0  0
   63.2080   47.6770   32.3220 H   0  0  0  0  0  0
   61.6548   48.3475   31.7975 H   0  0  0  0  0  0
   61.7108   46.8450   32.7316 H   0  0  0  0  0  0
   58.3330   45.3221   31.5300 H   0  0  0  0  0  0
   59.7622   44.8770   30.5390 H   0  0  0  0  0  0
   59.6428   46.4515   31.3314 H   0  0  0  0  0  0
  1 16  2  0  0  0
  2 16  1  0  0  0
  2 19  1  0  0  0
  3  4  1  0  0  0
  3  6  1  0  0  0
  3  8  1  0  0  0
  3 18  1  0  0  0
  4  5  1  0  0  0
  4  7  2  0  0  0
  5 10  1  0  0  0
  5 12  1  0  0  0
  5 20  1  0  0  0
  6 11  1  0  0  0
  6 14  1  0  0  0
  6 21  1  0  0  0
  7  9  1  0  0  0
  7 15  1  0  0  0
  8  9  1  0  0  0
  8 22  1  0  0  0
  8 23  1  0  0  0
  9 24  1  0  0  0
  9 25  1  0  0  0
 10 11  1  0  0  0
 10 26  1  0  0  0
 10 27  1  0  0  0
 11 28  1  0  0  0
 11 29  1  0  0  0
 12 13  2  0  0  0
 12 30  1  0  0  0
 13 16  1  0  0  0
 13 17  1  0  0  0
 14 31  1  0  0  0
 14 32  1  0  0  0
 14 33  1  0  0  0
 15 34  1  0  0  0
 15 35  1  0  0  0
 15 36  1  0  0  0
 17 37  1  0  0  0
 17 38  1  0  0  0
 17 39  1  0  0  0
M  END
> <s_m_entry_id>
31291

> <s_m_entry_name>
dock_pv.504

> <s_m_Source_Path>
/home/csk/Desktop/cluster/DUD-E-result/rxra

> <s_m_Source_File>
dock_pv.maegz

> <i_m_Source_File_Index>
504

> <chembl_id>
CHEMBL1545045

> <chembl_pref_name>
VALERENIC ACID

> <i_lp_mmshare_version>
53161

> <r_lp_tautomer_probability>
1

> <s_lp_Force_Field>
OPLS_2005

> <r_lp_Energy>
27.043174

> <b_lp_Chiralities_Consistent>
1

> <s_lp_Variant>
CHEMBL2061_lig62-1

> <s_i_glide_gridfile>
glide-grid_1mv9

> <i_i_glide_lignum>
86

> <i_i_glide_rotatable_bonds>
3

> <r_i_docking_score>
-7.12134014286146

> <r_i_glide_ligand_efficiency>
-0.418902361344792

> <r_i_glide_ligand_efficiency_sa>
-1.07711592899189

> <r_i_glide_ligand_efficiency_ln>
-1.85779905882458

> <r_i_glide_gscore>
-7.12134014286146

> <r_i_glide_lipo>
-3.6616166335622

> <r_i_glide_hbond>
0

> <r_i_glide_metal>
0

> <r_i_glide_rewards>
-2.81576153535716

> <r_i_glide_evdw>
-22.9158897399902

> <r_i_glide_ecoul>
-0.82399845123291

> <r_i_glide_erotb>
0.625432280742343

> <r_i_glide_esite>
0

> <r_i_glide_emodel>
-29.3365270223045

> <r_i_glide_energy>
-23.7398881912231

> <r_i_glide_einternal>
4.23822069168091

> <i_i_glide_confnum>
4

> <i_i_glide_posenum>
48

> <r_i_glide_eff_state_penalty>
0

> <s_user_duplicate_titles>
CHEMBL2061_lig62

> <i_f3d_flags>
0

> <s_m_subgroup_title>
dock_pv

> <s_m_subgroupid>
dock_pv

> <b_m_subgroup_collapsed>
1

$$$$
CHEMBL2061_lig474
                    3D
 Schrodinger Suite 2021-1.
 60 61  0  0  1  0            999 V2000
   64.6773   45.7515   31.4635 C   0  0  0  0  0  0
   63.5308   46.3525   32.0231 C   0  0  0  0  0  0
   62.4367   46.6428   31.1930 C   0  0  0  0  0  0
   62.4472   46.3182   29.8330 C   0  0  0  0  0  0
   63.5781   45.6999   29.2985 C   0  0  0  0  0  0
   64.6826   45.4298   30.1010 C   0  0  0  0  0  0
   65.8932   45.3330   32.3083 C   0  0  0  0  0  0
   65.5521   44.1014   33.1595 C   0  0  0  0  0  0
   63.5325   46.6445   33.3722 O   0  0  0  0  0  0
   61.3566   46.6295   28.9857 N   0  0  0  0  0  0
   60.0023   46.2800   29.2549 C   0  0  0  0  0  0
   61.5468   47.9482   28.3368 C   0  0  0  0  0  0
   62.7912   48.0841   27.4374 C   0  0  0  0  0  0
   59.6921   45.6772   30.4370 N   0  0  0  0  0  0
   58.4068   45.3349   30.7089 C   0  0  0  0  0  0
   57.3652   45.5202   29.7984 C   0  0  0  0  0  0
   57.6908   46.0770   28.5580 C   0  0  0  0  0  0
   59.0024   46.4737   28.2919 C   0  0  0  0  0  0
   55.9403   45.2172   30.1755 C   0  0  0  0  0  0
   55.5346   45.2769   31.3349 O   0  0  0  0  0  0
   55.1388   44.8763   29.1313 O   0  0  0  0  0  0
   62.3032   46.8211   34.0749 C   0  0  0  0  0  0
   66.5275   46.4615   33.1509 C   0  0  0  0  0  0
   62.5936   47.1410   35.5554 C   0  0  0  0  0  0
   63.7875   46.3791   36.1702 C   0  0  0  0  0  0
   63.6684   44.8416   36.2072 C   0  0  0  0  0  0
   62.9253   44.2680   37.4389 C   0  0  0  0  0  0
   63.1214   42.7809   37.7952 C   0  0  0  0  0  0
   61.5648   47.1352   31.5914 H   0  0  0  0  0  0
   63.6070   45.4384   28.2509 H   0  0  0  0  0  0
   65.5460   44.9551   29.6574 H   0  0  0  0  0  0
   66.6791   45.0139   31.6209 H   0  0  0  0  0  0
   65.2069   43.2735   32.5404 H   0  0  0  0  0  0
   66.4073   43.7530   33.7388 H   0  0  0  0  0  0
   64.7530   44.3219   33.8526 H   0  0  0  0  0  0
   60.6926   48.2583   27.7397 H   0  0  0  0  0  0
   61.6080   48.6942   29.1291 H   0  0  0  0  0  0
   62.8010   49.0528   26.9405 H   0  0  0  0  0  0
   63.7200   48.0227   28.0020 H   0  0  0  0  0  0
   62.8091   47.3188   26.6613 H   0  0  0  0  0  0
   58.2250   44.9197   31.6906 H   0  0  0  0  0  0
   56.9322   46.2387   27.8077 H   0  0  0  0  0  0
   59.2292   46.8930   27.3284 H   0  0  0  0  0  0
   55.6305   44.6572   28.3376 H   0  0  0  0  0  0
   61.7048   45.9113   34.0006 H   0  0  0  0  0  0
   61.7129   47.6367   33.6565 H   0  0  0  0  0  0
   66.9105   47.2714   32.5390 H   0  0  0  0  0  0
   65.8404   46.9126   33.8546 H   0  0  0  0  0  0
   67.3650   46.0849   33.7383 H   0  0  0  0  0  0
   61.6881   46.9661   36.1380 H   0  0  0  0  0  0
   62.7981   48.2098   35.6428 H   0  0  0  0  0  0
   64.0082   46.7629   37.1659 H   0  0  0  0  0  0
   64.6793   46.6427   35.6093 H   0  0  0  0  0  0
   64.6860   44.4811   36.1391 H   0  0  0  0  0  0
   63.2083   44.4792   35.2946 H   0  0  0  0  0  0
   61.8610   44.4764   37.3317 H   0  0  0  0  0  0
   63.2360   44.8238   38.3163 H   0  0  0  0  0  0
   62.2834   42.4211   38.3926 H   0  0  0  0  0  0
   64.0076   42.6143   38.4024 H   0  0  0  0  0  0
   63.2085   42.1263   36.9391 H   0  0  0  0  0  0
  1  2  2  0  0  0
  1  7  1  0  0  0
  1  6  1  0  0  0
  2  9  1  0  0  0
  2  3  1  0  0  0
  3  4  2  0  0  0
  3 29  1  0  0  0
  4  5  1  0  0  0
  4 10  1  0  0  0
  5  6  2  0  0  0
  5 30  1  0  0  0
  6 31  1  0  0  0
  7  8  1  0  0  0
  7 23  1  0  0  0
  7 32  1  0  0  0
  8 33  1  0  0  0
  8 34  1  0  0  0
  8 35  1  0  0  0
  9 22  1  0  0  0
 10 11  1  0  0  0
 10 12  1  0  0  0
 11 14  2  0  0  0
 11 18  1  0  0  0
 12 13  1  0  0  0
 12 36  1  0  0  0
 12 37  1  0  0  0
 13 38  1  0  0  0
 13 39  1  0  0  0
 13 40  1  0  0  0
 14 15  1  0  0  0
 15 16  2  0  0  0
 15 41  1  0  0  0
 16 17  1  0  0  0
 16 19  1  0  0  0
 17 18  2  0  0  0
 17 42  1  0  0  0
 18 43  1  0  0  0
 19 20  2  0  0  0
 19 21  1  0  0  0
 21 44  1  0  0  0
 22 24  1  0  0  0
 22 45  1  0  0  0
 22 46  1  0  0  0
 23 47  1  0  0  0
 23 48  1  0  0  0
 23 49  1  0  0  0
 24 25  1  0  0  0
 24 50  1  0  0  0
 24 51  1  0  0  0
 25 26  1  0  0  0
 25 52  1  0  0  0
 25 53  1  0  0  0
 26 27  1  0  0  0
 26 54  1  0  0  0
 26 55  1  0  0  0
 27 28  1  0  0  0
 27 56  1  0  0  0
 27 57  1  0  0  0
 28 58  1  0  0  0
 28 59  1  0  0  0
 28 60  1  0  0  0
M  END
> <s_m_entry_id>
31292

> <s_m_entry_name>
dock_pv.505

> <s_m_Source_Path>
/home/csk/Desktop/cluster/DUD-E-result/rxra

> <s_m_Source_File>
dock_pv.maegz

> <i_m_Source_File_Index>
505

> <chembl_id>
CHEMBL1688391

> <chembl_pref_name>
None

> <i_lp_mmshare_version>
53161

> <r_lp_tautomer_probability>
1

> <s_lp_Force_Field>
OPLS_2005

> <r_lp_Energy>
23.157345

> <b_lp_Chiralities_Consistent>
1

> <s_lp_Variant>
CHEMBL2061_lig474-1

> <s_i_glide_gridfile>
glide-grid_1mv9

> <i_i_glide_lignum>
563

> <i_i_glide_rotatable_bonds>
12

> <r_i_docking_score>
-7.10570981019457

> <r_i_glide_ligand_efficiency>
-0.253775350364092

> <r_i_glide_ligand_efficiency_sa>
-0.770611429393539

> <r_i_glide_ligand_efficiency_ln>
-1.64020645689859

> <r_i_glide_gscore>
-7.10570981019457

> <r_i_glide_lipo>
-6.26616528024502

> <r_i_glide_hbond>
0

> <r_i_glide_metal>
0

> <r_i_glide_rewards>
0.619161117291089

> <r_i_glide_evdw>
-45.5915565490723

> <r_i_glide_ecoul>
-1.54127752780914

> <r_i_glide_erotb>
1.05206380938434

> <r_i_glide_esite>
0

> <r_i_glide_emodel>
-47.3533372109082

> <r_i_glide_energy>
-47.1328340768814

> <r_i_glide_einternal>
12.4511709213257

> <i_i_glide_confnum>
191

> <i_i_glide_posenum>
18

> <r_i_glide_eff_state_penalty>
0

> <s_user_duplicate_titles>
CHEMBL2061_lig474

> <i_f3d_flags>
0

> <s_m_subgroup_title>
dock_pv

> <s_m_subgroupid>
dock_pv

> <b_m_subgroup_collapsed>
1

$$$$
CHEMBL2061_lig72 
                    3D
 Schrodinger Suite 2021-1.
 28 29  0  0  1  0            999 V2000
   61.2049   46.2870   29.7447 C   0  0  0  0  0  0
   62.3791   46.0866   29.0322 C   0  0  0  0  0  0
   63.5987   45.9764   29.6954 C   0  0  0  0  0  0
   61.2463   46.4006   31.1270 C   0  0  0  0  0  0
   62.4677   46.3295   31.7853 C   0  0  0  0  0  0
   63.6623   46.0898   31.0923 C   0  0  0  0  0  0
   64.9294   45.9299   31.8707 C   0  0  0  0  0  0
   64.7669   46.0771   33.3022 C   0  0  0  0  0  0
   63.5690   46.3347   33.8666 C   0  0  0  0  0  0
   62.4195   46.4680   33.1561 O   0  0  0  0  0  0
   66.0080   45.6792   31.3392 O   0  0  0  0  0  0
   63.2744   46.4903   35.3529 C   0  0  0  0  0  0
   60.0088   46.3580   29.0899 O   0  0  0  0  0  0
   64.7137   45.7562   28.9393 O   0  0  0  0  0  0
   63.1337   47.9707   35.7472 C   0  0  0  0  0  0
   64.2562   45.7333   36.2748 C   0  0  0  0  0  0
   62.3423   45.9996   27.9549 H   0  0  0  0  0  0
   60.3460   46.4837   31.7118 H   0  0  0  0  0  0
   65.6420   45.9795   33.9248 H   0  0  0  0  0  0
   62.2993   46.0259   35.5154 H   0  0  0  0  0  0
   59.2713   46.4500   29.6936 H   0  0  0  0  0  0
   65.5124   45.7420   29.4804 H   0  0  0  0  0  0
   62.4069   48.4776   35.1094 H   0  0  0  0  0  0
   62.7806   48.0768   36.7709 H   0  0  0  0  0  0
   64.0816   48.5029   35.6587 H   0  0  0  0  0  0
   64.2390   44.6654   36.0545 H   0  0  0  0  0  0
   65.2813   46.0781   36.1533 H   0  0  0  0  0  0
   64.0092   45.8487   37.3286 H   0  0  0  0  0  0
  1  2  2  0  0  0
  1  4  1  0  0  0
  1 13  1  0  0  0
  2  3  1  0  0  0
  2 17  1  0  0  0
  3  6  2  0  0  0
  3 14  1  0  0  0
  4  5  2  0  0  0
  4 18  1  0  0  0
  5  6  1  0  0  0
  5 10  1  0  0  0
  6  7  1  0  0  0
  7  8  1  0  0  0
  7 11  2  0  0  0
  8  9  2  0  0  0
  8 19  1  0  0  0
  9 10  1  0  0  0
  9 12  1  0  0  0
 12 15  1  0  0  0
 12 16  1  0  0  0
 12 20  1  0  0  0
 13 21  1  0  0  0
 14 22  1  0  0  0
 15 23  1  0  0  0
 15 24  1  0  0  0
 15 25  1  0  0  0
 16 26  1  0  0  0
 16 27  1  0  0  0
 16 28  1  0  0  0
M  END
> <s_m_entry_id>
31293

> <s_m_entry_name>
dock_pv.506

> <s_m_Source_Path>
/home/csk/Desktop/cluster/DUD-E-result/rxra

> <s_m_Source_File>
dock_pv.maegz

> <i_m_Source_File_Index>
506

> <chembl_id>
CHEMBL4467860

> <chembl_pref_name>
None

> <i_lp_mmshare_version>
53161

> <r_lp_tautomer_probability>
1

> <s_lp_Force_Field>
OPLS_2005

> <r_lp_Energy>
7.882477

> <b_lp_Chiralities_Consistent>
1

> <s_lp_Variant>
CHEMBL2061_lig72 -1

> <s_i_glide_gridfile>
glide-grid_1mv9

> <i_i_glide_lignum>
99

> <i_i_glide_rotatable_bonds>
3

> <r_i_docking_score>
-7.06323287631595

> <r_i_glide_ligand_efficiency>
-0.441452054769747

> <r_i_glide_ligand_efficiency_sa>
-1.11238947161943

> <r_i_glide_ligand_efficiency_ln>
-1.87225096514696

> <r_i_glide_gscore>
-7.06323287631595

> <r_i_glide_lipo>
-3.24022665012762

> <r_i_glide_hbond>
0

> <r_i_glide_metal>
0

> <r_i_glide_rewards>
-2.3072586075131

> <r_i_glide_evdw>
-28.345085144043

> <r_i_glide_ecoul>
-0.656622409820557

> <r_i_glide_erotb>
0

> <r_i_glide_esite>
0

> <r_i_glide_emodel>
-40.2619669664773

> <r_i_glide_energy>
-29.0017075538635

> <r_i_glide_einternal>
1.7447270154953

> <i_i_glide_confnum>
1

> <i_i_glide_posenum>
189

> <r_i_glide_eff_state_penalty>
0

> <s_user_duplicate_titles>
CHEMBL2061_lig72 

> <i_f3d_flags>
0

> <s_m_subgroup_title>
dock_pv

> <s_m_subgroupid>
dock_pv

> <b_m_subgroup_collapsed>
1

$$$$
CHEMBL2061_lig477
                    3D
 Schrodinger Suite 2021-1.
 61 63  0  0  1  0            999 V2000
   63.4833   46.3037   35.2861 C   0  0  0  0  0  0
   62.1991   46.1020   34.7767 C   0  0  0  0  0  0
   61.2070   47.0426   34.9624 C   0  0  0  0  0  0
   61.5254   48.2092   35.6336 C   0  0  0  0  0  0
   62.8076   48.4601   36.0987 C   0  0  0  0  0  0
   63.7743   47.4762   35.9695 C   0  0  0  0  0  0
   63.8816   44.8841   30.1770 C   0  0  0  0  0  0
   63.1803   45.6781   31.0829 C   0  0  0  0  0  0
   61.9758   46.2753   30.7108 C   0  0  0  0  0  0
   61.4698   46.0757   29.4213 C   0  0  0  0  0  0
   62.2190   45.3690   28.4888 C   0  0  0  0  0  0
   63.4239   44.8038   28.8645 C   0  0  0  0  0  0
   65.0478   44.0073   30.6245 C   0  0  0  0  0  0
   66.4037   44.5519   30.1396 C   0  0  0  0  0  0
   63.5916   45.7657   32.3759 O   0  0  0  0  0  0
   60.2491   46.6000   28.9793 N   0  0  0  0  0  0
   58.9818   46.1776   29.4254 C   0  0  0  0  0  0
   60.3420   48.0482   28.7612 C   0  0  0  0  0  0
   61.4182   48.4773   27.7422 C   0  0  0  0  0  0
   57.9771   46.2968   28.5332 N   0  0  0  0  0  0
   56.7204   45.9318   28.8712 C   0  0  0  0  0  0
   56.3996   45.4023   30.1179 C   0  0  0  0  0  0
   57.4441   45.2769   31.0500 C   0  0  0  0  0  0
   58.7399   45.6769   30.7067 C   0  0  0  0  0  0
   54.9683   45.0856   30.4456 C   0  0  0  0  0  0
   54.0207   45.6767   29.9290 O   0  0  0  0  0  0
   54.8083   44.0774   31.3387 O   0  0  0  0  0  0
   64.7571   42.5444   30.2426 C   0  0  0  0  0  0
   64.7312   46.5691   32.6499 C   0  0  0  0  0  0
   65.5144   45.9106   33.8081 C   0  0  0  0  0  0
   64.6140   45.3494   34.9389 C   0  0  0  0  0  0
   61.9717   45.2771   34.1391 H   0  0  0  0  0  0
   60.2210   46.8915   34.5463 H   0  0  0  0  0  0
   60.7903   48.9711   35.7419 H   0  0  0  0  0  0
   63.0517   49.4124   36.5390 H   0  0  0  0  0  0
   64.7639   47.6366   36.3409 H   0  0  0  0  0  0
   61.4285   46.8589   31.4351 H   0  0  0  0  0  0
   61.8598   45.2447   27.4772 H   0  0  0  0  0  0
   63.9746   44.2370   28.1394 H   0  0  0  0  0  0
   65.0918   43.9961   31.7123 H   0  0  0  0  0  0
   66.7660   45.3357   30.8000 H   0  0  0  0  0  0
   67.1812   43.7926   30.1241 H   0  0  0  0  0  0
   66.3329   44.9947   29.1531 H   0  0  0  0  0  0
   59.3829   48.4760   28.4651 H   0  0  0  0  0  0
   60.5756   48.4769   29.7340 H   0  0  0  0  0  0
   61.4728   49.5609   27.6697 H   0  0  0  0  0  0
   62.4172   48.1489   28.0293 H   0  0  0  0  0  0
   61.2002   48.0768   26.7507 H   0  0  0  0  0  0
   55.9698   46.0762   28.1062 H   0  0  0  0  0  0
   57.2675   44.9473   32.0600 H   0  0  0  0  0  0
   59.5191   45.6750   31.4502 H   0  0  0  0  0  0
   55.6438   43.6567   31.5497 H   0  0  0  0  0  0
   63.9644   42.1354   30.8719 H   0  0  0  0  0  0
   64.4076   42.4767   29.2154 H   0  0  0  0  0  0
   65.6079   41.8785   30.3336 H   0  0  0  0  0  0
   65.3705   46.7495   31.7850 H   0  0  0  0  0  0
   64.3636   47.5440   32.9660 H   0  0  0  0  0  0
   66.1481   45.1103   33.4266 H   0  0  0  0  0  0
   66.2015   46.6503   34.2182 H   0  0  0  0  0  0
   64.1917   44.3883   34.6385 H   0  0  0  0  0  0
   65.2054   45.1414   35.8303 H   0  0  0  0  0  0
  1  6  1  0  0  0
  1  2  2  0  0  0
  1 31  1  0  0  0
  2  3  1  0  0  0
  2 32  1  0  0  0
  3  4  2  0  0  0
  3 33  1  0  0  0
  4  5  1  0  0  0
  4 34  1  0  0  0
  5  6  2  0  0  0
  5 35  1  0  0  0
  6 36  1  0  0  0
  7  8  2  0  0  0
  7 12  1  0  0  0
  7 13  1  0  0  0
  8 15  1  0  0  0
  8  9  1  0  0  0
  9 10  2  0  0  0
  9 37  1  0  0  0
 10 16  1  0  0  0
 10 11  1  0  0  0
 11 12  2  0  0  0
 11 38  1  0  0  0
 12 39  1  0  0  0
 13 14  1  0  0  0
 13 28  1  0  0  0
 13 40  1  0  0  0
 14 41  1  0  0  0
 14 42  1  0  0  0
 14 43  1  0  0  0
 15 29  1  0  0  0
 16 17  1  0  0  0
 16 18  1  0  0  0
 17 20  2  0  0  0
 17 24  1  0  0  0
 18 19  1  0  0  0
 18 44  1  0  0  0
 18 45  1  0  0  0
 19 46  1  0  0  0
 19 47  1  0  0  0
 19 48  1  0  0  0
 20 21  1  0  0  0
 21 22  2  0  0  0
 21 49  1  0  0  0
 22 23  1  0  0  0
 22 25  1  0  0  0
 23 24  2  0  0  0
 23 50  1  0  0  0
 24 51  1  0  0  0
 25 26  2  0  0  0
 25 27  1  0  0  0
 27 52  1  0  0  0
 28 53  1  0  0  0
 28 54  1  0  0  0
 28 55  1  0  0  0
 29 30  1  0  0  0
 29 56  1  0  0  0
 29 57  1  0  0  0
 30 31  1  0  0  0
 30 58  1  0  0  0
 30 59  1  0  0  0
 31 60  1  0  0  0
 31 61  1  0  0  0
M  END
> <s_m_entry_id>
31295

> <s_m_entry_name>
dock_pv.508

> <s_m_Source_Path>
/home/csk/Desktop/cluster/DUD-E-result/rxra

> <s_m_Source_File>
dock_pv.maegz

> <i_m_Source_File_Index>
508

> <chembl_id>
CHEMBL1688394

> <chembl_pref_name>
None

> <i_lp_mmshare_version>
53161

> <r_lp_tautomer_probability>
1

> <s_lp_Force_Field>
OPLS_2005

> <r_lp_Energy>
26.119122

> <b_lp_Chiralities_Consistent>
1

> <s_lp_Variant>
CHEMBL2061_lig477-1

> <s_i_glide_gridfile>
glide-grid_1mv9

> <i_i_glide_lignum>
566

> <i_i_glide_rotatable_bonds>
11

> <r_i_docking_score>
-6.94300428207814

> <r_i_glide_ligand_efficiency>
-0.223967880067037

> <r_i_glide_ligand_efficiency_sa>
-0.703568364394357

> <r_i_glide_ligand_efficiency_ln>
-1.56586024313625

> <r_i_glide_gscore>
-6.94300428207814

> <r_i_glide_lipo>
-6.62327489734147

> <r_i_glide_hbond>
-0.146999557147944

> <r_i_glide_metal>
0

> <r_i_glide_rewards>
1.53298731057219

> <r_i_glide_evdw>
-36.407886505127

> <r_i_glide_ecoul>
-4.5038537979126

> <r_i_glide_erotb>
0.790255256782317

> <r_i_glide_esite>
0

> <r_i_glide_emodel>
-46.8805236201374

> <r_i_glide_energy>
-40.9117403030396

> <r_i_glide_einternal>
21.8132877349854

> <i_i_glide_confnum>
54

> <i_i_glide_posenum>
19

> <r_i_glide_eff_state_penalty>
0

> <s_user_duplicate_titles>
CHEMBL2061_lig477

> <i_f3d_flags>
0

> <s_m_subgroup_title>
dock_pv

> <s_m_subgroupid>
dock_pv

> <b_m_subgroup_collapsed>
1

$$$$
CHEMBL2061_lig242
                    3D
 Schrodinger Suite 2021-1.
 49 50  0  0  1  0            999 V2000
   55.9352   45.2402   30.5142 C   0  0  0  0  0  0
   57.3199   45.5477   29.9863 C   0  0  0  0  0  0
   58.4626   45.6765   30.8116 C   0  0  0  0  0  0
   59.6928   46.0770   30.2544 C   0  0  0  0  0  0
   59.7986   46.4091   28.8983 C   0  0  0  0  0  0
   58.6905   46.2128   28.1057 C   0  0  0  0  0  0
   57.4668   45.8054   28.6218 C   0  0  0  0  0  0
   55.5049   45.6768   31.5790 O   0  0  0  0  0  0
   55.1746   44.4770   29.6802 O   0  0  0  0  0  0
   58.4080   45.4490   32.3208 C   0  0  0  0  0  0
   62.2024   47.0061   28.3358 C   0  0  0  0  0  0
   62.8372   46.3095   29.4891 C   0  0  0  0  0  0
   63.4986   45.0980   29.2949 C   0  0  0  0  0  0
   64.0605   44.4372   30.3797 C   0  0  0  0  0  0
   63.9685   44.9923   31.6583 C   0  0  0  0  0  0
   63.2874   46.2033   31.8700 C   0  0  0  0  0  0
   62.7762   46.8776   30.7588 C   0  0  0  0  0  0
   62.9115   47.5453   27.4896 O   0  0  0  0  0  0
   60.8660   47.0135   28.2001 N   0  0  0  0  0  0
   63.1156   46.6490   33.1699 O   0  0  0  0  0  0
   62.0082   47.4870   33.5135 C   0  0  0  0  0  0
   62.3591   48.9732   33.3483 C   0  0  0  0  0  0
   61.6320   47.1509   34.9627 C   0  0  0  0  0  0
   64.4735   44.2760   32.7042 O   0  0  0  0  0  0
   65.5675   44.8765   33.3642 C   0  0  0  0  0  0
   65.8390   43.9538   34.5303 C   0  0  0  0  0  0
   64.8078   42.8984   30.1390 Cl  0  0  0  0  0  0
   60.5142   46.1879   30.9282 H   0  0  0  0  0  0
   58.8080   46.4027   27.0521 H   0  0  0  0  0  0
   56.6310   45.7322   27.9395 H   0  0  0  0  0  0
   55.6831   44.1546   28.9323 H   0  0  0  0  0  0
   57.6534   46.0772   32.7920 H   0  0  0  0  0  0
   58.1572   44.4135   32.5306 H   0  0  0  0  0  0
   59.3527   45.6768   32.8146 H   0  0  0  0  0  0
   63.5586   44.6524   28.3116 H   0  0  0  0  0  0
   62.2549   47.8127   30.8688 H   0  0  0  0  0  0
   60.5789   47.4489   27.3379 H   0  0  0  0  0  0
   61.1420   47.2530   32.8940 H   0  0  0  0  0  0
   61.6080   49.6442   33.7390 H   0  0  0  0  0  0
   63.2860   49.2133   33.8625 H   0  0  0  0  0  0
   62.4080   49.2680   32.3061 H   0  0  0  0  0  0
   60.7948   47.7568   35.3092 H   0  0  0  0  0  0
   61.3429   46.1037   35.0568 H   0  0  0  0  0  0
   62.4704   47.3243   35.6385 H   0  0  0  0  0  0
   65.3415   45.8763   33.7351 H   0  0  0  0  0  0
   66.4382   44.9496   32.7102 H   0  0  0  0  0  0
   66.4095   44.4771   35.2858 H   0  0  0  0  0  0
   66.3808   43.0713   34.1891 H   0  0  0  0  0  0
   64.9081   43.6300   34.9965 H   0  0  0  0  0  0
  1  2  1  0  0  0
  1  8  2  0  0  0
  1  9  1  0  0  0
  2  3  1  0  0  0
  2  7  2  0  0  0
  3  4  2  0  0  0
  3 10  1  0  0  0
  4  5  1  0  0  0
  4 28  1  0  0  0
  5  6  2  0  0  0
  5 19  1  0  0  0
  6  7  1  0  0  0
  6 29  1  0  0  0
  7 30  1  0  0  0
  9 31  1  0  0  0
 10 32  1  0  0  0
 10 33  1  0  0  0
 10 34  1  0  0  0
 11 12  1  0  0  0
 11 18  2  0  0  0
 11 19  1  0  0  0
 12 13  1  0  0  0
 12 17  2  0  0  0
 13 14  2  0  0  0
 13 35  1  0  0  0
 14 15  1  0  0  0
 14 27  1  0  0  0
 15 16  2  0  0  0
 15 24  1  0  0  0
 16 17  1  0  0  0
 16 20  1  0  0  0
 17 36  1  0  0  0
 19 37  1  0  0  0
 20 21  1  0  0  0
 21 22  1  0  0  0
 21 23  1  0  0  0
 21 38  1  0  0  0
 22 39  1  0  0  0
 22 40  1  0  0  0
 22 41  1  0  0  0
 23 42  1  0  0  0
 23 43  1  0  0  0
 23 44  1  0  0  0
 24 25  1  0  0  0
 25 26  1  0  0  0
 25 45  1  0  0  0
 25 46  1  0  0  0
 26 47  1  0  0  0
 26 48  1  0  0  0
 26 49  1  0  0  0
M  END
> <s_m_entry_id>
31297

> <s_m_entry_name>
dock_pv.510

> <s_m_Source_Path>
/home/csk/Desktop/cluster/DUD-E-result/rxra

> <s_m_Source_File>
dock_pv.maegz

> <i_m_Source_File_Index>
510

> <chembl_id>
CHEMBL4202767

> <chembl_pref_name>
None

> <i_lp_mmshare_version>
53161

> <r_lp_tautomer_probability>
1

> <s_lp_Force_Field>
OPLS_2005

> <r_lp_Energy>
34.970427

> <b_lp_Chiralities_Consistent>
1

> <s_lp_Variant>
CHEMBL2061_lig242-1

> <s_i_glide_gridfile>
glide-grid_1mv9

> <i_i_glide_lignum>
281

> <i_i_glide_rotatable_bonds>
9

> <r_i_docking_score>
-6.91151457191469

> <r_i_glide_ligand_efficiency>
-0.255982021182026

> <r_i_glide_ligand_efficiency_sa>
-0.767946062702402

> <r_i_glide_ligand_efficiency_ln>
-1.60888664711872

> <r_i_glide_gscore>
-6.91151457191469

> <r_i_glide_lipo>
-4.68689452567817

> <r_i_glide_hbond>
0

> <r_i_glide_metal>
0

> <r_i_glide_rewards>
-0.684446601353178

> <r_i_glide_evdw>
-40.3339920043945

> <r_i_glide_ecoul>
-1.90806984901428

> <r_i_glide_erotb>
0.762736632688525

> <r_i_glide_esite>
0

> <r_i_glide_emodel>
-29.4194934338184

> <r_i_glide_energy>
-42.2420618534088

> <r_i_glide_einternal>
27.4215488433838

> <i_i_glide_confnum>
31

> <i_i_glide_posenum>
22

> <r_i_glide_eff_state_penalty>
0

> <s_user_duplicate_titles>
CHEMBL2061_lig242

> <i_f3d_flags>
0

> <s_m_subgroup_title>
dock_pv

> <s_m_subgroupid>
dock_pv

> <b_m_subgroup_collapsed>
1

$$$$
CHEMBL2061_lig17
                    3D
 Schrodinger Suite 2021-1.
 62 61  0  0  1  0            999 V2000
   55.2130   45.9744   29.3577 C   0  0  0  0  0  0
   54.4259   45.5398   30.2001 O   0  0  0  0  0  0
   56.4570   45.2043   28.8769 C   0  0  0  0  0  0
   55.0513   47.1562   28.6983 O   0  0  0  0  0  0
   64.5563   45.1808   30.2698 C   0  0  0  0  0  0
   59.8179   46.1755   29.0329 C   0  0  0  0  0  0
   63.6779   46.9920   34.4606 C   0  0  0  0  0  0
   57.6319   44.9972   29.8876 C   0  0  1  0  0  0
   58.5867   46.2077   29.9591 C   0  0  0  0  0  0
   62.7873   46.4217   35.5818 C   0  0  0  0  0  0
   61.0242   45.3872   29.6022 C   0  0  0  0  0  0
   64.1284   45.3946   31.7377 C   0  0  0  0  0  0
   64.8491   46.0531   34.1453 C   0  0  0  0  0  0
   63.4623   44.6194   29.3458 C   0  0  0  0  0  0
   65.2495   45.9596   32.6594 C   0  0  1  0  0  0
   62.3755   45.6284   28.8775 C   0  0  1  0  0  0
   61.2968   46.7914   35.4861 C   0  0  0  0  0  0
   57.1842   44.5780   31.2981 C   0  0  0  0  0  0
   60.6299   46.3328   34.1677 C   0  0  0  0  0  0
   61.0732   48.2806   35.7329 C   0  0  0  0  0  0
   66.5094   45.0946   32.6078 C   0  0  0  0  0  0
   62.2587   45.6057   27.3391 C   0  0  0  0  0  0
   56.0859   44.2304   28.5645 H   0  0  0  0  0  0
   56.8418   45.6747   27.9700 H   0  0  0  0  0  0
   55.7598   47.3201   28.0737 H   0  0  0  0  0  0
   65.3764   44.4659   30.2343 H   0  0  0  0  0  0
   64.9544   46.1065   29.8549 H   0  0  0  0  0  0
   59.5288   45.7805   28.0575 H   0  0  0  0  0  0
   60.1344   47.2057   28.8593 H   0  0  0  0  0  0
   64.0553   47.9756   34.7456 H   0  0  0  0  0  0
   63.1006   47.1824   33.5627 H   0  0  0  0  0  0
   58.2099   44.1488   29.5169 H   0  0  0  0  0  0
   58.0141   47.1056   29.7321 H   0  0  0  0  0  0
   58.9424   46.3478   30.9806 H   0  0  0  0  0  0
   62.8362   45.3323   35.6037 H   0  0  0  0  0  0
   63.2074   46.7425   36.5383 H   0  0  0  0  0  0
   61.1590   45.6576   30.6505 H   0  0  0  0  0  0
   60.8003   44.3222   29.6099 H   0  0  0  0  0  0
   63.2669   46.0599   31.7398 H   0  0  0  0  0  0
   63.7755   44.4443   32.1405 H   0  0  0  0  0  0
   64.6362   45.0369   34.4817 H   0  0  0  0  0  0
   65.7011   46.3731   34.7491 H   0  0  0  0  0  0
   63.0145   43.7312   29.7914 H   0  0  0  0  0  0
   63.9876   44.2209   28.4823 H   0  0  0  0  0  0
   65.5080   46.9597   32.3085 H   0  0  0  0  0  0
   62.7018   46.6374   29.1397 H   0  0  0  0  0  0
   60.8079   46.2505   36.2950 H   0  0  0  0  0  0
   56.6596   45.3802   31.8180 H   0  0  0  0  0  0
   56.5098   43.7273   31.2151 H   0  0  0  0  0  0
   58.0301   44.2757   31.9143 H   0  0  0  0  0  0
   60.9971   46.8685   33.2944 H   0  0  0  0  0  0
   60.8065   45.2769   33.9959 H   0  0  0  0  0  0
   59.5533   46.4827   34.1726 H   0  0  0  0  0  0
   61.5156   48.8765   34.9380 H   0  0  0  0  0  0
   60.0090   48.4815   35.7498 H   0  0  0  0  0  0
   61.4927   48.6054   36.6865 H   0  0  0  0  0  0
   66.3011   44.0786   32.9399 H   0  0  0  0  0  0
   66.9141   45.0490   31.6003 H   0  0  0  0  0  0
   67.2743   45.4971   33.2715 H   0  0  0  0  0  0
   61.9930   44.6143   26.9721 H   0  0  0  0  0  0
   61.5223   46.3175   26.9677 H   0  0  0  0  0  0
   63.2067   45.8813   26.8773 H   0  0  0  0  0  0
  1  2  2  0  0  0
  1  3  1  0  0  0
  1  4  1  0  0  0
  3  8  1  0  0  0
  3 23  1  0  0  0
  3 24  1  0  0  0
  4 25  1  0  0  0
  5 14  1  0  0  0
  5 12  1  0  0  0
  5 26  1  0  0  0
  5 27  1  0  0  0
  6  9  1  0  0  0
  6 11  1  0  0  0
  6 28  1  0  0  0
  6 29  1  0  0  0
  7 13  1  0  0  0
  7 10  1  0  0  0
  7 30  1  0  0  0
  7 31  1  0  0  0
  8  9  1  0  0  0
  8 18  1  0  0  0
  8 32  1  0  0  0
  9 33  1  0  0  0
  9 34  1  0  0  0
 10 17  1  0  0  0
 10 35  1  0  0  0
 10 36  1  0  0  0
 11 16  1  0  0  0
 11 37  1  0  0  0
 11 38  1  0  0  0
 12 15  1  0  0  0
 12 39  1  0  0  0
 12 40  1  0  0  0
 13 15  1  0  0  0
 13 41  1  0  0  0
 13 42  1  0  0  0
 14 16  1  0  0  0
 14 43  1  0  0  0
 14 44  1  0  0  0
 15 21  1  0  0  0
 15 45  1  0  0  0
 16 22  1  0  0  0
 16 46  1  0  0  0
 17 19  1  0  0  0
 17 20  1  0  0  0
 17 47  1  0  0  0
 18 48  1  0  0  0
 18 49  1  0  0  0
 18 50  1  0  0  0
 19 51  1  0  0  0
 19 52  1  0  0  0
 19 53  1  0  0  0
 20 54  1  0  0  0
 20 55  1  0  0  0
 20 56  1  0  0  0
 21 57  1  0  0  0
 21 58  1  0  0  0
 21 59  1  0  0  0
 22 60  1  0  0  0
 22 61  1  0  0  0
 22 62  1  0  0  0
M  END
> <s_m_entry_id>
31298

> <s_m_entry_name>
dock_pv.511

> <s_m_Source_Path>
/home/csk/Desktop/cluster/DUD-E-result/rxra

> <s_m_Source_File>
dock_pv.maegz

> <i_m_Source_File_Index>
511

> <chembl_id>
CHEMBL1215869

> <chembl_pref_name>
PHYTANIC ACID

> <i_lp_mmshare_version>
53161

> <r_lp_tautomer_probability>
1

> <s_lp_Force_Field>
OPLS_2005

> <r_lp_Energy>
11.442571

> <b_lp_Chiralities_Consistent>
1

> <s_lp_Variant>
CHEMBL2061_lig17-2

> <s_i_glide_gridfile>
glide-grid_1mv9

> <i_i_glide_lignum>
21

> <i_i_glide_rotatable_bonds>
15

> <r_i_docking_score>
-6.89814455966239

> <r_i_glide_ligand_efficiency>
-0.313552025439199

> <r_i_glide_ligand_efficiency_sa>
-0.878585106582047

> <r_i_glide_ligand_efficiency_ln>
-1.68615814631787

> <r_i_glide_gscore>
-6.89814455966239

> <r_i_glide_lipo>
-5.09194006713971

> <r_i_glide_hbond>
-0.0811791668823297

> <r_i_glide_metal>
0

> <r_i_glide_rewards>
-2.10410138621658

> <r_i_glide_evdw>
-34.3098640441895

> <r_i_glide_ecoul>
-2.50530815124512

> <r_i_glide_erotb>
2.47036548547248

> <r_i_glide_esite>
0

> <r_i_glide_emodel>
-40.6592879399924

> <r_i_glide_energy>
-36.8151721954346

> <r_i_glide_einternal>
10.1966524124146

> <i_i_glide_confnum>
256

> <i_i_glide_posenum>
127

> <r_i_glide_eff_state_penalty>
0

> <s_user_duplicate_titles>
CHEMBL2061_lig17

> <i_f3d_flags>
0

> <s_m_subgroup_title>
dock_pv

> <s_m_subgroupid>
dock_pv

> <b_m_subgroup_collapsed>
1

$$$$
CHEMBL2061_lig67
                    3D
 Schrodinger Suite 2021-1.
 53 56  0  0  1  0            999 V2000
   64.1199   46.4770   28.9282 C   0  0  0  0  0  0
   63.3701   46.8627   27.7233 C   0  0  0  0  0  0
   61.9866   46.7826   27.7820 O   0  0  0  0  0  0
   63.5264   46.3385   30.1327 C   0  0  0  0  0  0
   62.0447   46.3693   30.1696 C   0  0  0  0  0  0
   61.3345   46.4996   28.9710 C   0  0  0  0  0  0
   59.9433   46.3520   28.9472 C   0  0  0  0  0  0
   59.2461   46.0770   30.1391 C   0  0  0  0  0  0
   59.9464   46.0770   31.3548 C   0  0  0  0  0  0
   61.3297   46.2011   31.3388 C   0  0  0  0  0  0
   63.8523   47.2776   26.6740 O   0  0  0  0  0  0
   57.8784   45.9156   30.2226 O   0  0  0  0  0  0
   57.1794   45.2024   29.2186 C   0  0  0  0  0  0
   55.7905   45.7851   29.1107 C   0  0  0  0  0  0
   54.6630   45.5881   29.8711 C   0  0  0  0  0  0
   53.6080   46.3301   29.4074 O   0  0  0  0  0  0
   54.0281   47.0275   28.3281 C   0  0  0  0  0  0
   55.3453   46.6437   28.1390 C   0  0  0  0  0  0
   54.4080   44.7491   31.0721 C   0  0  0  0  0  0
   53.1009   47.8388   27.5437 C   0  0  0  0  0  0
   51.9276   47.6770   27.3390 O   0  0  0  0  0  0
   53.6080   48.8770   26.9390 O   0  0  0  0  0  0
   59.2130   45.8170   32.6853 C   0  0  0  0  0  0
   60.0833   45.7337   33.9658 C   0  0  0  0  0  0
   60.4674   47.0331   34.6906 C   0  0  0  0  0  0
   64.3619   46.1419   31.3648 C   0  0  0  0  0  0
   65.4629   45.2771   31.3759 C   0  0  0  0  0  0
   66.2340   45.1359   32.5295 C   0  0  0  0  0  0
   65.9327   45.8519   33.6799 C   0  0  0  0  0  0
   64.8610   46.7309   33.6858 C   0  0  0  0  0  0
   64.0971   46.8770   32.5330 C   0  0  0  0  0  0
   65.1971   46.4399   28.8643 H   0  0  0  0  0  0
   59.4262   46.4576   28.0066 H   0  0  0  0  0  0
   61.8731   46.0916   32.2455 H   0  0  0  0  0  0
   57.1491   44.1454   29.4867 H   0  0  0  0  0  0
   57.6797   45.2770   28.2561 H   0  0  0  0  0  0
   56.0080   46.8770   27.3390 H   0  0  0  0  0  0
   54.5873   43.6873   30.8987 H   0  0  0  0  0  0
   55.0390   45.0663   31.9029 H   0  0  0  0  0  0
   53.3721   44.8770   31.3424 H   0  0  0  0  0  0
   52.8814   49.3613   26.5394 H   0  0  0  0  0  0
   58.3697   46.4770   32.8460 H   0  0  0  0  0  0
   58.7011   44.8685   32.5638 H   0  0  0  0  0  0
   59.6080   45.0017   34.5934 H   0  0  0  0  0  0
   61.0373   45.2770   33.7999 H   0  0  0  0  0  0
   60.9704   46.8017   35.6301 H   0  0  0  0  0  0
   61.1734   47.6225   34.1029 H   0  0  0  0  0  0
   59.6167   47.6639   34.9390 H   0  0  0  0  0  0
   65.7225   44.7073   30.4950 H   0  0  0  0  0  0
   67.0824   44.4770   32.5400 H   0  0  0  0  0  0
   66.5432   45.7358   34.5638 H   0  0  0  0  0  0
   64.6364   47.3133   34.5675 H   0  0  0  0  0  0
   63.3072   47.6144   32.5464 H   0  0  0  0  0  0
  1  2  1  0  0  0
  1  4  2  0  0  0
  1 32  1  0  0  0
  2  3  1  0  0  0
  2 11  2  0  0  0
  3  6  1  0  0  0
  4  5  1  0  0  0
  4 26  1  0  0  0
  5  6  2  0  0  0
  5 10  1  0  0  0
  6  7  1  0  0  0
  7  8  2  0  0  0
  7 33  1  0  0  0
  8  9  1  0  0  0
  8 12  1  0  0  0
  9 10  2  0  0  0
  9 23  1  0  0  0
 10 34  1  0  0  0
 12 13  1  0  0  0
 13 14  1  0  0  0
 13 35  1  0  0  0
 13 36  1  0  0  0
 14 15  2  0  0  0
 14 18  1  0  0  0
 15 16  1  0  0  0
 15 19  1  0  0  0
 16 17  1  0  0  0
 17 18  2  0  0  0
 17 20  1  0  0  0
 18 37  1  0  0  0
 19 38  1  0  0  0
 19 39  1  0  0  0
 19 40  1  0  0  0
 20 21  2  0  0  0
 20 22  1  0  0  0
 22 41  1  0  0  0
 23 24  1  0  0  0
 23 42  1  0  0  0
 23 43  1  0  0  0
 24 25  1  0  0  0
 24 44  1  0  0  0
 24 45  1  0  0  0
 25 46  1  0  0  0
 25 47  1  0  0  0
 25 48  1  0  0  0
 26 27  2  0  0  0
 26 31  1  0  0  0
 27 28  1  0  0  0
 27 49  1  0  0  0
 28 29  2  0  0  0
 28 50  1  0  0  0
 29 30  1  0  0  0
 29 51  1  0  0  0
 30 31  2  0  0  0
 30 52  1  0  0  0
 31 53  1  0  0  0
M  END
> <s_m_entry_id>
31299

> <s_m_entry_name>
dock_pv.512

> <s_m_Source_Path>
/home/csk/Desktop/cluster/DUD-E-result/rxra

> <s_m_Source_File>
dock_pv.maegz

> <i_m_Source_File_Index>
512

> <chembl_id>
CHEMBL4094117

> <chembl_pref_name>
None

> <i_lp_mmshare_version>
53161

> <r_lp_tautomer_probability>
1

> <s_lp_Force_Field>
OPLS_2005

> <r_lp_Energy>
23.402801

> <b_lp_Chiralities_Consistent>
1

> <s_lp_Variant>
CHEMBL2061_lig67-1

> <s_i_glide_gridfile>
glide-grid_1mv9

> <i_i_glide_lignum>
94

> <i_i_glide_rotatable_bonds>
8

> <r_i_docking_score>
-6.84643872640746

> <r_i_glide_ligand_efficiency>
-0.220852862142176

> <r_i_glide_ligand_efficiency_sa>
-0.693782907364548

> <r_i_glide_ligand_efficiency_ln>
-1.54408175095364

> <r_i_glide_gscore>
-6.84643872640746

> <r_i_glide_lipo>
-4.91301952533267

> <r_i_glide_hbond>
-0.554927665660161

> <r_i_glide_metal>
0

> <r_i_glide_rewards>
-1.19020002144894

> <r_i_glide_evdw>
-1.95188570022583

> <r_i_glide_ecoul>
-4.80341386795044

> <r_i_glide_erotb>
0.677623256259323

> <r_i_glide_esite>
-0.0478084050211517

> <r_i_glide_emodel>
-23.1269189149098

> <r_i_glide_energy>
-6.75529956817627

> <r_i_glide_einternal>
10.2152757644653

> <i_i_glide_confnum>
58

> <i_i_glide_posenum>
327

> <r_i_glide_eff_state_penalty>
0

> <s_user_duplicate_titles>
CHEMBL2061_lig67

> <i_f3d_flags>
0

> <s_m_subgroup_title>
dock_pv

> <s_m_subgroupid>
dock_pv

> <b_m_subgroup_collapsed>
1

$$$$
CHEMBL2061_lig595
                    3D
 Schrodinger Suite 2021-1.
 52 51  0  0  1  0            999 V2000
   55.3992   45.6600   29.3444 C   0  0  0  0  0  0
   55.8633   46.0771   28.1390 O   0  0  0  0  0  0
   54.3748   46.0770   29.8786 O   0  0  0  0  0  0
   56.2382   44.5238   29.9211 C   0  0  0  0  0  0
   57.7829   44.6478   29.7937 C   0  0  0  0  0  0
   58.4658   45.7211   30.6602 C   0  0  0  0  0  0
   58.0532   45.6737   32.1213 C   0  0  0  0  0  0
   58.8083   45.6770   33.2344 C   0  0  0  0  0  0
   60.3079   45.8237   33.4273 C   0  0  0  0  0  0
   60.8080   46.8748   34.4150 C   0  0  0  0  0  0
   62.0598   46.9889   34.9013 C   0  0  0  0  0  0
   63.2414   46.0807   34.6053 C   0  0  0  0  0  0
   64.3144   46.7122   33.7334 C   0  0  0  0  0  0
   64.6588   46.3405   32.4841 C   0  0  0  0  0  0
   64.0184   45.2259   31.6763 C   0  0  0  0  0  0
   64.3669   45.2419   30.1978 C   0  0  0  0  0  0
   63.6039   45.6934   29.1828 C   0  0  0  0  0  0
   62.2429   46.3677   29.2704 C   0  0  0  0  0  0
   62.0089   47.6769   28.5123 C   0  0  0  0  0  0
   62.8287   48.4470   27.7615 C   0  0  0  0  0  0
   64.3052   48.2700   27.4411 C   0  0  0  0  0  0
   64.5573   47.5453   26.1390 C   0  0  0  0  0  0
   55.3064   46.7719   27.7859 H   0  0  0  0  0  0
   55.9148   43.6770   29.3390 H   0  0  0  0  0  0
   55.9263   44.2973   30.9389 H   0  0  0  0  0  0
   58.0454   44.8437   28.7547 H   0  0  0  0  0  0
   58.2226   43.6807   30.0349 H   0  0  0  0  0  0
   58.2138   46.6874   30.2272 H   0  0  0  0  0  0
   59.5481   45.6360   30.5672 H   0  0  0  0  0  0
   56.9878   45.6222   32.2829 H   0  0  0  0  0  0
   58.2640   45.5556   34.1390 H   0  0  0  0  0  0
   60.8051   45.9584   32.4679 H   0  0  0  0  0  0
   60.5627   44.8770   33.8655 H   0  0  0  0  0  0
   60.0745   47.5863   34.7612 H   0  0  0  0  0  0
   62.2695   47.8008   35.5834 H   0  0  0  0  0  0
   62.8722   45.1887   34.1075 H   0  0  0  0  0  0
   63.6790   45.7159   35.5351 H   0  0  0  0  0  0
   64.8432   47.5411   34.1827 H   0  0  0  0  0  0
   65.4587   46.8778   31.9940 H   0  0  0  0  0  0
   62.9400   45.2770   31.8056 H   0  0  0  0  0  0
   64.3413   44.2626   32.0729 H   0  0  0  0  0  0
   65.3334   44.8231   29.9544 H   0  0  0  0  0  0
   63.9919   45.5796   28.1834 H   0  0  0  0  0  0
   62.0017   46.5647   30.3137 H   0  0  0  0  0  0
   61.5151   45.6382   28.9135 H   0  0  0  0  0  0
   60.9920   48.0315   28.6063 H   0  0  0  0  0  0
   62.3917   49.3383   27.3382 H   0  0  0  0  0  0
   64.8078   47.6770   28.1903 H   0  0  0  0  0  0
   64.7966   49.2438   27.4424 H   0  0  0  0  0  0
   65.6078   47.2768   26.0225 H   0  0  0  0  0  0
   64.2660   48.1324   25.2792 H   0  0  0  0  0  0
   63.9586   46.6385   26.1390 H   0  0  0  0  0  0
  1  2  1  0  0  0
  1  3  2  0  0  0
  1  4  1  0  0  0
  2 23  1  0  0  0
  4  5  1  0  0  0
  4 24  1  0  0  0
  4 25  1  0  0  0
  5  6  1  0  0  0
  5 26  1  0  0  0
  5 27  1  0  0  0
  6  7  1  0  0  0
  6 28  1  0  0  0
  6 29  1  0  0  0
  7  8  2  0  0  0
  7 30  1  0  0  0
  8  9  1  0  0  0
  8 31  1  0  0  0
  9 10  1  0  0  0
  9 32  1  0  0  0
  9 33  1  0  0  0
 10 11  2  0  0  0
 10 34  1  0  0  0
 11 12  1  0  0  0
 11 35  1  0  0  0
 12 13  1  0  0  0
 12 36  1  0  0  0
 12 37  1  0  0  0
 13 14  2  0  0  0
 13 38  1  0  0  0
 14 15  1  0  0  0
 14 39  1  0  0  0
 15 16  1  0  0  0
 15 40  1  0  0  0
 15 41  1  0  0  0
 16 17  2  0  0  0
 16 42  1  0  0  0
 17 18  1  0  0  0
 17 43  1  0  0  0
 18 19  1  0  0  0
 18 44  1  0  0  0
 18 45  1  0  0  0
 19 20  2  0  0  0
 19 46  1  0  0  0
 20 21  1  0  0  0
 20 47  1  0  0  0
 21 22  1  0  0  0
 21 48  1  0  0  0
 21 49  1  0  0  0
 22 50  1  0  0  0
 22 51  1  0  0  0
 22 52  1  0  0  0
M  END
> <s_m_entry_id>
31300

> <s_m_entry_name>
dock_pv.513

> <s_m_Source_Path>
/home/csk/Desktop/cluster/DUD-E-result/rxra

> <s_m_Source_File>
dock_pv.maegz

> <i_m_Source_File_Index>
513

> <chembl_id>
CHEMBL460026

> <chembl_pref_name>
ICOSAPENT

> <i_lp_mmshare_version>
53161

> <r_lp_tautomer_probability>
1

> <s_lp_Force_Field>
OPLS_2005

> <r_lp_Energy>
-2.032867

> <b_lp_Chiralities_Consistent>
1

> <s_lp_Variant>
CHEMBL2061_lig595-1

> <s_i_glide_gridfile>
glide-grid_1mv9

> <i_i_glide_lignum>
730

> <i_i_glide_rotatable_bonds>
14

> <r_i_docking_score>
-6.81012364558586

> <r_i_glide_ligand_efficiency>
-0.309551074799357

> <r_i_glide_ligand_efficiency_sa>
-0.86737428554075

> <r_i_glide_ligand_efficiency_ln>
-1.66464262427672

> <r_i_glide_gscore>
-6.81012364558586

> <r_i_glide_lipo>
-5.23204339103584

> <r_i_glide_hbond>
-0.0886781717150026

> <r_i_glide_metal>
0

> <r_i_glide_rewards>
-2.4015632950291

> <r_i_glide_evdw>
-29.3109340667725

> <r_i_glide_ecoul>
-1.59277713298798

> <r_i_glide_erotb>
2.61662448548091

> <r_i_glide_esite>
0

> <r_i_glide_emodel>
-30.9621217659857

> <r_i_glide_energy>
-30.9037111997604

> <r_i_glide_einternal>
11.9580507278442

> <i_i_glide_confnum>
793

> <i_i_glide_posenum>
203

> <r_i_glide_eff_state_penalty>
0

> <s_user_duplicate_titles>
CHEMBL2061_lig595

> <i_f3d_flags>
0

> <s_m_subgroup_title>
dock_pv

> <s_m_subgroupid>
dock_pv

> <b_m_subgroup_collapsed>
1

$$$$
222549
                    3D
 Schrodinger Suite 2021-1.
 59 63  0  0  1  0            999 V2000
   62.8741   48.4572   34.5377 C   0  0  0  0  0  0
   62.5183   46.9654   34.5668 C   0  0  0  0  0  0
   63.5152   46.2480   35.5159 C   0  0  0  0  0  0
   64.9118   46.1254   34.9169 C   0  0  0  0  0  0
   64.9314   45.2871   33.6210 C   0  0  0  0  0  0
   63.7179   45.6237   32.7152 C   0  0  0  0  0  0
   62.5988   46.3964   33.1282 C   0  0  0  0  0  0
   61.5611   46.6363   32.1885 C   0  0  0  0  0  0
   61.5476   46.1006   30.8891 C   0  0  0  0  0  0
   62.6349   45.2770   30.5620 C   0  0  0  0  0  0
   63.6875   45.0719   31.4361 C   0  0  0  0  0  0
   62.8095   44.6624   28.9479 S   0  0  0  0  0  0
   63.1683   46.2702   28.3744 C   0  0  0  0  0  0
   64.4918   46.5684   28.1391 C   0  0  0  0  0  0
   64.8057   47.6977   27.3906 C   0  0  0  0  0  0
   63.8681   48.7067   27.3052 C   0  0  0  0  0  0
   62.5604   48.4912   27.7392 C   0  0  0  0  0  0
   62.1790   47.2785   28.3182 C   0  0  0  0  0  0
   60.8523   47.0799   28.7360 N   0  0  0  0  0  0
   60.5259   46.4730   29.8300 C   0  0  0  0  0  0
   59.0894   46.0611   29.9603 C   0  0  0  0  0  0
   58.2543   46.0776   28.8242 C   0  0  0  0  0  0
   56.8986   45.7829   28.9070 C   0  0  0  0  0  0
   56.3289   45.4561   30.1333 C   0  0  0  0  0  0
   57.1477   45.3988   31.2665 C   0  0  0  0  0  0
   58.5127   45.6768   31.1773 C   0  0  0  0  0  0
   54.8431   45.2781   30.2376 C   0  0  0  0  0  0
   54.0374   46.0640   29.7391 O   0  0  0  0  0  0
   54.4773   44.1770   30.9391 O   0  0  0  0  0  0
   66.2541   45.6505   32.9013 C   0  0  0  0  0  0
   64.8596   43.7892   34.0072 C   0  0  0  0  0  0
   61.1208   46.7273   35.1635 C   0  0  0  0  0  0
   62.8443   48.8765   35.5440 H   0  0  0  0  0  0
   63.8679   48.6512   34.1396 H   0  0  0  0  0  0
   62.1699   49.0186   33.9227 H   0  0  0  0  0  0
   63.5911   46.7834   36.4622 H   0  0  0  0  0  0
   63.1546   45.2536   35.7781 H   0  0  0  0  0  0
   65.2994   47.1258   34.7290 H   0  0  0  0  0  0
   65.5960   45.7002   35.6533 H   0  0  0  0  0  0
   60.7443   47.2760   32.4741 H   0  0  0  0  0  0
   64.5105   44.4590   31.0984 H   0  0  0  0  0  0
   65.2599   45.8323   28.3275 H   0  0  0  0  0  0
   65.8043   47.8639   27.0346 H   0  0  0  0  0  0
   64.2124   49.6579   26.9392 H   0  0  0  0  0  0
   61.8381   49.2909   27.6680 H   0  0  0  0  0  0
   58.6424   46.3420   27.8501 H   0  0  0  0  0  0
   56.2935   45.8425   28.0118 H   0  0  0  0  0  0
   56.7208   45.2770   32.2483 H   0  0  0  0  0  0
   59.0901   45.6772   32.0889 H   0  0  0  0  0  0
   55.2679   43.6857   31.1736 H   0  0  0  0  0  0
   67.1141   45.5111   33.5582 H   0  0  0  0  0  0
   66.4341   45.0284   32.0245 H   0  0  0  0  0  0
   66.2617   46.6907   32.5681 H   0  0  0  0  0  0
   65.6662   43.5195   34.6898 H   0  0  0  0  0  0
   63.9188   43.5237   34.4887 H   0  0  0  0  0  0
   64.9588   43.1442   33.1334 H   0  0  0  0  0  0
   61.0753   47.0523   36.2029 H   0  0  0  0  0  0
   60.3445   47.2781   34.6374 H   0  0  0  0  0  0
   60.8351   45.6779   35.1385 H   0  0  0  0  0  0
  1  2  1  0  0  0
  1 33  1  0  0  0
  1 34  1  0  0  0
  1 35  1  0  0  0
  2  7  1  0  0  0
  2  3  1  0  0  0
  2 32  1  0  0  0
  3  4  1  0  0  0
  3 36  1  0  0  0
  3 37  1  0  0  0
  4  5  1  0  0  0
  4 38  1  0  0  0
  4 39  1  0  0  0
  5  6  1  0  0  0
  5 30  1  0  0  0
  5 31  1  0  0  0
  6 11  2  0  0  0
  6  7  1  0  0  0
  7  8  2  0  0  0
  8  9  1  0  0  0
  8 40  1  0  0  0
  9 20  1  0  0  0
  9 10  2  0  0  0
 10 11  1  0  0  0
 10 12  1  0  0  0
 11 41  1  0  0  0
 12 13  1  0  0  0
 13 18  2  0  0  0
 13 14  1  0  0  0
 14 15  2  0  0  0
 14 42  1  0  0  0
 15 16  1  0  0  0
 15 43  1  0  0  0
 16 17  2  0  0  0
 16 44  1  0  0  0
 17 18  1  0  0  0
 17 45  1  0  0  0
 18 19  1  0  0  0
 19 20  2  0  0  0
 20 21  1  0  0  0
 21 26  1  0  0  0
 21 22  2  0  0  0
 22 23  1  0  0  0
 22 46  1  0  0  0
 23 24  2  0  0  0
 23 47  1  0  0  0
 24 25  1  0  0  0
 24 27  1  0  0  0
 25 26  2  0  0  0
 25 48  1  0  0  0
 26 49  1  0  0  0
 27 28  2  0  0  0
 27 29  1  0  0  0
 29 50  1  0  0  0
 30 51  1  0  0  0
 30 52  1  0  0  0
 30 53  1  0  0  0
 31 54  1  0  0  0
 31 55  1  0  0  0
 31 56  1  0  0  0
 32 57  1  0  0  0
 32 58  1  0  0  0
 32 59  1  0  0  0
M  END
> <s_m_entry_id>
31310

> <s_m_entry_name>
ligand_docking-pose.2

> <s_m_Source_Path>
/home/csk/Desktop/cluster/DUD-E-result/rxra

> <s_m_Source_File>
ligand_docking-pose.sdf

> <i_m_Source_File_Index>
2

> <i_lp_mmshare_version>
53161

> <i_f3d_flags>
0

> <r_lp_tautomer_probability>
1

> <s_lp_Force_Field>
OPLS_2005

> <r_lp_Energy>
49.187097

> <b_lp_Chiralities_Consistent>
1

> <s_lp_Variant>
222549-1

> <s_i_glide_gridfile>
glide-grid_1mv9

> <i_i_glide_lignum>
86

> <i_i_glide_rotatable_bonds>
3

> <r_i_docking_score>
-12.2022946374231

> <r_i_glide_ligand_efficiency>
-0.38132170741947

> <r_i_glide_ligand_efficiency_sa>
-1.21062095759339

> <r_i_glide_ligand_efficiency_ln>
-2.73242639130832

> <r_i_glide_gscore>
-12.2022946374231

> <r_i_glide_lipo>
-7.36488676624473

> <r_i_glide_hbond>
-0.136305741321505

> <r_i_glide_metal>
0

> <r_i_glide_rewards>
-2.20882195066804

> <r_i_glide_evdw>
-43.7979354858398

> <r_i_glide_ecoul>
-3.38180232048035

> <r_i_glide_erotb>
0.204886943175268

> <r_i_glide_esite>
0

> <r_i_glide_emodel>
-70.7332477368196

> <r_i_glide_energy>
-47.1797378063202

> <r_i_glide_einternal>
9.47508144378662

> <i_i_glide_confnum>
6

> <i_i_glide_posenum>
31

> <r_i_glide_eff_state_penalty>
0

> <s_user_duplicate_titles>
222549

> <s_m_subgroup_title>
dock_pv

> <s_m_subgroupid>
dock_pv1

> <b_m_subgroup_collapsed>
0

$$$$
217663
                    3D
 Schrodinger Suite 2021-1.
 61 62  0  0  1  0            999 V2000
   63.3477   48.6005   35.3308 C   0  0  0  0  0  0
   62.1440   48.0410   34.5297 C   0  0  0  0  0  0
   61.1631   47.2979   35.4444 C   0  0  0  0  0  0
   62.5893   47.1642   33.3564 C   0  0  0  0  0  0
   62.1883   47.4117   32.0386 C   0  0  0  0  0  0
   62.6964   46.6540   30.9730 C   0  0  0  0  0  0
   63.6282   45.6278   31.2230 C   0  0  0  0  0  0
   64.0172   45.3594   32.5627 C   0  0  0  0  0  0
   63.4604   46.1111   33.5983 C   0  0  0  0  0  0
   65.0782   44.3267   32.9538 C   0  0  0  0  0  0
   64.4810   43.0256   33.5273 C   0  0  0  0  0  0
   66.1654   44.8866   33.8974 C   0  0  0  0  0  0
   64.1369   44.9674   30.1157 O   0  0  0  0  0  0
   64.1085   43.5438   30.1087 C   0  0  0  0  0  0
   63.4537   42.9194   28.8733 C   0  0  0  0  0  0
   62.3406   43.6822   28.1728 C   0  0  0  0  0  0
   62.6455   44.8404   27.6207 F   0  0  0  0  0  0
   62.2473   47.0069   29.5828 C   0  0  0  0  0  0
   63.1380   47.3508   28.5464 C   0  0  0  0  0  0
   62.5210   47.7837   27.3856 C   0  0  0  0  0  0
   60.8072   47.6345   27.4964 S   0  0  0  0  0  0
   60.9243   46.9720   29.1061 C   0  0  0  0  0  0
   59.7620   46.4354   29.8136 C   0  0  0  0  0  0
   58.5201   46.2164   29.3303 C   0  0  0  0  0  0
   57.3878   45.6772   30.0831 C   0  0  0  0  0  0
   56.2112   45.5580   29.4148 C   0  0  0  0  0  0
   54.9619   45.1327   29.9916 C   0  0  0  0  0  0
   54.4136   45.6691   30.9453 O   0  0  0  0  0  0
   54.4185   44.0768   29.3391 O   0  0  0  0  0  0
   57.5504   45.3109   31.5627 C   0  0  0  0  0  0
   64.0016   49.1656   34.6675 H   0  0  0  0  0  0
   63.0469   49.2748   36.1374 H   0  0  0  0  0  0
   63.9510   47.8152   35.7913 H   0  0  0  0  0  0
   61.6257   48.9080   34.1248 H   0  0  0  0  0  0
   60.2814   46.9657   34.8928 H   0  0  0  0  0  0
   61.6188   46.4179   35.8955 H   0  0  0  0  0  0
   60.8166   47.9436   36.2525 H   0  0  0  0  0  0
   61.5122   48.2266   31.8283 H   0  0  0  0  0  0
   63.7369   45.9001   34.6209 H   0  0  0  0  0  0
   65.6058   44.0799   32.0443 H   0  0  0  0  0  0
   63.5399   42.7383   33.0697 H   0  0  0  0  0  0
   65.1653   42.1942   33.3535 H   0  0  0  0  0  0
   64.2960   43.1010   34.6003 H   0  0  0  0  0  0
   66.7748   45.6526   33.4117 H   0  0  0  0  0  0
   65.7639   45.3027   34.8234 H   0  0  0  0  0  0
   66.8188   44.0809   34.2120 H   0  0  0  0  0  0
   65.1320   43.1740   30.1545 H   0  0  0  0  0  0
   63.6083   43.1463   30.9829 H   0  0  0  0  0  0
   64.1936   42.5109   28.1720 H   0  0  0  0  0  0
   62.9095   42.0769   29.2662 H   0  0  0  0  0  0
   62.0039   43.0665   27.3432 H   0  0  0  0  0  0
   61.5132   43.8729   28.8604 H   0  0  0  0  0  0
   64.2113   47.2760   28.6504 H   0  0  0  0  0  0
   62.9832   48.1133   26.4664 H   0  0  0  0  0  0
   59.9758   46.1856   30.8397 H   0  0  0  0  0  0
   58.3481   46.4675   28.2949 H   0  0  0  0  0  0
   56.1442   45.7998   28.3624 H   0  0  0  0  0  0
   54.9727   43.7393   28.6238 H   0  0  0  0  0  0
   58.1344   46.0711   32.0842 H   0  0  0  0  0  0
   56.6136   45.2719   32.1168 H   0  0  0  0  0  0
   58.0802   44.3667   31.6689 H   0  0  0  0  0  0
  1  2  1  0  0  0
  1 31  1  0  0  0
  1 32  1  0  0  0
  1 33  1  0  0  0
  2  3  1  0  0  0
  2  4  1  0  0  0
  2 34  1  0  0  0
  3 35  1  0  0  0
  3 36  1  0  0  0
  3 37  1  0  0  0
  4  9  1  0  0  0
  4  5  2  0  0  0
  5  6  1  0  0  0
  5 38  1  0  0  0
  6  7  2  0  0  0
  6 18  1  0  0  0
  7  8  1  0  0  0
  7 13  1  0  0  0
  8  9  2  0  0  0
  8 10  1  0  0  0
  9 39  1  0  0  0
 10 11  1  0  0  0
 10 12  1  0  0  0
 10 40  1  0  0  0
 11 41  1  0  0  0
 11 42  1  0  0  0
 11 43  1  0  0  0
 12 44  1  0  0  0
 12 45  1  0  0  0
 12 46  1  0  0  0
 13 14  1  0  0  0
 14 15  1  0  0  0
 14 47  1  0  0  0
 14 48  1  0  0  0
 15 16  1  0  0  0
 15 49  1  0  0  0
 15 50  1  0  0  0
 16 17  1  0  0  0
 16 51  1  0  0  0
 16 52  1  0  0  0
 18 22  2  0  0  0
 18 19  1  0  0  0
 19 20  2  0  0  0
 19 53  1  0  0  0
 20 21  1  0  0  0
 20 54  1  0  0  0
 21 22  1  0  0  0
 22 23  1  0  0  0
 23 24  2  0  0  0
 23 55  1  0  0  0
 24 25  1  0  0  0
 24 56  1  0  0  0
 25 26  2  0  0  0
 25 30  1  0  0  0
 26 27  1  0  0  0
 26 57  1  0  0  0
 27 28  2  0  0  0
 27 29  1  0  0  0
 29 58  1  0  0  0
 30 59  1  0  0  0
 30 60  1  0  0  0
 30 61  1  0  0  0
M  END
> <s_m_entry_id>
31363

> <s_m_entry_name>
ligand_docking-pose.55

> <s_m_Source_Path>
/home/csk/Desktop/cluster/DUD-E-result/rxra

> <s_m_Source_File>
ligand_docking-pose.sdf

> <i_m_Source_File_Index>
55

> <i_lp_mmshare_version>
53161

> <i_f3d_flags>
0

> <r_lp_tautomer_probability>
1

> <s_lp_Force_Field>
OPLS_2005

> <r_lp_Energy>
25.527302

> <b_lp_Chiralities_Consistent>
1

> <s_lp_Variant>
217663-1

> <s_i_glide_gridfile>
glide-grid_1mv9

> <i_i_glide_lignum>
174

> <i_i_glide_rotatable_bonds>
11

> <r_i_docking_score>
-11.1313508486854

> <r_i_glide_ligand_efficiency>
-0.371045028289513

> <r_i_glide_ligand_efficiency_sa>
-1.15292317176664

> <r_i_glide_ligand_efficiency_ln>
-2.52916419860305

> <r_i_glide_gscore>
-11.1313508486854

> <r_i_glide_lipo>
-6.49615142580551

> <r_i_glide_hbond>
-0.16

> <r_i_glide_metal>
0

> <r_i_glide_rewards>
-1.79594109640746

> <r_i_glide_evdw>
-47.2360572814941

> <r_i_glide_ecoul>
-7.12103462219238

> <r_i_glide_erotb>
0.750699730931132

> <r_i_glide_esite>
0

> <r_i_glide_emodel>
-65.981276995479

> <r_i_glide_energy>
-54.3570919036865

> <r_i_glide_einternal>
2.94777512550354

> <i_i_glide_confnum>
64

> <i_i_glide_posenum>
34

> <r_i_glide_eff_state_penalty>
0

> <s_user_duplicate_titles>
217663

> <s_m_subgroup_title>
dock_pv

> <s_m_subgroupid>
dock_pv1

> <b_m_subgroup_collapsed>
0

$$$$
96783
                    3D
 Schrodinger Suite 2021-1.
 59 62  0  0  1  0            999 V2000
   64.0081   48.3701   35.3622 C   0  0  0  0  0  0
   63.1266   47.1167   35.2322 C   0  0  0  0  0  0
   63.8253   45.9203   35.9300 C   0  0  0  0  0  0
   65.0884   45.4723   35.1834 C   0  0  0  0  0  0
   64.8166   44.9571   33.7497 C   0  0  0  0  0  0
   63.7701   45.8429   33.0422 C   0  0  0  0  0  0
   62.9870   46.8208   33.7218 C   0  0  0  0  0  0
   62.1135   47.6019   32.9577 C   0  0  0  0  0  0
   61.8982   47.3718   31.6119 C   0  0  0  0  0  0
   62.5823   46.3463   30.9710 C   0  0  0  0  0  0
   63.5400   45.6313   31.6761 C   0  0  0  0  0  0
   62.3490   46.0639   29.4989 C   0  0  2  0  0  0
   63.2221   47.0649   28.6715 C   0  0  0  0  0  0
   62.8218   47.1883   27.2626 N   0  0  1  0  0  0
   61.4707   47.7583   27.1363 C   0  0  0  0  0  0
   60.5444   46.9044   27.9644 C   0  0  0  0  0  0
   60.8846   46.1804   29.0739 C   0  0  0  0  0  0
   59.7957   45.6834   29.6506 N   0  0  0  0  0  0
   58.7959   46.1255   28.9032 C   0  0  0  0  0  0
   59.2079   46.8771   27.8458 O   0  0  0  0  0  0
   57.3619   45.9640   29.0659 C   0  0  0  0  0  0
   56.7073   45.3453   30.0745 C   0  0  0  0  0  0
   55.2655   45.2634   30.1905 C   0  0  0  0  0  0
   54.6920   44.4774   30.9388 O   0  0  0  0  0  0
   54.5927   46.1720   29.4230 O   0  0  0  0  0  0
   63.7985   47.9984   26.5396 C   0  0  0  0  0  0
   64.2466   43.5175   33.8102 C   0  0  0  0  0  0
   66.1769   45.0295   33.0070 C   0  0  0  0  0  0
   61.7435   47.3303   35.9170 C   0  0  0  0  0  0
   64.3691   48.5051   36.3809 H   0  0  0  0  0  0
   64.8683   48.2942   34.7004 H   0  0  0  0  0  0
   63.4797   49.2769   35.0743 H   0  0  0  0  0  0
   64.0895   46.1837   36.9540 H   0  0  0  0  0  0
   63.1457   45.0712   36.0104 H   0  0  0  0  0  0
   65.7894   46.3049   35.1634 H   0  0  0  0  0  0
   65.6074   44.6979   35.7387 H   0  0  0  0  0  0
   61.6087   48.4325   33.4134 H   0  0  0  0  0  0
   61.2090   47.9978   31.0677 H   0  0  0  0  0  0
   64.0930   44.8639   31.1534 H   0  0  0  0  0  0
   62.6807   45.0475   29.2800 H   0  0  0  0  0  0
   64.2564   46.7201   28.7235 H   0  0  0  0  0  0
   63.2079   48.0590   29.1178 H   0  0  0  0  0  0
   61.1476   47.7747   26.0986 H   0  0  0  0  0  0
   61.4423   48.7813   27.5182 H   0  0  0  0  0  0
   56.8181   46.4216   28.2506 H   0  0  0  0  0  0
   57.2531   44.8624   30.8739 H   0  0  0  0  0  0
   55.1913   46.7404   28.9395 H   0  0  0  0  0  0
   64.7895   47.5427   26.5849 H   0  0  0  0  0  0
   63.5316   48.0769   25.4886 H   0  0  0  0  0  0
   63.8726   49.0055   26.9496 H   0  0  0  0  0  0
   64.8097   42.8831   34.4870 H   0  0  0  0  0  0
   63.2082   43.4988   34.1393 H   0  0  0  0  0  0
   64.2697   43.0365   32.8321 H   0  0  0  0  0  0
   66.9487   44.4808   33.5468 H   0  0  0  0  0  0
   66.1277   44.5963   32.0077 H   0  0  0  0  0  0
   66.5239   46.0571   32.8941 H   0  0  0  0  0  0
   61.8506   47.7114   36.9365 H   0  0  0  0  0  0
   61.1241   48.0748   35.4214 H   0  0  0  0  0  0
   61.1618   46.4077   35.9546 H   0  0  0  0  0  0
  1  2  1  0  0  0
  1 30  1  0  0  0
  1 31  1  0  0  0
  1 32  1  0  0  0
  2  7  1  0  0  0
  2  3  1  0  0  0
  2 29  1  0  0  0
  3  4  1  0  0  0
  3 33  1  0  0  0
  3 34  1  0  0  0
  4  5  1  0  0  0
  4 35  1  0  0  0
  4 36  1  0  0  0
  5  6  1  0  0  0
  5 27  1  0  0  0
  5 28  1  0  0  0
  6 11  2  0  0  0
  6  7  1  0  0  0
  7  8  2  0  0  0
  8  9  1  0  0  0
  8 37  1  0  0  0
  9 10  2  0  0  0
  9 38  1  0  0  0
 10 11  1  0  0  0
 10 12  1  0  0  0
 11 39  1  0  0  0
 12 17  1  0  0  0
 12 13  1  0  0  0
 12 40  1  0  0  0
 13 14  1  0  0  0
 13 41  1  0  0  0
 13 42  1  0  0  0
 14 15  1  0  0  0
 14 26  1  0  0  0
 15 16  1  0  0  0
 15 43  1  0  0  0
 15 44  1  0  0  0
 16 20  1  0  0  0
 16 17  2  0  0  0
 17 18  1  0  0  0
 18 19  2  0  0  0
 19 20  1  0  0  0
 19 21  1  0  0  0
 21 22  2  0  0  0
 21 45  1  0  0  0
 22 23  1  0  0  0
 22 46  1  0  0  0
 23 24  2  0  0  0
 23 25  1  0  0  0
 25 47  1  0  0  0
 26 48  1  0  0  0
 26 49  1  0  0  0
 26 50  1  0  0  0
 27 51  1  0  0  0
 27 52  1  0  0  0
 27 53  1  0  0  0
 28 54  1  0  0  0
 28 55  1  0  0  0
 28 56  1  0  0  0
 29 57  1  0  0  0
 29 58  1  0  0  0
 29 59  1  0  0  0
M  END
> <s_m_entry_id>
31373

> <s_m_entry_name>
ligand_docking-pose.65

> <s_m_Source_Path>
/home/csk/Desktop/cluster/DUD-E-result/rxra

> <s_m_Source_File>
ligand_docking-pose.sdf

> <i_m_Source_File_Index>
65

> <i_lp_mmshare_version>
53161

> <i_f3d_flags>
0

> <r_lp_tautomer_probability>
1

> <s_lp_Force_Field>
OPLS_2005

> <r_lp_Energy>
32.586778

> <b_lp_Chiralities_Consistent>
1

> <s_lp_Variant>
96783-1

> <s_i_glide_gridfile>
glide-grid_1mv9

> <i_i_glide_lignum>
101

> <i_i_glide_rotatable_bonds>
4

> <r_i_docking_score>
-11.0681095131519

> <r_i_glide_ligand_efficiency>
-0.381658948729377

> <r_i_glide_ligand_efficiency_sa>
-1.1725772085387

> <r_i_glide_ligand_efficiency_ln>
-2.53431641547081

> <r_i_glide_gscore>
-11.0681095131519

> <r_i_glide_lipo>
-6.56862092548381

> <r_i_glide_hbond>
-0.183467096460424

> <r_i_glide_metal>
0

> <r_i_glide_rewards>
-1.87029871923518

> <r_i_glide_evdw>
-48.0369758605957

> <r_i_glide_ecoul>
-2.80420446395874

> <r_i_glide_erotb>
0.376756690651061

> <r_i_glide_esite>
0

> <r_i_glide_emodel>
-76.6285450542255

> <r_i_glide_energy>
-50.8411803245544

> <r_i_glide_einternal>
1.32528948783875

> <i_i_glide_confnum>
6

> <i_i_glide_posenum>
190

> <r_i_glide_eff_state_penalty>
0

> <s_user_duplicate_titles>
96783

> <s_m_subgroup_title>
dock_pv

> <s_m_subgroupid>
dock_pv1

> <b_m_subgroup_collapsed>
0

$$$$
217738
                    3D
 Schrodinger Suite 2021-1.
 61 62  0  0  1  0            999 V2000
   63.1285   48.3562   35.6490 C   0  0  0  0  0  0
   62.1484   48.0205   34.5024 C   0  0  0  0  0  0
   60.9222   47.2865   35.0529 C   0  0  0  0  0  0
   62.7661   47.2569   33.3334 C   0  0  0  0  0  0
   62.2721   47.4192   32.0344 C   0  0  0  0  0  0
   62.8197   46.7356   30.9385 C   0  0  0  0  0  0
   63.9106   45.8544   31.1884 C   0  0  0  0  0  0
   64.4262   45.7049   32.4912 C   0  0  0  0  0  0
   63.8312   46.3909   33.5445 C   0  0  0  0  0  0
   65.6175   44.7893   32.8135 C   0  0  0  0  0  0
   65.1627   43.5153   33.5513 C   0  0  0  0  0  0
   66.7287   45.5148   33.6071 C   0  0  0  0  0  0
   64.5235   45.1161   30.1975 O   0  0  0  0  0  0
   63.6693   44.4157   29.3061 C   0  0  0  0  0  0
   63.7735   42.9188   29.4341 C   0  0  0  0  0  0
   63.6081   42.4772   30.6740 F   0  0  0  0  0  0
   62.8080   42.4770   28.6441 F   0  0  0  0  0  0
   62.2898   47.0299   29.5509 C   0  0  0  0  0  0
   63.2086   47.3494   28.5398 C   0  0  0  0  0  0
   62.8202   47.7304   27.2637 C   0  0  0  0  0  0
   61.4724   47.7679   26.9502 C   0  0  0  0  0  0
   60.5386   47.3707   27.8924 C   0  0  0  0  0  0
   60.9234   46.9511   29.1789 C   0  0  0  0  0  0
   59.8789   46.3919   30.0693 C   0  0  0  0  0  0
   58.6824   45.9255   29.6456 C   0  0  0  0  0  0
   57.5600   45.5020   30.4702 C   0  0  0  0  0  0
   56.3983   45.2801   29.8010 C   0  0  0  0  0  0
   55.1161   45.0159   30.3929 C   0  0  0  0  0  0
   54.6599   45.6188   31.3514 O   0  0  0  0  0  0
   54.4095   44.0771   29.7168 O   0  0  0  0  0  0
   57.7073   45.3971   31.9903 C   0  0  0  0  0  0
   64.0079   48.8811   35.2774 H   0  0  0  0  0  0
   62.6491   48.9932   36.3907 H   0  0  0  0  0  0
   63.4664   47.4671   36.1833 H   0  0  0  0  0  0
   61.8279   48.9803   34.1009 H   0  0  0  0  0  0
   60.2205   46.9977   34.2703 H   0  0  0  0  0  0
   61.2024   46.3795   35.5904 H   0  0  0  0  0  0
   60.4080   47.9460   35.7482 H   0  0  0  0  0  0
   61.4666   48.1187   31.8681 H   0  0  0  0  0  0
   64.2102   46.2395   34.5418 H   0  0  0  0  0  0
   66.0802   44.4819   31.8765 H   0  0  0  0  0  0
   64.4252   42.9580   32.9748 H   0  0  0  0  0  0
   66.0043   42.8498   33.7394 H   0  0  0  0  0  0
   64.7145   43.7472   34.5183 H   0  0  0  0  0  0
   67.0554   46.4199   33.0942 H   0  0  0  0  0  0
   66.4028   45.8035   34.6066 H   0  0  0  0  0  0
   67.6031   44.8779   33.7393 H   0  0  0  0  0  0
   62.6111   44.6155   29.4697 H   0  0  0  0  0  0
   63.8913   44.7229   28.2864 H   0  0  0  0  0  0
   64.7097   42.4770   29.1173 H   0  0  0  0  0  0
   64.2658   47.2770   28.7416 H   0  0  0  0  0  0
   63.5611   47.9895   26.5210 H   0  0  0  0  0  0
   61.1458   48.0769   25.9694 H   0  0  0  0  0  0
   59.5049   47.3900   27.5862 H   0  0  0  0  0  0
   60.0962   46.4006   31.1231 H   0  0  0  0  0  0
   58.5201   45.8793   28.5797 H   0  0  0  0  0  0
   56.3661   45.3295   28.7215 H   0  0  0  0  0  0
   54.9004   43.7019   28.9795 H   0  0  0  0  0  0
   58.4494   46.0782   32.3922 H   0  0  0  0  0  0
   56.8026   45.6765   32.5276 H   0  0  0  0  0  0
   58.0100   44.3879   32.2601 H   0  0  0  0  0  0
  1  2  1  0  0  0
  1 32  1  0  0  0
  1 33  1  0  0  0
  1 34  1  0  0  0
  2  3  1  0  0  0
  2  4  1  0  0  0
  2 35  1  0  0  0
  3 36  1  0  0  0
  3 37  1  0  0  0
  3 38  1  0  0  0
  4  9  1  0  0  0
  4  5  2  0  0  0
  5  6  1  0  0  0
  5 39  1  0  0  0
  6  7  2  0  0  0
  6 18  1  0  0  0
  7  8  1  0  0  0
  7 13  1  0  0  0
  8  9  2  0  0  0
  8 10  1  0  0  0
  9 40  1  0  0  0
 10 11  1  0  0  0
 10 12  1  0  0  0
 10 41  1  0  0  0
 11 42  1  0  0  0
 11 43  1  0  0  0
 11 44  1  0  0  0
 12 45  1  0  0  0
 12 46  1  0  0  0
 12 47  1  0  0  0
 13 14  1  0  0  0
 14 15  1  0  0  0
 14 48  1  0  0  0
 14 49  1  0  0  0
 15 16  1  0  0  0
 15 17  1  0  0  0
 15 50  1  0  0  0
 18 23  1  0  0  0
 18 19  2  0  0  0
 19 20  1  0  0  0
 19 51  1  0  0  0
 20 21  2  0  0  0
 20 52  1  0  0  0
 21 22  1  0  0  0
 21 53  1  0  0  0
 22 23  2  0  0  0
 22 54  1  0  0  0
 23 24  1  0  0  0
 24 25  2  0  0  0
 24 55  1  0  0  0
 25 26  1  0  0  0
 25 56  1  0  0  0
 26 27  2  0  0  0
 26 31  1  0  0  0
 27 28  1  0  0  0
 27 57  1  0  0  0
 28 29  2  0  0  0
 28 30  1  0  0  0
 30 58  1  0  0  0
 31 59  1  0  0  0
 31 60  1  0  0  0
 31 61  1  0  0  0
M  END
> <s_m_entry_id>
31389

> <s_m_entry_name>
ligand_docking-pose.81

> <s_m_Source_Path>
/home/csk/Desktop/cluster/DUD-E-result/rxra

> <s_m_Source_File>
ligand_docking-pose.sdf

> <i_m_Source_File_Index>
81

> <i_lp_mmshare_version>
53161

> <i_f3d_flags>
0

> <r_lp_tautomer_probability>
1

> <s_lp_Force_Field>
OPLS_2005

> <r_lp_Energy>
33.279288

> <b_lp_Chiralities_Consistent>
1

> <s_lp_Variant>
217738-1

> <s_i_glide_gridfile>
glide-grid_1mv9

> <i_i_glide_lignum>
179

> <i_i_glide_rotatable_bonds>
10

> <r_i_docking_score>
-10.8998040848938

> <r_i_glide_ligand_efficiency>
-0.351606583383672

> <r_i_glide_ligand_efficiency_sa>
-1.10453011703059

> <r_i_glide_ligand_efficiency_ln>
-2.45823986002221

> <r_i_glide_gscore>
-10.8998040848938

> <r_i_glide_lipo>
-6.68923256770546

> <r_i_glide_hbond>
-0.14489397421979

> <r_i_glide_metal>
0

> <r_i_glide_rewards>
-1.84752549429136

> <r_i_glide_evdw>
-41.5465278625488

> <r_i_glide_ecoul>
-5.24852418899536

> <r_i_glide_erotb>
0.649083521942888

> <r_i_glide_esite>
-0.00263054914335936

> <r_i_glide_emodel>
-51.3596340192719

> <r_i_glide_energy>
-46.7950520515442

> <r_i_glide_einternal>
8.7773380279541

> <i_i_glide_confnum>
54

> <i_i_glide_posenum>
61

> <r_i_glide_eff_state_penalty>
0

> <s_user_duplicate_titles>
217738

> <s_m_subgroup_title>
dock_pv

> <s_m_subgroupid>
dock_pv1

> <b_m_subgroup_collapsed>
0

$$$$
217721
                    3D
 Schrodinger Suite 2021-1.
 62 63  0  0  1  0            999 V2000
   63.0855   48.3068   35.5970 C   0  0  0  0  0  0
   62.0905   47.9768   34.4627 C   0  0  0  0  0  0
   60.9178   47.1542   34.9999 C   0  0  0  0  0  0
   62.7147   47.2951   33.2518 C   0  0  0  0  0  0
   62.2546   47.5724   31.9604 C   0  0  0  0  0  0
   62.8201   46.9527   30.8391 C   0  0  0  0  0  0
   63.8716   46.0337   31.0359 C   0  0  0  0  0  0
   64.3533   45.7610   32.3335 C   0  0  0  0  0  0
   63.7487   46.3834   33.4224 C   0  0  0  0  0  0
   65.5231   44.8092   32.6207 C   0  0  0  0  0  0
   65.0500   43.5301   33.3465 C   0  0  0  0  0  0
   66.6366   45.5152   33.4317 C   0  0  0  0  0  0
   64.4091   45.3829   29.9533 O   0  0  0  0  0  0
   63.8813   44.0757   29.7393 C   0  0  0  0  0  0
   62.7227   44.0492   28.7280 C   0  0  0  0  0  0
   62.8081   44.9370   27.7431 F   0  0  0  0  0  0
   62.6485   42.8760   28.1391 F   0  0  0  0  0  0
   61.5689   44.2373   29.3389 F   0  0  0  0  0  0
   62.2879   47.2597   29.4796 C   0  0  0  0  0  0
   61.0000   47.0441   29.1018 C   0  0  0  0  0  0
   60.8526   47.4225   27.6347 C   0  0  0  0  0  0
   62.2101   47.9550   27.2031 C   0  0  0  0  0  0
   63.1655   47.8068   28.3606 C   0  0  0  0  0  0
   59.9479   46.4766   29.9328 C   0  0  0  0  0  0
   58.7002   46.1919   29.5094 C   0  0  0  0  0  0
   57.6175   45.6760   30.3459 C   0  0  0  0  0  0
   56.4245   45.4754   29.7290 C   0  0  0  0  0  0
   55.1965   45.1378   30.3974 C   0  0  0  0  0  0
   54.8060   45.6754   31.4250 O   0  0  0  0  0  0
   54.4753   44.1970   29.7349 O   0  0  0  0  0  0
   57.8269   45.4566   31.8528 C   0  0  0  0  0  0
   63.9323   48.8862   35.2301 H   0  0  0  0  0  0
   62.5931   48.8858   36.3747 H   0  0  0  0  0  0
   63.4767   47.4151   36.0860 H   0  0  0  0  0  0
   61.7039   48.9367   34.1245 H   0  0  0  0  0  0
   60.1999   46.8870   34.2223 H   0  0  0  0  0  0
   61.2531   46.2308   35.4735 H   0  0  0  0  0  0
   60.4121   47.7537   35.7487 H   0  0  0  0  0  0
   61.4531   48.2853   31.8235 H   0  0  0  0  0  0
   64.0960   46.1497   34.4166 H   0  0  0  0  0  0
   65.9664   44.4980   31.6738 H   0  0  0  0  0  0
   64.3396   42.9609   32.7468 H   0  0  0  0  0  0
   65.8881   42.8700   33.5722 H   0  0  0  0  0  0
   64.5647   43.7577   34.2967 H   0  0  0  0  0  0
   66.9698   46.4290   32.9385 H   0  0  0  0  0  0
   66.3047   45.7922   34.4321 H   0  0  0  0  0  0
   67.5067   44.8767   33.5690 H   0  0  0  0  0  0
   64.6866   43.4655   29.3677 H   0  0  0  0  0  0
   63.6066   43.5705   30.6645 H   0  0  0  0  0  0
   60.5810   46.5430   27.0477 H   0  0  0  0  0  0
   60.0724   48.1711   27.4976 H   0  0  0  0  0  0
   62.5950   47.4475   26.3208 H   0  0  0  0  0  0
   62.1345   49.0052   26.9392 H   0  0  0  0  0  0
   63.6053   48.7832   28.5390 H   0  0  0  0  0  0
   63.9769   47.1184   28.1184 H   0  0  0  0  0  0
   60.2066   46.2709   30.9574 H   0  0  0  0  0  0
   58.4818   46.3773   28.4667 H   0  0  0  0  0  0
   56.3249   45.5982   28.6600 H   0  0  0  0  0  0
   54.9344   43.8590   28.9603 H   0  0  0  0  0  0
   58.6139   46.0766   32.2770 H   0  0  0  0  0  0
   56.9620   45.7477   32.4435 H   0  0  0  0  0  0
   58.0106   44.4042   32.0597 H   0  0  0  0  0  0
  1  2  1  0  0  0
  1 32  1  0  0  0
  1 33  1  0  0  0
  1 34  1  0  0  0
  2  3  1  0  0  0
  2  4  1  0  0  0
  2 35  1  0  0  0
  3 36  1  0  0  0
  3 37  1  0  0  0
  3 38  1  0  0  0
  4  9  1  0  0  0
  4  5  2  0  0  0
  5  6  1  0  0  0
  5 39  1  0  0  0
  6  7  2  0  0  0
  6 19  1  0  0  0
  7  8  1  0  0  0
  7 13  1  0  0  0
  8  9  2  0  0  0
  8 10  1  0  0  0
  9 40  1  0  0  0
 10 11  1  0  0  0
 10 12  1  0  0  0
 10 41  1  0  0  0
 11 42  1  0  0  0
 11 43  1  0  0  0
 11 44  1  0  0  0
 12 45  1  0  0  0
 12 46  1  0  0  0
 12 47  1  0  0  0
 13 14  1  0  0  0
 14 15  1  0  0  0
 14 48  1  0  0  0
 14 49  1  0  0  0
 15 16  1  0  0  0
 15 17  1  0  0  0
 15 18  1  0  0  0
 19 23  1  0  0  0
 19 20  2  0  0  0
 20 21  1  0  0  0
 20 24  1  0  0  0
 21 22  1  0  0  0
 21 50  1  0  0  0
 21 51  1  0  0  0
 22 23  1  0  0  0
 22 52  1  0  0  0
 22 53  1  0  0  0
 23 54  1  0  0  0
 23 55  1  0  0  0
 24 25  2  0  0  0
 24 56  1  0  0  0
 25 26  1  0  0  0
 25 57  1  0  0  0
 26 27  2  0  0  0
 26 31  1  0  0  0
 27 28  1  0  0  0
 27 58  1  0  0  0
 28 29  2  0  0  0
 28 30  1  0  0  0
 30 59  1  0  0  0
 31 60  1  0  0  0
 31 61  1  0  0  0
 31 62  1  0  0  0
M  END
> <s_m_entry_id>
31401

> <s_m_entry_name>
ligand_docking-pose.93

> <s_m_Source_Path>
/home/csk/Desktop/cluster/DUD-E-result/rxra

> <s_m_Source_File>
ligand_docking-pose.sdf

> <i_m_Source_File_Index>
93

> <i_lp_mmshare_version>
53161

> <i_f3d_flags>
0

> <r_lp_tautomer_probability>
1

> <s_lp_Force_Field>
OPLS_2005

> <r_lp_Energy>
35.837259

> <b_lp_Chiralities_Consistent>
1

> <s_lp_Variant>
217721-1

> <s_i_glide_gridfile>
glide-grid_1mv9

> <i_i_glide_lignum>
181

> <i_i_glide_rotatable_bonds>
10

> <r_i_docking_score>
-10.8200794186419

> <r_i_glide_ligand_efficiency>
-0.349034819956189

> <r_i_glide_ligand_efficiency_sa>
-1.09645122916622

> <r_i_glide_ligand_efficiency_ln>
-2.4402595045148

> <r_i_glide_gscore>
-10.8200794186419

> <r_i_glide_lipo>
-6.70960368559027

> <r_i_glide_hbond>
-0.101314510422903

> <r_i_glide_metal>
0

> <r_i_glide_rewards>
-1.97568495393411

> <r_i_glide_evdw>
-41.7659759521484

> <r_i_glide_ecoul>
-3.81916880607605

> <r_i_glide_erotb>
0.62769784982425

> <r_i_glide_esite>
0

> <r_i_glide_emodel>
-69.7479670264146

> <r_i_glide_energy>
-45.5851447582245

> <r_i_glide_einternal>
4.85471725463867

> <i_i_glide_confnum>
95

> <i_i_glide_posenum>
165

> <r_i_glide_eff_state_penalty>
0

> <s_user_duplicate_titles>
217721

> <s_m_subgroup_title>
dock_pv

> <s_m_subgroupid>
dock_pv1

> <b_m_subgroup_collapsed>
0

$$$$
217805
                    3D
 Schrodinger Suite 2021-1.
 64 65  0  0  1  0            999 V2000
   63.5014   48.3410   27.2084 C   0  0  0  0  0  0
   62.4687   47.3662   27.7958 C   0  0  0  0  0  0
   61.0293   47.8956   27.6873 C   0  0  0  0  0  0
   62.8753   46.8814   29.1896 C   0  0  0  0  0  0
   62.4065   47.4461   30.3850 C   0  0  0  0  0  0
   62.7554   46.8761   31.6218 C   0  0  0  0  0  0
   63.5954   45.7531   31.6677 C   0  0  0  0  0  0
   64.1060   45.2390   30.4839 C   0  0  0  0  0  0
   63.7527   45.8055   29.2610 C   0  0  0  0  0  0
   65.0272   44.0409   30.5121 C   0  0  0  0  0  0
   66.4416   44.4869   30.1308 C   0  0  0  0  0  0
   64.4118   42.8697   29.7416 C   0  0  0  0  0  0
   63.8016   45.0216   32.8247 O   0  0  0  0  0  0
   64.5810   45.5913   33.8598 C   0  0  0  0  0  0
   65.7772   44.6832   34.1872 C   0  0  0  0  0  0
   67.0435   45.5035   34.3850 C   0  0  0  0  0  0
   67.2079   46.3777   33.3910 F   0  0  0  0  0  0
   62.0868   47.2586   32.8753 C   0  0  0  0  0  0
   62.7637   48.0201   33.8380 C   0  0  0  0  0  0
   62.3238   48.0729   35.1535 C   0  0  0  0  0  0
   61.2079   47.3351   35.5145 C   0  0  0  0  0  0
   60.4987   46.6332   34.5383 C   0  0  0  0  0  0
   60.8781   46.6357   33.2033 C   0  0  0  0  0  0
   59.9878   46.0770   32.1513 C   0  0  0  0  0  0
   58.6786   45.7565   32.2638 C   0  0  0  0  0  0
   57.8298   45.2792   31.1744 C   0  0  0  0  0  0
   56.4920   45.3303   31.3940 C   0  0  0  0  0  0
   55.4246   44.9740   30.4954 C   0  0  0  0  0  0
   54.3723   44.4787   30.8851 O   0  0  0  0  0  0
   55.6581   45.3282   29.1996 O   0  0  0  0  0  0
   58.4526   44.7357   29.8902 C   0  0  0  0  0  0
   64.5196   47.9634   27.3186 H   0  0  0  0  0  0
   63.3233   48.4769   26.1423 H   0  0  0  0  0  0
   63.4556   49.3166   27.6918 H   0  0  0  0  0  0
   62.4779   46.4795   27.1578 H   0  0  0  0  0  0
   60.3159   47.2286   28.1723 H   0  0  0  0  0  0
   60.9363   48.8773   28.1385 H   0  0  0  0  0  0
   60.7262   47.9950   26.6436 H   0  0  0  0  0  0
   61.7182   48.2782   30.3579 H   0  0  0  0  0  0
   64.1429   45.3795   28.3507 H   0  0  0  0  0  0
   65.1240   43.6519   31.5169 H   0  0  0  0  0  0
   66.9079   45.0199   30.9570 H   0  0  0  0  0  0
   67.0996   43.6758   29.8413 H   0  0  0  0  0  0
   66.4079   45.1782   29.2967 H   0  0  0  0  0  0
   63.5793   42.4496   30.3065 H   0  0  0  0  0  0
   64.0080   43.1294   28.7613 H   0  0  0  0  0  0
   65.1520   42.0780   29.6211 H   0  0  0  0  0  0
   64.9134   46.5937   33.5904 H   0  0  0  0  0  0
   63.9595   45.6999   34.7489 H   0  0  0  0  0  0
   65.5649   44.0768   35.0656 H   0  0  0  0  0  0
   65.9681   43.9761   33.3867 H   0  0  0  0  0  0
   66.9646   46.0770   35.3030 H   0  0  0  0  0  0
   67.9352   44.8781   34.4487 H   0  0  0  0  0  0
   63.7054   48.4770   33.6084 H   0  0  0  0  0  0
   62.8830   48.6256   35.8955 H   0  0  0  0  0  0
   60.8736   47.3326   36.5412 H   0  0  0  0  0  0
   59.6105   46.0978   34.7766 H   0  0  0  0  0  0
   60.4426   45.9177   31.1854 H   0  0  0  0  0  0
   58.2077   45.9028   33.2246 H   0  0  0  0  0  0
   56.1170   45.6784   32.3470 H   0  0  0  0  0  0
   56.5337   45.7080   29.1030 H   0  0  0  0  0  0
   59.3144   44.1153   30.1391 H   0  0  0  0  0  0
   57.7996   44.0613   29.3402 H   0  0  0  0  0  0
   58.8228   45.5405   29.2552 H   0  0  0  0  0  0
  1  2  1  0  0  0
  1 32  1  0  0  0
  1 33  1  0  0  0
  1 34  1  0  0  0
  2  3  1  0  0  0
  2  4  1  0  0  0
  2 35  1  0  0  0
  3 36  1  0  0  0
  3 37  1  0  0  0
  3 38  1  0  0  0
  4  9  1  0  0  0
  4  5  2  0  0  0
  5  6  1  0  0  0
  5 39  1  0  0  0
  6  7  2  0  0  0
  6 18  1  0  0  0
  7  8  1  0  0  0
  7 13  1  0  0  0
  8  9  2  0  0  0
  8 10  1  0  0  0
  9 40  1  0  0  0
 10 11  1  0  0  0
 10 12  1  0  0  0
 10 41  1  0  0  0
 11 42  1  0  0  0
 11 43  1  0  0  0
 11 44  1  0  0  0
 12 45  1  0  0  0
 12 46  1  0  0  0
 12 47  1  0  0  0
 13 14  1  0  0  0
 14 15  1  0  0  0
 14 48  1  0  0  0
 14 49  1  0  0  0
 15 16  1  0  0  0
 15 50  1  0  0  0
 15 51  1  0  0  0
 16 17  1  0  0  0
 16 52  1  0  0  0
 16 53  1  0  0  0
 18 23  1  0  0  0
 18 19  2  0  0  0
 19 20  1  0  0  0
 19 54  1  0  0  0
 20 21  2  0  0  0
 20 55  1  0  0  0
 21 22  1  0  0  0
 21 56  1  0  0  0
 22 23  2  0  0  0
 22 57  1  0  0  0
 23 24  1  0  0  0
 24 25  2  0  0  0
 24 58  1  0  0  0
 25 26  1  0  0  0
 25 59  1  0  0  0
 26 27  2  0  0  0
 26 31  1  0  0  0
 27 28  1  0  0  0
 27 60  1  0  0  0
 28 29  2  0  0  0
 28 30  1  0  0  0
 30 61  1  0  0  0
 31 62  1  0  0  0
 31 63  1  0  0  0
 31 64  1  0  0  0
M  END
> <s_m_entry_id>
31402

> <s_m_entry_name>
ligand_docking-pose.94

> <s_m_Source_Path>
/home/csk/Desktop/cluster/DUD-E-result/rxra

> <s_m_Source_File>
ligand_docking-pose.sdf

> <i_m_Source_File_Index>
94

> <i_lp_mmshare_version>
53161

> <i_f3d_flags>
0

> <r_lp_tautomer_probability>
1

> <s_lp_Force_Field>
OPLS_2005

> <r_lp_Energy>
32.593332

> <b_lp_Chiralities_Consistent>
1

> <s_lp_Variant>
217805-1

> <s_i_glide_gridfile>
glide-grid_1mv9

> <i_i_glide_lignum>
172

> <i_i_glide_rotatable_bonds>
11

> <r_i_docking_score>
-10.8178083131614

> <r_i_glide_ligand_efficiency>
-0.348961558489077

> <r_i_glide_ligand_efficiency_sa>
-1.09622108701113

> <r_i_glide_ligand_efficiency_ln>
-2.43974730062792

> <r_i_glide_gscore>
-10.8178083131614

> <r_i_glide_lipo>
-6.24271902455422

> <r_i_glide_hbond>
-0.32

> <r_i_glide_metal>
0

> <r_i_glide_rewards>
-2.51059201629197

> <r_i_glide_evdw>
-35.5846138000488

> <r_i_glide_ecoul>
-4.90251302719116

> <r_i_glide_erotb>
0.77011037176591

> <r_i_glide_esite>
0

> <r_i_glide_emodel>
-64.3250666230926

> <r_i_glide_energy>
-40.48712682724

> <r_i_glide_einternal>
6.08028030395508

> <i_i_glide_confnum>
126

> <i_i_glide_posenum>
33

> <r_i_glide_eff_state_penalty>
0

> <s_user_duplicate_titles>
217805

> <s_m_subgroup_title>
dock_pv

> <s_m_subgroupid>
dock_pv1

> <b_m_subgroup_collapsed>
0

$$$$
218205
                    3D
 Schrodinger Suite 2021-1.
 61 62  0  0  1  0            999 V2000
   62.9316   48.4770   35.8890 C   0  0  0  0  0  0
   61.9902   47.7059   34.9505 C   0  0  0  0  0  0
   61.2225   46.6109   35.7009 C   0  0  0  0  0  0
   62.7327   47.1276   33.7602 C   0  0  0  0  0  0
   62.2724   47.3245   32.4571 C   0  0  0  0  0  0
   62.9520   46.7707   31.3695 C   0  0  0  0  0  0
   64.1240   46.0193   31.6110 C   0  0  0  0  0  0
   64.5905   45.8162   32.9223 C   0  0  0  0  0  0
   63.8797   46.3704   33.9813 C   0  0  0  0  0  0
   65.8281   44.9622   33.2326 C   0  0  0  0  0  0
   65.4403   43.6316   33.9059 C   0  0  0  0  0  0
   66.8628   45.7192   34.0780 C   0  0  0  0  0  0
   64.8066   45.4352   30.5765 O   0  0  0  0  0  0
   64.4384   44.0842   30.3305 C   0  0  0  0  0  0
   63.4893   44.1450   29.1422 C   0  0  0  0  0  0
   63.0044   42.8277   28.6085 C   0  0  0  0  0  0
   62.0148   43.0394   27.7475 F   0  0  0  0  0  0
   62.3551   46.9801   30.0056 C   0  0  0  0  0  0
   61.0698   46.7804   29.4769 C   0  0  0  0  0  0
   61.1696   47.1410   28.1230 C   0  0  0  0  0  0
   62.4866   47.4534   27.8681 C   0  0  0  0  0  0
   63.2067   47.3200   29.0042 O   0  0  0  0  0  0
   59.9057   46.2689   30.1700 C   0  0  0  0  0  0
   58.6877   46.0240   29.6445 C   0  0  0  0  0  0
   57.5275   45.5353   30.3870 C   0  0  0  0  0  0
   56.3943   45.3040   29.6715 C   0  0  0  0  0  0
   55.1121   44.8934   30.1979 C   0  0  0  0  0  0
   54.6230   45.2695   31.2579 O   0  0  0  0  0  0
   54.4444   44.0781   29.3398 O   0  0  0  0  0  0
   57.6254   45.3519   31.9039 C   0  0  0  0  0  0
   63.6117   49.1249   35.3344 H   0  0  0  0  0  0
   62.3437   49.1185   36.5389 H   0  0  0  0  0  0
   63.5332   47.8174   36.5166 H   0  0  0  0  0  0
   61.2648   48.4317   34.5884 H   0  0  0  0  0  0
   60.4094   46.2100   35.0956 H   0  0  0  0  0  0
   61.8698   45.7801   35.9863 H   0  0  0  0  0  0
   60.8080   47.0208   36.6146 H   0  0  0  0  0  0
   61.3786   47.9045   32.2867 H   0  0  0  0  0  0
   64.2131   46.1977   34.9934 H   0  0  0  0  0  0
   66.3388   44.7257   32.2999 H   0  0  0  0  0  0
   64.7613   43.0442   33.2865 H   0  0  0  0  0  0
   66.3208   43.0153   34.0911 H   0  0  0  0  0  0
   64.9516   43.7890   34.8679 H   0  0  0  0  0  0
   67.2253   46.6014   33.5512 H   0  0  0  0  0  0
   66.4570   46.0447   35.0339 H   0  0  0  0  0  0
   67.7221   45.0862   34.2936 H   0  0  0  0  0  0
   65.3397   43.5100   30.1269 H   0  0  0  0  0  0
   63.9554   43.5946   31.1788 H   0  0  0  0  0  0
   62.5795   44.6277   29.4664 H   0  0  0  0  0  0
   63.9283   44.7475   28.3467 H   0  0  0  0  0  0
   63.8069   42.2919   28.1118 H   0  0  0  0  0  0
   62.6013   42.1964   29.3990 H   0  0  0  0  0  0
   60.3723   47.1300   27.3944 H   0  0  0  0  0  0
   63.0307   47.7455   26.9812 H   0  0  0  0  0  0
   60.0939   46.0793   31.2142 H   0  0  0  0  0  0
   58.5656   46.2106   28.5872 H   0  0  0  0  0  0
   56.4010   45.4351   28.5977 H   0  0  0  0  0  0
   54.9687   43.7925   28.5832 H   0  0  0  0  0  0
   58.2932   46.0787   32.3569 H   0  0  0  0  0  0
   56.6922   45.5433   32.4254 H   0  0  0  0  0  0
   58.0082   44.3602   32.1413 H   0  0  0  0  0  0
  1  2  1  0  0  0
  1 31  1  0  0  0
  1 32  1  0  0  0
  1 33  1  0  0  0
  2  3  1  0  0  0
  2  4  1  0  0  0
  2 34  1  0  0  0
  3 35  1  0  0  0
  3 36  1  0  0  0
  3 37  1  0  0  0
  4  9  1  0  0  0
  4  5  2  0  0  0
  5  6  1  0  0  0
  5 38  1  0  0  0
  6  7  2  0  0  0
  6 18  1  0  0  0
  7  8  1  0  0  0
  7 13  1  0  0  0
  8  9  2  0  0  0
  8 10  1  0  0  0
  9 39  1  0  0  0
 10 11  1  0  0  0
 10 12  1  0  0  0
 10 40  1  0  0  0
 11 41  1  0  0  0
 11 42  1  0  0  0
 11 43  1  0  0  0
 12 44  1  0  0  0
 12 45  1  0  0  0
 12 46  1  0  0  0
 13 14  1  0  0  0
 14 15  1  0  0  0
 14 47  1  0  0  0
 14 48  1  0  0  0
 15 16  1  0  0  0
 15 49  1  0  0  0
 15 50  1  0  0  0
 16 17  1  0  0  0
 16 51  1  0  0  0
 16 52  1  0  0  0
 18 22  1  0  0  0
 18 19  2  0  0  0
 19 20  1  0  0  0
 19 23  1  0  0  0
 20 21  2  0  0  0
 20 53  1  0  0  0
 21 22  1  0  0  0
 21 54  1  0  0  0
 23 24  2  0  0  0
 23 55  1  0  0  0
 24 25  1  0  0  0
 24 56  1  0  0  0
 25 26  2  0  0  0
 25 30  1  0  0  0
 26 27  1  0  0  0
 26 57  1  0  0  0
 27 28  2  0  0  0
 27 29  1  0  0  0
 29 58  1  0  0  0
 30 59  1  0  0  0
 30 60  1  0  0  0
 30 61  1  0  0  0
M  END
> <s_m_entry_id>
31426

> <s_m_entry_name>
ligand_docking-pose.118

> <s_m_Source_Path>
/home/csk/Desktop/cluster/DUD-E-result/rxra

> <s_m_Source_File>
ligand_docking-pose.sdf

> <i_m_Source_File_Index>
118

> <i_lp_mmshare_version>
53161

> <i_f3d_flags>
0

> <r_lp_tautomer_probability>
1

> <s_lp_Force_Field>
OPLS_2005

> <r_lp_Energy>
26.585642

> <b_lp_Chiralities_Consistent>
1

> <s_lp_Variant>
218205-1

> <s_i_glide_gridfile>
glide-grid_1mv9

> <i_i_glide_lignum>
173

> <i_i_glide_rotatable_bonds>
11

> <r_i_docking_score>
-10.6450294054643

> <r_i_glide_ligand_efficiency>
-0.354834313515478

> <r_i_glide_ligand_efficiency_sa>
-1.10255271193311

> <r_i_glide_ligand_efficiency_ln>
-2.41866666780669

> <r_i_glide_gscore>
-10.6450294054643

> <r_i_glide_lipo>
-6.52081316318137

> <r_i_glide_hbond>
-0.08260673537022

> <r_i_glide_metal>
0

> <r_i_glide_rewards>
-1.80092922405672

> <r_i_glide_evdw>
-42.5789642333984

> <r_i_glide_ecoul>
-6.1058669090271

> <r_i_glide_erotb>
0.804147965167971

> <r_i_glide_esite>
0

> <r_i_glide_emodel>
-68.1372285062186

> <r_i_glide_energy>
-48.6848311424255

> <r_i_glide_einternal>
4.78589105606079

> <i_i_glide_confnum>
146

> <i_i_glide_posenum>
95

> <r_i_glide_eff_state_penalty>
0

> <s_user_duplicate_titles>
218205

> <s_m_subgroup_title>
dock_pv

> <s_m_subgroupid>
dock_pv1

> <b_m_subgroup_collapsed>
0

$$$$
217756
                    3D
 Schrodinger Suite 2021-1.
 58 59  0  0  1  0            999 V2000
   63.1442   48.3552   35.5038 C   0  0  0  0  0  0
   62.1026   48.0213   34.4108 C   0  0  0  0  0  0
   60.9113   47.2645   35.0121 C   0  0  0  0  0  0
   62.6854   47.2784   33.2092 C   0  0  0  0  0  0
   62.2562   47.5607   31.9067 C   0  0  0  0  0  0
   62.8203   46.9119   30.7985 C   0  0  0  0  0  0
   63.8283   45.9531   31.0147 C   0  0  0  0  0  0
   64.2813   45.6820   32.3210 C   0  0  0  0  0  0
   63.6811   46.3269   33.3986 C   0  0  0  0  0  0
   65.4262   44.7097   32.6137 C   0  0  0  0  0  0
   64.9099   43.4040   33.2576 C   0  0  0  0  0  0
   66.5288   45.3561   33.4808 C   0  0  0  0  0  0
   64.3598   45.2696   29.9477 O   0  0  0  0  0  0
   63.7659   43.9896   29.7248 C   0  0  0  0  0  0
   62.6054   44.0452   28.7259 C   0  0  0  0  0  0
   62.4082   42.8770   28.1492 F   0  0  0  0  0  0
   61.4824   44.3777   29.3390 F   0  0  0  0  0  0
   62.8059   44.9046   27.7376 F   0  0  0  0  0  0
   62.3346   47.2762   29.4179 C   0  0  0  0  0  0
   63.1760   47.6455   28.3495 C   0  0  0  0  0  0
   62.5096   47.9817   27.1883 C   0  0  0  0  0  0
   60.8107   47.7471   27.3392 S   0  0  0  0  0  0
   61.0023   47.2066   28.9778 C   0  0  0  0  0  0
   59.8941   46.6665   29.7375 C   0  0  0  0  0  0
   58.6492   46.3534   29.3278 C   0  0  0  0  0  0
   57.6137   45.7773   30.1803 C   0  0  0  0  0  0
   56.3814   45.6284   29.6287 C   0  0  0  0  0  0
   55.1877   45.1638   30.2921 C   0  0  0  0  0  0
   54.3297   44.4751   29.7540 O   0  0  0  0  0  0
   55.0547   45.6574   31.5524 O   0  0  0  0  0  0
   57.9388   45.3401   31.6140 C   0  0  0  0  0  0
   64.0035   48.8796   35.0862 H   0  0  0  0  0  0
   62.7097   48.9896   36.2720 H   0  0  0  0  0  0
   63.5110   47.4669   36.0188 H   0  0  0  0  0  0
   61.7482   48.9835   34.0423 H   0  0  0  0  0  0
   60.1846   46.9651   34.2558 H   0  0  0  0  0  0
   61.2306   46.3593   35.5300 H   0  0  0  0  0  0
   60.4080   47.9031   35.7367 H   0  0  0  0  0  0
   61.4961   48.3120   31.7488 H   0  0  0  0  0  0
   64.0099   46.0912   34.3980 H   0  0  0  0  0  0
   65.9071   44.4773   31.6640 H   0  0  0  0  0  0
   64.1152   42.9408   32.6756 H   0  0  0  0  0  0
   65.7062   42.6668   33.3484 H   0  0  0  0  0  0
   64.5142   43.5805   34.2585 H   0  0  0  0  0  0
   66.8935   46.2816   33.0330 H   0  0  0  0  0  0
   66.1842   45.5922   34.4876 H   0  0  0  0  0  0
   67.3786   44.6888   33.5986 H   0  0  0  0  0  0
   64.5194   43.3224   29.3395 H   0  0  0  0  0  0
   63.4589   43.5014   30.6439 H   0  0  0  0  0  0
   64.2512   47.6590   28.4138 H   0  0  0  0  0  0
   62.9363   48.2993   26.2484 H   0  0  0  0  0  0
   60.1712   46.4867   30.7589 H   0  0  0  0  0  0
   58.4060   46.5405   28.2916 H   0  0  0  0  0  0
   56.2094   45.8743   28.5903 H   0  0  0  0  0  0
   55.8233   46.1816   31.7900 H   0  0  0  0  0  0
   58.9916   45.2792   31.8528 H   0  0  0  0  0  0
   57.4507   45.9661   32.3617 H   0  0  0  0  0  0
   57.6032   44.3150   31.7378 H   0  0  0  0  0  0
  1  2  1  0  0  0
  1 32  1  0  0  0
  1 33  1  0  0  0
  1 34  1  0  0  0
  2  3  1  0  0  0
  2  4  1  0  0  0
  2 35  1  0  0  0
  3 36  1  0  0  0
  3 37  1  0  0  0
  3 38  1  0  0  0
  4  9  1  0  0  0
  4  5  2  0  0  0
  5  6  1  0  0  0
  5 39  1  0  0  0
  6  7  2  0  0  0
  6 19  1  0  0  0
  7  8  1  0  0  0
  7 13  1  0  0  0
  8  9  2  0  0  0
  8 10  1  0  0  0
  9 40  1  0  0  0
 10 11  1  0  0  0
 10 12  1  0  0  0
 10 41  1  0  0  0
 11 42  1  0  0  0
 11 43  1  0  0  0
 11 44  1  0  0  0
 12 45  1  0  0  0
 12 46  1  0  0  0
 12 47  1  0  0  0
 13 14  1  0  0  0
 14 15  1  0  0  0
 14 48  1  0  0  0
 14 49  1  0  0  0
 15 16  1  0  0  0
 15 17  1  0  0  0
 15 18  1  0  0  0
 19 23  2  0  0  0
 19 20  1  0  0  0
 20 21  2  0  0  0
 20 50  1  0  0  0
 21 22  1  0  0  0
 21 51  1  0  0  0
 22 23  1  0  0  0
 23 24  1  0  0  0
 24 25  2  0  0  0
 24 52  1  0  0  0
 25 26  1  0  0  0
 25 53  1  0  0  0
 26 27  2  0  0  0
 26 31  1  0  0  0
 27 28  1  0  0  0
 27 54  1  0  0  0
 28 29  2  0  0  0
 28 30  1  0  0  0
 30 55  1  0  0  0
 31 56  1  0  0  0
 31 57  1  0  0  0
 31 58  1  0  0  0
M  END
> <s_m_entry_id>
31430

> <s_m_entry_name>
ligand_docking-pose.122

> <s_m_Source_Path>
/home/csk/Desktop/cluster/DUD-E-result/rxra

> <s_m_Source_File>
ligand_docking-pose.sdf

> <i_m_Source_File_Index>
122

> <i_lp_mmshare_version>
53161

> <i_f3d_flags>
0

> <r_lp_tautomer_probability>
1

> <s_lp_Force_Field>
OPLS_2005

> <r_lp_Energy>
24.966428

> <b_lp_Chiralities_Consistent>
1

> <s_lp_Variant>
217756-1

> <s_i_glide_gridfile>
glide-grid_1mv9

> <i_i_glide_lignum>
183

> <i_i_glide_rotatable_bonds>
10

> <r_i_docking_score>
-10.6072011832221

> <r_i_glide_ligand_efficiency>
-0.342167780103937

> <r_i_glide_ligand_efficiency_sa>
-1.07487924305985

> <r_i_glide_ligand_efficiency_ln>
-2.39224893849321

> <r_i_glide_gscore>
-10.6072011832221

> <r_i_glide_lipo>
-6.63397240580455

> <r_i_glide_hbond>
0

> <r_i_glide_metal>
0

> <r_i_glide_rewards>
-1.84624586704971

> <r_i_glide_evdw>
-46.4864273071289

> <r_i_glide_ecoul>
-2.60383033752441

> <r_i_glide_erotb>
0.587913005617315

> <r_i_glide_esite>
0

> <r_i_glide_emodel>
-77.8183145432008

> <r_i_glide_energy>
-49.0902576446533

> <r_i_glide_einternal>
2.2935791015625

> <i_i_glide_confnum>
10

> <i_i_glide_posenum>
180

> <r_i_glide_eff_state_penalty>
0

> <s_user_duplicate_titles>
217756

> <s_m_subgroup_title>
dock_pv

> <s_m_subgroupid>
dock_pv1

> <b_m_subgroup_collapsed>
0

$$$$
217752
                    3D
 Schrodinger Suite 2021-1.
 65 66  0  0  1  0            999 V2000
   63.0942   48.4030   27.0798 C   0  0  0  0  0  0
   62.1252   47.3878   27.6945 C   0  0  0  0  0  0
   60.6718   47.8881   27.6648 C   0  0  0  0  0  0
   62.6474   46.9515   29.0577 C   0  0  0  0  0  0
   62.1469   47.4209   30.2740 C   0  0  0  0  0  0
   62.6824   46.9553   31.4842 C   0  0  0  0  0  0
   63.7885   46.0837   31.4782 C   0  0  0  0  0  0
   64.2942   45.6305   30.2564 C   0  0  0  0  0  0
   63.7058   46.0549   29.0717 C   0  0  0  0  0  0
   65.4426   44.6409   30.1388 C   0  0  0  0  0  0
   64.9269   43.1783   30.1395 C   0  0  0  0  0  0
   66.6335   44.9060   31.0595 C   0  0  0  0  0  0
   64.4070   45.6917   32.6458 O   0  0  0  0  0  0
   63.7775   44.6657   33.4030 C   0  0  0  0  0  0
   64.5993   44.3029   34.6411 C   0  0  0  0  0  0
   64.8027   45.5272   35.5310 C   0  0  0  0  0  0
   65.6065   46.4107   34.9384 F   0  0  0  0  0  0
   62.0151   47.2386   32.7618 C   0  0  0  0  0  0
   60.7922   46.7420   33.0493 C   0  0  0  0  0  0
   60.5854   46.9220   34.5426 C   0  0  0  0  0  0
   61.6700   47.8849   35.0106 C   0  0  0  0  0  0
   62.6751   48.0126   33.8824 C   0  0  0  0  0  0
   59.9118   46.0770   32.0905 C   0  0  0  0  0  0
   58.6330   45.6909   32.2784 C   0  0  0  0  0  0
   57.7777   45.1870   31.1983 C   0  0  0  0  0  0
   56.4372   45.3015   31.3817 C   0  0  0  0  0  0
   55.3709   44.9873   30.4571 C   0  0  0  0  0  0
   54.2427   44.6711   30.8215 O   0  0  0  0  0  0
   55.7027   45.1705   29.1519 O   0  0  0  0  0  0
   58.3943   44.5658   29.9405 C   0  0  0  0  0  0
   64.1177   48.0277   27.0500 H   0  0  0  0  0  0
   62.8095   48.6090   26.0531 H   0  0  0  0  0  0
   63.0963   49.3298   27.6559 H   0  0  0  0  0  0
   62.1370   46.4975   27.0617 H   0  0  0  0  0  0
   59.9916   47.1973   28.1636 H   0  0  0  0  0  0
   60.5765   48.8637   28.1312 H   0  0  0  0  0  0
   60.3369   47.9992   26.6340 H   0  0  0  0  0  0
   61.3104   48.1033   30.2904 H   0  0  0  0  0  0
   64.0875   45.6822   28.1395 H   0  0  0  0  0  0
   65.8747   44.8772   29.1703 H   0  0  0  0  0  0
   64.0294   43.0707   29.5268 H   0  0  0  0  0  0
   65.6595   42.4732   29.7427 H   0  0  0  0  0  0
   64.6782   42.8369   31.1408 H   0  0  0  0  0  0
   66.8063   45.9742   31.1748 H   0  0  0  0  0  0
   66.5014   44.4832   32.0550 H   0  0  0  0  0  0
   67.5297   44.4774   30.6125 H   0  0  0  0  0  0
   62.8150   45.0092   33.7691 H   0  0  0  0  0  0
   63.6084   43.7786   32.7959 H   0  0  0  0  0  0
   64.0763   43.5268   35.1998 H   0  0  0  0  0  0
   65.5630   43.8875   34.3467 H   0  0  0  0  0  0
   63.8573   46.0263   35.7333 H   0  0  0  0  0  0
   65.2080   45.2780   36.5060 H   0  0  0  0  0  0
   59.6045   47.2715   34.8012 H   0  0  0  0  0  0
   60.7284   45.9560   35.0290 H   0  0  0  0  0  0
   61.2206   48.8564   35.2255 H   0  0  0  0  0  0
   62.1335   47.5561   35.9403 H   0  0  0  0  0  0
   63.6490   47.6105   34.1391 H   0  0  0  0  0  0
   62.8097   49.0592   33.6069 H   0  0  0  0  0  0
   60.3108   45.9117   31.1037 H   0  0  0  0  0  0
   58.2058   45.8240   33.2627 H   0  0  0  0  0  0
   56.0580   45.6945   32.3138 H   0  0  0  0  0  0
   56.6226   45.4248   29.0683 H   0  0  0  0  0  0
   59.3482   44.0818   30.1391 H   0  0  0  0  0  0
   57.7782   43.7537   29.5533 H   0  0  0  0  0  0
   58.5521   45.3146   29.1649 H   0  0  0  0  0  0
  1  2  1  0  0  0
  1 31  1  0  0  0
  1 32  1  0  0  0
  1 33  1  0  0  0
  2  3  1  0  0  0
  2  4  1  0  0  0
  2 34  1  0  0  0
  3 35  1  0  0  0
  3 36  1  0  0  0
  3 37  1  0  0  0
  4  9  1  0  0  0
  4  5  2  0  0  0
  5  6  1  0  0  0
  5 38  1  0  0  0
  6  7  2  0  0  0
  6 18  1  0  0  0
  7  8  1  0  0  0
  7 13  1  0  0  0
  8  9  2  0  0  0
  8 10  1  0  0  0
  9 39  1  0  0  0
 10 11  1  0  0  0
 10 12  1  0  0  0
 10 40  1  0  0  0
 11 41  1  0  0  0
 11 42  1  0  0  0
 11 43  1  0  0  0
 12 44  1  0  0  0
 12 45  1  0  0  0
 12 46  1  0  0  0
 13 14  1  0  0  0
 14 15  1  0  0  0
 14 47  1  0  0  0
 14 48  1  0  0  0
 15 16  1  0  0  0
 15 49  1  0  0  0
 15 50  1  0  0  0
 16 17  1  0  0  0
 16 51  1  0  0  0
 16 52  1  0  0  0
 18 22  1  0  0  0
 18 19  2  0  0  0
 19 20  1  0  0  0
 19 23  1  0  0  0
 20 21  1  0  0  0
 20 53  1  0  0  0
 20 54  1  0  0  0
 21 22  1  0  0  0
 21 55  1  0  0  0
 21 56  1  0  0  0
 22 57  1  0  0  0
 22 58  1  0  0  0
 23 24  2  0  0  0
 23 59  1  0  0  0
 24 25  1  0  0  0
 24 60  1  0  0  0
 25 26  2  0  0  0
 25 30  1  0  0  0
 26 27  1  0  0  0
 26 61  1  0  0  0
 27 28  2  0  0  0
 27 29  1  0  0  0
 29 62  1  0  0  0
 30 63  1  0  0  0
 30 64  1  0  0  0
 30 65  1  0  0  0
M  END
> <s_m_entry_id>
31458

> <s_m_entry_name>
ligand_docking-pose.150

> <s_m_Source_Path>
/home/csk/Desktop/cluster/DUD-E-result/rxra

> <s_m_Source_File>
ligand_docking-pose.sdf

> <i_m_Source_File_Index>
150

> <i_lp_mmshare_version>
53161

> <i_f3d_flags>
0

> <r_lp_tautomer_probability>
1

> <s_lp_Force_Field>
OPLS_2005

> <r_lp_Energy>
39.420306

> <b_lp_Chiralities_Consistent>
1

> <s_lp_Variant>
217752-1

> <s_i_glide_gridfile>
glide-grid_1mv9

> <i_i_glide_lignum>
170

> <i_i_glide_rotatable_bonds>
11

> <r_i_docking_score>
-10.3872736319439

> <r_i_glide_ligand_efficiency>
-0.346242454398129

> <r_i_glide_ligand_efficiency_sa>
-1.07585580802738

> <r_i_glide_ligand_efficiency_ln>
-2.36010174758875

> <r_i_glide_gscore>
-10.3872736319439

> <r_i_glide_lipo>
-5.76272808849934

> <r_i_glide_hbond>
-0.329896492738964

> <r_i_glide_metal>
0

> <r_i_glide_rewards>
-2.55757891032501

> <r_i_glide_evdw>
-38.7821426391602

> <r_i_glide_ecoul>
-4.01306772232056

> <r_i_glide_erotb>
0.803997149925535

> <r_i_glide_esite>
0

> <r_i_glide_emodel>
-49.656644965835

> <r_i_glide_energy>
-42.7952103614807

> <r_i_glide_einternal>
8.75482654571533

> <i_i_glide_confnum>
181

> <i_i_glide_posenum>
118

> <r_i_glide_eff_state_penalty>
0

> <s_user_duplicate_titles>
217752

> <s_m_subgroup_title>
dock_pv

> <s_m_subgroupid>
dock_pv1

> <b_m_subgroup_collapsed>
0

$$$$
217739
                    3D
 Schrodinger Suite 2021-1.
 62 63  0  0  1  0            999 V2000
   62.9780   48.4774   35.7253 C   0  0  0  0  0  0
   62.0282   48.1166   34.5541 C   0  0  0  0  0  0
   60.8526   47.3172   35.1123 C   0  0  0  0  0  0
   62.6942   47.3836   33.3940 C   0  0  0  0  0  0
   62.2322   47.5224   32.0765 C   0  0  0  0  0  0
   62.8533   46.8448   31.0149 C   0  0  0  0  0  0
   63.9453   45.9984   31.3077 C   0  0  0  0  0  0
   64.4315   45.8825   32.6236 C   0  0  0  0  0  0
   63.7857   46.5633   33.6447 C   0  0  0  0  0  0
   65.6409   45.0265   33.0105 C   0  0  0  0  0  0
   65.3199   44.0054   34.1298 C   0  0  0  0  0  0
   66.8081   45.9097   33.4672 C   0  0  0  0  0  0
   64.5002   45.2239   30.3172 O   0  0  0  0  0  0
   63.6448   44.1764   29.8513 C   0  0  0  0  0  0
   64.0082   42.8481   30.5079 C   0  0  0  0  0  0
   65.2080   42.4770   30.1390 F   0  0  0  0  0  0
   64.0080   42.8201   31.8323 F   0  0  0  0  0  0
   62.3465   46.9536   29.6112 C   0  0  0  0  0  0
   61.0790   46.6606   29.2257 C   0  0  0  0  0  0
   60.9476   46.9358   27.7322 C   0  0  0  0  0  0
   62.3547   47.2435   27.2495 C   0  0  0  0  0  0
   63.2003   47.4986   28.4747 C   0  0  0  0  0  0
   60.0120   46.1976   30.0941 C   0  0  0  0  0  0
   58.7338   46.0364   29.7023 C   0  0  0  0  0  0
   57.6317   45.6172   30.5631 C   0  0  0  0  0  0
   56.4285   45.4750   29.9448 C   0  0  0  0  0  0
   55.1529   45.1276   30.5195 C   0  0  0  0  0  0
   54.2972   44.4770   29.9323 O   0  0  0  0  0  0
   54.9370   45.6770   31.7382 O   0  0  0  0  0  0
   57.8808   45.4137   32.0657 C   0  0  0  0  0  0
   63.8313   49.0631   35.3840 H   0  0  0  0  0  0
   62.4587   49.0625   36.4861 H   0  0  0  0  0  0
   63.3585   47.5998   36.2474 H   0  0  0  0  0  0
   61.6562   49.0543   34.1392 H   0  0  0  0  0  0
   60.0932   47.0966   34.3640 H   0  0  0  0  0  0
   61.1756   46.3707   35.5484 H   0  0  0  0  0  0
   60.4080   47.9152   35.9026 H   0  0  0  0  0  0
   61.3891   48.1651   31.8728 H   0  0  0  0  0  0
   64.1562   46.4419   34.6491 H   0  0  0  0  0  0
   65.9708   44.4770   32.1302 H   0  0  0  0  0  0
   64.3355   43.5524   34.0213 H   0  0  0  0  0  0
   66.0540   43.2009   34.1389 H   0  0  0  0  0  0
   65.3360   44.4689   35.1173 H   0  0  0  0  0  0
   67.1138   46.6229   32.7031 H   0  0  0  0  0  0
   66.5373   46.4768   34.3560 H   0  0  0  0  0  0
   67.6593   45.2910   33.7388 H   0  0  0  0  0  0
   62.5844   44.3700   30.0105 H   0  0  0  0  0  0
   63.7658   44.0962   28.7709 H   0  0  0  0  0  0
   63.3123   42.0770   30.1827 H   0  0  0  0  0  0
   60.5041   46.1085   27.1761 H   0  0  0  0  0  0
   60.3070   47.8073   27.5868 H   0  0  0  0  0  0
   62.7595   46.3763   26.7239 H   0  0  0  0  0  0
   62.3795   48.0734   26.5412 H   0  0  0  0  0  0
   63.3111   48.5794   28.5391 H   0  0  0  0  0  0
   64.1932   47.0526   28.3990 H   0  0  0  0  0  0
   60.2829   45.9751   31.1131 H   0  0  0  0  0  0
   58.5096   46.2471   28.6655 H   0  0  0  0  0  0
   56.3535   45.6097   28.8744 H   0  0  0  0  0  0
   55.7012   46.1892   32.0114 H   0  0  0  0  0  0
   58.6582   46.0772   32.4355 H   0  0  0  0  0  0
   57.0536   45.6760   32.7152 H   0  0  0  0  0  0
   58.1973   44.3917   32.2634 H   0  0  0  0  0  0
  1  2  1  0  0  0
  1 31  1  0  0  0
  1 32  1  0  0  0
  1 33  1  0  0  0
  2  3  1  0  0  0
  2  4  1  0  0  0
  2 34  1  0  0  0
  3 35  1  0  0  0
  3 36  1  0  0  0
  3 37  1  0  0  0
  4  9  1  0  0  0
  4  5  2  0  0  0
  5  6  1  0  0  0
  5 38  1  0  0  0
  6  7  2  0  0  0
  6 18  1  0  0  0
  7  8  1  0  0  0
  7 13  1  0  0  0
  8  9  2  0  0  0
  8 10  1  0  0  0
  9 39  1  0  0  0
 10 11  1  0  0  0
 10 12  1  0  0  0
 10 40  1  0  0  0
 11 41  1  0  0  0
 11 42  1  0  0  0
 11 43  1  0  0  0
 12 44  1  0  0  0
 12 45  1  0  0  0
 12 46  1  0  0  0
 13 14  1  0  0  0
 14 15  1  0  0  0
 14 47  1  0  0  0
 14 48  1  0  0  0
 15 16  1  0  0  0
 15 17  1  0  0  0
 15 49  1  0  0  0
 18 22  1  0  0  0
 18 19  2  0  0  0
 19 20  1  0  0  0
 19 23  1  0  0  0
 20 21  1  0  0  0
 20 50  1  0  0  0
 20 51  1  0  0  0
 21 22  1  0  0  0
 21 52  1  0  0  0
 21 53  1  0  0  0
 22 54  1  0  0  0
 22 55  1  0  0  0
 23 24  2  0  0  0
 23 56  1  0  0  0
 24 25  1  0  0  0
 24 57  1  0  0  0
 25 26  2  0  0  0
 25 30  1  0  0  0
 26 27  1  0  0  0
 26 58  1  0  0  0
 27 28  2  0  0  0
 27 29  1  0  0  0
 29 59  1  0  0  0
 30 60  1  0  0  0
 30 61  1  0  0  0
 30 62  1  0  0  0
M  END
> <s_m_entry_id>
31463

> <s_m_entry_name>
ligand_docking-pose.155

> <s_m_Source_Path>
/home/csk/Desktop/cluster/DUD-E-result/rxra

> <s_m_Source_File>
ligand_docking-pose.sdf

> <i_m_Source_File_Index>
155

> <i_lp_mmshare_version>
53161

> <i_f3d_flags>
0

> <r_lp_tautomer_probability>
1

> <s_lp_Force_Field>
OPLS_2005

> <r_lp_Energy>
38.698212

> <b_lp_Chiralities_Consistent>
1

> <s_lp_Variant>
217739-1

> <s_i_glide_gridfile>
glide-grid_1mv9

> <i_i_glide_lignum>
176

> <i_i_glide_rotatable_bonds>
10

> <r_i_docking_score>
-10.3262236739797

> <r_i_glide_ligand_efficiency>
-0.344207455799323

> <r_i_glide_ligand_efficiency_sa>
-1.06953259423877

> <r_i_glide_ligand_efficiency_ln>
-2.34623053194671

> <r_i_glide_gscore>
-10.3262236739797

> <r_i_glide_lipo>
-6.45234571011818

> <r_i_glide_hbond>
-0.106332927086247

> <r_i_glide_metal>
0

> <r_i_glide_rewards>
-1.86348296753368

> <r_i_glide_evdw>
-42.9123268127441

> <r_i_glide_ecoul>
-2.90560507774353

> <r_i_glide_erotb>
0.677395033057155

> <r_i_glide_esite>
0

> <r_i_glide_emodel>
-64.3966608909677

> <r_i_glide_energy>
-45.8179318904877

> <r_i_glide_einternal>
4.96847200393677

> <i_i_glide_confnum>
76

> <i_i_glide_posenum>
42

> <r_i_glide_eff_state_penalty>
0

> <s_user_duplicate_titles>
217739

> <s_m_subgroup_title>
dock_pv

> <s_m_subgroupid>
dock_pv1

> <b_m_subgroup_collapsed>
0

$$$$
258829
                    3D
 Schrodinger Suite 2021-1.
 53 54  0  0  1  0            999 V2000
   61.6546   47.2353   33.7734 C   0  0  0  0  0  0
   62.8482   46.3306   34.0748 C   0  0  0  0  0  0
   63.8052   46.0030   33.1538 C   0  0  0  0  0  0
   65.0511   45.1575   33.5261 C   0  0  0  0  0  0
   65.2670   45.1366   35.0647 C   0  0  0  0  0  0
   63.9877   44.8847   35.8556 C   0  0  0  0  0  0
   62.9469   45.9691   35.5577 C   0  0  0  0  0  0
   64.8071   43.7135   33.0218 C   0  0  0  0  0  0
   66.3222   45.7961   32.9175 C   0  0  0  0  0  0
   63.6619   46.4133   31.7581 C   0  0  0  0  0  0
   62.6673   46.0040   30.9466 C   0  0  0  0  0  0
   62.4391   46.4656   29.5581 C   0  0  0  0  0  0
   63.5419   46.8190   28.7664 C   0  0  0  0  0  0
   63.3715   47.4035   27.5170 C   0  0  0  0  0  0
   62.0890   47.6295   27.0383 C   0  0  0  0  0  0
   60.9816   47.2267   27.7770 C   0  0  0  0  0  0
   61.1327   46.6355   29.0410 C   0  0  0  0  0  0
   59.9300   46.2312   29.8161 C   0  0  0  0  0  0
   58.6797   46.0418   29.3410 C   0  0  0  0  0  0
   57.5069   45.6938   30.1430 C   0  0  0  0  0  0
   56.3117   45.7207   29.4970 C   0  0  0  0  0  0
   55.0063   45.4635   30.0538 C   0  0  0  0  0  0
   54.0057   46.0955   29.7387 O   0  0  0  0  0  0
   54.9808   44.4361   30.9401 O   0  0  0  0  0  0
   57.6491   45.4034   31.6428 C   0  0  0  0  0  0
   61.5964   48.0258   34.5225 H   0  0  0  0  0  0
   61.7041   47.7297   32.8050 H   0  0  0  0  0  0
   60.7289   46.6610   33.8134 H   0  0  0  0  0  0
   66.0084   44.3828   35.3242 H   0  0  0  0  0  0
   65.6858   46.0859   35.4002 H   0  0  0  0  0  0
   64.1949   44.8780   36.9259 H   0  0  0  0  0  0
   63.6078   43.8923   35.6199 H   0  0  0  0  0  0
   63.2060   46.8770   36.1054 H   0  0  0  0  0  0
   61.9716   45.6882   35.9566 H   0  0  0  0  0  0
   65.6075   43.0452   33.3403 H   0  0  0  0  0  0
   63.8731   43.2939   33.3964 H   0  0  0  0  0  0
   64.7688   43.6703   31.9327 H   0  0  0  0  0  0
   67.2082   45.2842   33.2856 H   0  0  0  0  0  0
   66.3437   45.7173   31.8296 H   0  0  0  0  0  0
   66.4204   46.8501   33.1815 H   0  0  0  0  0  0
   64.3903   47.1108   31.3739 H   0  0  0  0  0  0
   61.9729   45.2788   31.3365 H   0  0  0  0  0  0
   64.5493   46.6622   29.1263 H   0  0  0  0  0  0
   64.2316   47.6854   26.9263 H   0  0  0  0  0  0
   61.9494   48.0769   26.0697 H   0  0  0  0  0  0
   60.0045   47.4067   27.3554 H   0  0  0  0  0  0
   60.0871   46.1061   30.8728 H   0  0  0  0  0  0
   58.5284   46.1609   28.2781 H   0  0  0  0  0  0
   56.2627   45.9848   28.4496 H   0  0  0  0  0  0
   55.8575   44.0547   31.0232 H   0  0  0  0  0  0
   58.3705   46.0761   32.1013 H   0  0  0  0  0  0
   56.7432   45.6079   32.2114 H   0  0  0  0  0  0
   58.0082   44.3890   31.8147 H   0  0  0  0  0  0
  1  2  1  0  0  0
  1 26  1  0  0  0
  1 27  1  0  0  0
  1 28  1  0  0  0
  2  7  1  0  0  0
  2  3  2  0  0  0
  3  4  1  0  0  0
  3 10  1  0  0  0
  4  5  1  0  0  0
  4  8  1  0  0  0
  4  9  1  0  0  0
  5  6  1  0  0  0
  5 29  1  0  0  0
  5 30  1  0  0  0
  6  7  1  0  0  0
  6 31  1  0  0  0
  6 32  1  0  0  0
  7 33  1  0  0  0
  7 34  1  0  0  0
  8 35  1  0  0  0
  8 36  1  0  0  0
  8 37  1  0  0  0
  9 38  1  0  0  0
  9 39  1  0  0  0
  9 40  1  0  0  0
 10 11  2  0  0  0
 10 41  1  0  0  0
 11 12  1  0  0  0
 11 42  1  0  0  0
 12 17  1  0  0  0
 12 13  2  0  0  0
 13 14  1  0  0  0
 13 43  1  0  0  0
 14 15  2  0  0  0
 14 44  1  0  0  0
 15 16  1  0  0  0
 15 45  1  0  0  0
 16 17  2  0  0  0
 16 46  1  0  0  0
 17 18  1  0  0  0
 18 19  2  0  0  0
 18 47  1  0  0  0
 19 20  1  0  0  0
 19 48  1  0  0  0
 20 21  2  0  0  0
 20 25  1  0  0  0
 21 22  1  0  0  0
 21 49  1  0  0  0
 22 23  2  0  0  0
 22 24  1  0  0  0
 24 50  1  0  0  0
 25 51  1  0  0  0
 25 52  1  0  0  0
 25 53  1  0  0  0
M  END
> <s_m_entry_id>
31473

> <s_m_entry_name>
ligand_docking-pose.165

> <s_m_Source_Path>
/home/csk/Desktop/cluster/DUD-E-result/rxra

> <s_m_Source_File>
ligand_docking-pose.sdf

> <i_m_Source_File_Index>
165

> <i_lp_mmshare_version>
53161

> <i_f3d_flags>
0

> <r_lp_tautomer_probability>
1

> <s_lp_Force_Field>
OPLS_2005

> <r_lp_Energy>
36.511153

> <b_lp_Chiralities_Consistent>
1

> <s_lp_Variant>
258829-1

> <s_i_glide_gridfile>
glide-grid_1mv9

> <i_i_glide_lignum>
125

> <i_i_glide_rotatable_bonds>
6

> <r_i_docking_score>
-10.2564518795844

> <r_i_glide_ligand_efficiency>
-0.410258075183375

> <r_i_glide_ligand_efficiency_sa>
-1.19960188779413

> <r_i_glide_ligand_efficiency_ln>
-2.43108645652181

> <r_i_glide_gscore>
-10.2564518795844

> <r_i_glide_lipo>
-6.01469609611371

> <r_i_glide_hbond>
-0.146492282721277

> <r_i_glide_metal>
0

> <r_i_glide_rewards>
-2.1797151479944

> <r_i_glide_evdw>
-42.9716339111328

> <r_i_glide_ecoul>
-4.00741291046143

> <r_i_glide_erotb>
0.834145279370873

> <r_i_glide_esite>
0

> <r_i_glide_emodel>
-68.9454512516756

> <r_i_glide_energy>
-46.9790468215942

> <r_i_glide_einternal>
0.791766047477722

> <i_i_glide_confnum>
8

> <i_i_glide_posenum>
32

> <r_i_glide_eff_state_penalty>
0

> <s_user_duplicate_titles>
258829

> <s_m_subgroup_title>
dock_pv

> <s_m_subgroupid>
dock_pv1

> <b_m_subgroup_collapsed>
0

$$$$
217672
                    3D
 Schrodinger Suite 2021-1.
 58 59  0  0  1  0            999 V2000
   61.8531   48.4770   34.9711 C   0  0  0  0  0  0
   61.3045   47.1392   34.4924 C   0  0  0  0  0  0
   61.2039   46.1350   35.6619 C   0  0  0  0  0  0
   62.1170   46.6544   33.3025 C   0  0  0  0  0  0
   61.7851   47.0051   31.9912 C   0  0  0  0  0  0
   62.5051   46.4965   30.8994 C   0  0  0  0  0  0
   63.5577   45.5940   31.1407 C   0  0  0  0  0  0
   63.9560   45.3373   32.4672 C   0  0  0  0  0  0
   63.2478   45.8889   33.5221 C   0  0  0  0  0  0
   65.1440   44.4859   32.8584 C   0  0  0  0  0  0
   66.3959   44.8770   32.0882 C   0  0  0  0  0  0
   64.8235   42.9813   32.9390 C   0  0  0  0  0  0
   64.1878   44.9700   30.0874 O   0  0  0  0  0  0
   63.6607   43.6838   29.7403 C   0  0  0  0  0  0
   62.5004   43.7403   28.7464 C   0  0  0  0  0  0
   61.3684   44.0771   29.3390 F   0  0  0  0  0  0
   62.6927   44.5763   27.7390 F   0  0  0  0  0  0
   62.1333   46.9349   29.5097 C   0  0  0  0  0  0
   63.0778   47.3187   28.5390 C   0  0  0  0  0  0
   62.5270   47.7618   27.3495 C   0  0  0  0  0  0
   60.8080   47.6465   27.3673 S   0  0  0  0  0  0
   60.8367   46.9613   28.9714 C   0  0  0  0  0  0
   59.6386   46.4437   29.6171 C   0  0  0  0  0  0
   58.3837   46.3975   29.1364 C   0  0  0  0  0  0
   57.2253   45.8812   29.8578 C   0  0  0  0  0  0
   56.0289   46.0332   29.2377 C   0  0  0  0  0  0
   54.7283   45.6770   29.7386 C   0  0  0  0  0  0
   53.7384   46.3781   29.5528 O   0  0  0  0  0  0
   54.6906   44.4770   30.3785 O   0  0  0  0  0  0
   57.3913   45.2911   31.2636 C   0  0  0  0  0  0
   61.9025   49.1853   34.1390 H   0  0  0  0  0  0
   61.2080   48.8770   35.7521 H   0  0  0  0  0  0
   62.8578   48.3792   35.3855 H   0  0  0  0  0  0
   60.2822   47.2770   34.1462 H   0  0  0  0  0  0
   60.5276   45.3172   35.4118 H   0  0  0  0  0  0
   62.1497   45.7120   35.9915 H   0  0  0  0  0  0
   60.8080   46.6324   36.5390 H   0  0  0  0  0  0
   60.9585   47.6769   31.8218 H   0  0  0  0  0  0
   63.5782   45.6851   34.5270 H   0  0  0  0  0  0
   65.4009   44.7571   33.8859 H   0  0  0  0  0  0
   66.5199   45.9595   32.0364 H   0  0  0  0  0  0
   67.2080   44.4770   32.6668 H   0  0  0  0  0  0
   66.4344   44.4771   31.0745 H   0  0  0  0  0  0
   63.8660   42.7953   33.4272 H   0  0  0  0  0  0
   64.8080   42.4922   31.9691 H   0  0  0  0  0  0
   65.5884   42.4770   33.5267 H   0  0  0  0  0  0
   64.4554   43.0730   29.3390 H   0  0  0  0  0  0
   63.3370   43.1159   30.6004 H   0  0  0  0  0  0
   62.3328   42.7606   28.3041 H   0  0  0  0  0  0
   64.1431   47.2770   28.7047 H   0  0  0  0  0  0
   63.0436   48.1162   26.4695 H   0  0  0  0  0  0
   59.8280   46.0421   30.5981 H   0  0  0  0  0  0
   58.2344   46.7794   28.1390 H   0  0  0  0  0  0
   55.9746   46.4986   28.2636 H   0  0  0  0  0  0
   55.5599   44.0705   30.3537 H   0  0  0  0  0  0
   58.0578   45.9232   31.8499 H   0  0  0  0  0  0
   56.4774   45.2770   31.8533 H   0  0  0  0  0  0
   57.8583   44.3062   31.2247 H   0  0  0  0  0  0
  1  2  1  0  0  0
  1 31  1  0  0  0
  1 32  1  0  0  0
  1 33  1  0  0  0
  2  3  1  0  0  0
  2  4  1  0  0  0
  2 34  1  0  0  0
  3 35  1  0  0  0
  3 36  1  0  0  0
  3 37  1  0  0  0
  4  9  1  0  0  0
  4  5  2  0  0  0
  5  6  1  0  0  0
  5 38  1  0  0  0
  6  7  2  0  0  0
  6 18  1  0  0  0
  7  8  1  0  0  0
  7 13  1  0  0  0
  8  9  2  0  0  0
  8 10  1  0  0  0
  9 39  1  0  0  0
 10 11  1  0  0  0
 10 12  1  0  0  0
 10 40  1  0  0  0
 11 41  1  0  0  0
 11 42  1  0  0  0
 11 43  1  0  0  0
 12 44  1  0  0  0
 12 45  1  0  0  0
 12 46  1  0  0  0
 13 14  1  0  0  0
 14 15  1  0  0  0
 14 47  1  0  0  0
 14 48  1  0  0  0
 15 16  1  0  0  0
 15 17  1  0  0  0
 15 49  1  0  0  0
 18 22  2  0  0  0
 18 19  1  0  0  0
 19 20  2  0  0  0
 19 50  1  0  0  0
 20 21  1  0  0  0
 20 51  1  0  0  0
 21 22  1  0  0  0
 22 23  1  0  0  0
 23 24  2  0  0  0
 23 52  1  0  0  0
 24 25  1  0  0  0
 24 53  1  0  0  0
 25 26  2  0  0  0
 25 30  1  0  0  0
 26 27  1  0  0  0
 26 54  1  0  0  0
 27 28  2  0  0  0
 27 29  1  0  0  0
 29 55  1  0  0  0
 30 56  1  0  0  0
 30 57  1  0  0  0
 30 58  1  0  0  0
M  END
> <s_m_entry_id>
31484

> <s_m_entry_name>
ligand_docking-pose.176

> <s_m_Source_Path>
/home/csk/Desktop/cluster/DUD-E-result/rxra

> <s_m_Source_File>
ligand_docking-pose.sdf

> <i_m_Source_File_Index>
176

> <i_lp_mmshare_version>
53161

> <i_f3d_flags>
0

> <r_lp_tautomer_probability>
1

> <s_lp_Force_Field>
OPLS_2005

> <r_lp_Energy>
25.861491

> <b_lp_Chiralities_Consistent>
1

> <s_lp_Variant>
217672-1

> <s_i_glide_gridfile>
glide-grid_1mv9

> <i_i_glide_lignum>
180

> <i_i_glide_rotatable_bonds>
10

> <r_i_docking_score>
-10.1452795874348

> <r_i_glide_ligand_efficiency>
-0.338175986247828

> <r_i_glide_ligand_efficiency_sa>
-1.05079141601094

> <r_i_glide_ligand_efficiency_ln>
-2.30511806393999

> <r_i_glide_gscore>
-10.1452795874348

> <r_i_glide_lipo>
-6.22787026439849

> <r_i_glide_hbond>
-0.25431767147385

> <r_i_glide_metal>
0

> <r_i_glide_rewards>
-1.62026922227918

> <r_i_glide_evdw>
-40.7867965698242

> <r_i_glide_ecoul>
-4.24227905273438

> <r_i_glide_erotb>
0.632859257118057

> <r_i_glide_esite>
0

> <r_i_glide_emodel>
-61.0416339725056

> <r_i_glide_energy>
-45.0290756225586

> <r_i_glide_einternal>
2.39858508110046

> <i_i_glide_confnum>
51

> <i_i_glide_posenum>
42

> <r_i_glide_eff_state_penalty>
0

> <s_user_duplicate_titles>
217672

> <s_m_subgroup_title>
dock_pv

> <s_m_subgroupid>
dock_pv1

> <b_m_subgroup_collapsed>
0

$$$$
217626
                    3D
 Schrodinger Suite 2021-1.
 58 59  0  0  1  0            999 V2000
   62.5870   48.2653   35.7800 C   0  0  0  0  0  0
   61.7777   48.1857   34.4720 C   0  0  0  0  0  0
   62.4106   47.4257   33.3082 C   0  0  0  0  0  0
   62.0080   47.6746   31.9907 C   0  0  0  0  0  0
   62.5687   46.9620   30.9246 C   0  0  0  0  0  0
   63.5284   45.9663   31.1929 C   0  0  0  0  0  0
   63.9838   45.7285   32.5156 C   0  0  0  0  0  0
   63.3914   46.4694   33.5449 C   0  0  0  0  0  0
   65.1084   44.7079   32.8641 C   0  0  0  0  0  0
   65.5693   44.7661   34.3537 C   0  0  0  0  0  0
   66.3593   45.0578   32.0350 C   0  0  0  0  0  0
   64.6601   43.2417   32.6224 C   0  0  0  0  0  0
   63.9072   45.1634   30.1425 O   0  0  0  0  0  0
   62.8929   44.2029   29.8496 C   0  0  0  0  0  0
   62.6338   43.8608   28.4158 C   0  0  0  0  0  0
   62.8076   44.8726   27.5625 F   0  0  0  0  0  0
   63.3265   42.7751   28.1390 F   0  0  0  0  0  0
   62.1172   47.2317   29.5111 C   0  0  0  0  0  0
   62.9846   47.6065   28.4629 C   0  0  0  0  0  0
   62.3597   47.8732   27.2644 C   0  0  0  0  0  0
   60.6822   47.5318   27.3434 S   0  0  0  0  0  0
   60.8193   47.0418   29.0122 C   0  0  0  0  0  0
   59.6904   46.4798   29.7400 C   0  0  0  0  0  0
   58.4363   46.2786   29.2872 C   0  0  0  0  0  0
   57.3141   45.7810   30.0759 C   0  0  0  0  0  0
   56.1012   45.8203   29.4643 C   0  0  0  0  0  0
   54.8150   45.4730   30.0159 C   0  0  0  0  0  0
   53.7872   46.0807   29.7383 O   0  0  0  0  0  0
   54.8407   44.4070   30.8560 O   0  0  0  0  0  0
   57.5297   45.3592   31.5319 C   0  0  0  0  0  0
   62.0583   48.8671   36.5209 H   0  0  0  0  0  0
   62.7342   47.2831   36.2239 H   0  0  0  0  0  0
   63.5647   48.7207   35.6227 H   0  0  0  0  0  0
   61.6128   49.2082   34.1368 H   0  0  0  0  0  0
   60.8097   47.7278   34.6811 H   0  0  0  0  0  0
   61.2577   48.4249   31.7897 H   0  0  0  0  0  0
   63.6848   46.2999   34.5640 H   0  0  0  0  0  0
   64.7761   44.4605   35.0397 H   0  0  0  0  0  0
   66.4086   44.0937   34.5439 H   0  0  0  0  0  0
   65.9043   45.7636   34.6437 H   0  0  0  0  0  0
   66.2416   44.8636   30.9695 H   0  0  0  0  0  0
   66.6220   46.1098   32.1451 H   0  0  0  0  0  0
   67.2074   44.4770   32.3801 H   0  0  0  0  0  0
   64.8082   42.9370   31.5900 H   0  0  0  0  0  0
   65.2259   42.5125   33.2112 H   0  0  0  0  0  0
   63.6098   43.0882   32.8758 H   0  0  0  0  0  0
   63.2079   43.2948   30.3562 H   0  0  0  0  0  0
   61.8940   44.5039   30.1537 H   0  0  0  0  0  0
   61.6082   43.5350   28.2840 H   0  0  0  0  0  0
   64.0549   47.6775   28.5392 H   0  0  0  0  0  0
   62.8123   48.1834   26.3340 H   0  0  0  0  0  0
   59.9365   46.2210   30.7575 H   0  0  0  0  0  0
   58.2445   46.5251   28.2530 H   0  0  0  0  0  0
   56.0183   46.1824   28.4485 H   0  0  0  0  0  0
   55.7320   44.0549   30.9054 H   0  0  0  0  0  0
   58.2049   46.0561   32.0267 H   0  0  0  0  0  0
   56.6301   45.4250   32.1403 H   0  0  0  0  0  0
   57.9966   44.3753   31.6028 H   0  0  0  0  0  0
  1  2  1  0  0  0
  1 31  1  0  0  0
  1 32  1  0  0  0
  1 33  1  0  0  0
  2  3  1  0  0  0
  2 34  1  0  0  0
  2 35  1  0  0  0
  3  8  1  0  0  0
  3  4  2  0  0  0
  4  5  1  0  0  0
  4 36  1  0  0  0
  5  6  2  0  0  0
  5 18  1  0  0  0
  6  7  1  0  0  0
  6 13  1  0  0  0
  7  8  2  0  0  0
  7  9  1  0  0  0
  8 37  1  0  0  0
  9 10  1  0  0  0
  9 11  1  0  0  0
  9 12  1  0  0  0
 10 38  1  0  0  0
 10 39  1  0  0  0
 10 40  1  0  0  0
 11 41  1  0  0  0
 11 42  1  0  0  0
 11 43  1  0  0  0
 12 44  1  0  0  0
 12 45  1  0  0  0
 12 46  1  0  0  0
 13 14  1  0  0  0
 14 15  1  0  0  0
 14 47  1  0  0  0
 14 48  1  0  0  0
 15 16  1  0  0  0
 15 17  1  0  0  0
 15 49  1  0  0  0
 18 22  2  0  0  0
 18 19  1  0  0  0
 19 20  2  0  0  0
 19 50  1  0  0  0
 20 21  1  0  0  0
 20 51  1  0  0  0
 21 22  1  0  0  0
 22 23  1  0  0  0
 23 24  2  0  0  0
 23 52  1  0  0  0
 24 25  1  0  0  0
 24 53  1  0  0  0
 25 26  2  0  0  0
 25 30  1  0  0  0
 26 27  1  0  0  0
 26 54  1  0  0  0
 27 28  2  0  0  0
 27 29  1  0  0  0
 29 55  1  0  0  0
 30 56  1  0  0  0
 30 57  1  0  0  0
 30 58  1  0  0  0
M  END
> <s_m_entry_id>
31489

> <s_m_entry_name>
ligand_docking-pose.181

> <s_m_Source_Path>
/home/csk/Desktop/cluster/DUD-E-result/rxra

> <s_m_Source_File>
ligand_docking-pose.sdf

> <i_m_Source_File_Index>
181

> <i_lp_mmshare_version>
53161

> <i_f3d_flags>
0

> <r_lp_tautomer_probability>
1

> <s_lp_Force_Field>
OPLS_2005

> <r_lp_Energy>
31.524719

> <b_lp_Chiralities_Consistent>
1

> <s_lp_Variant>
217626-1

> <s_i_glide_gridfile>
glide-grid_1mv9

> <i_i_glide_lignum>
150

> <i_i_glide_rotatable_bonds>
10

> <r_i_docking_score>
-10.017814273726

> <r_i_glide_ligand_efficiency>
-0.333927142457532

> <r_i_glide_ligand_efficiency_sa>
-1.03758927048798

> <r_i_glide_ligand_efficiency_ln>
-2.27615655581951

> <r_i_glide_gscore>
-10.017814273726

> <r_i_glide_lipo>
-6.33329446707843

> <r_i_glide_hbond>
-0.185948322259679

> <r_i_glide_metal>
0

> <r_i_glide_rewards>
-1.65098754997759

> <r_i_glide_evdw>
-38.3115653991699

> <r_i_glide_ecoul>
-3.76576614379883

> <r_i_glide_erotb>
0.632859257118057

> <r_i_glide_esite>
0

> <r_i_glide_emodel>
-50.5439434227241

> <r_i_glide_energy>
-42.0773315429688

> <r_i_glide_einternal>
7.24566888809204

> <i_i_glide_confnum>
8

> <i_i_glide_posenum>
332

> <r_i_glide_eff_state_penalty>
0

> <s_user_duplicate_titles>
217626

> <s_m_subgroup_title>
dock_pv

> <s_m_subgroupid>
dock_pv1

> <b_m_subgroup_collapsed>
0

$$$$
217621
                    3D
 Schrodinger Suite 2021-1.
 65 66  0  0  1  0            999 V2000
   62.5341   44.9137   27.3714 C   0  0  0  0  0  0
   62.8118   43.6891   28.2687 C   0  0  0  0  0  0
   62.8497   44.0671   29.7382 C   0  0  0  0  0  0
   63.7761   45.1066   30.0217 O   0  0  0  0  0  0
   63.3946   45.8350   31.1205 C   0  0  0  0  0  0
   62.4686   46.8779   30.9608 C   0  0  0  0  0  0
   62.0439   47.5938   32.0840 C   0  0  0  0  0  0
   62.5293   47.2764   33.3553 C   0  0  0  0  0  0
   63.4087   46.2095   33.5038 C   0  0  0  0  0  0
   63.8509   45.4840   32.4019 C   0  0  0  0  0  0
   64.8192   44.3292   32.6351 C   0  0  0  0  0  0
   64.4011   43.3814   33.7843 C   0  0  0  0  0  0
   66.2284   44.8720   32.8864 C   0  0  0  0  0  0
   62.1458   48.0954   34.5771 C   0  0  0  0  0  0
   63.3909   48.6183   35.3180 C   0  0  0  0  0  0
   61.2073   47.3100   35.5014 C   0  0  0  0  0  0
   61.9825   47.2788   29.6241 C   0  0  0  0  0  0
   60.7199   47.1334   29.1672 C   0  0  0  0  0  0
   60.6215   47.8086   27.8033 C   0  0  0  0  0  0
   62.0168   48.3176   27.4828 C   0  0  0  0  0  0
   62.8905   47.9956   28.6679 C   0  0  0  0  0  0
   59.6419   46.4715   29.8713 C   0  0  0  0  0  0
   58.3937   46.3495   29.3853 C   0  0  0  0  0  0
   57.2647   45.7854   30.1136 C   0  0  0  0  0  0
   56.0639   45.8474   29.4841 C   0  0  0  0  0  0
   54.7756   45.4608   29.9977 C   0  0  0  0  0  0
   53.7477   46.0770   29.7390 O   0  0  0  0  0  0
   54.7934   44.3530   30.7816 O   0  0  0  0  0  0
   57.4637   45.2770   31.5439 C   0  0  0  0  0  0
   62.7394   44.8770   26.3090 H   0  0  0  0  0  0
   61.5079   45.2482   27.4870 H   0  0  0  0  0  0
   63.2080   45.6946   27.6688 H   0  0  0  0  0  0
   63.7816   43.2210   28.1390 H   0  0  0  0  0  0
   62.0681   42.9117   28.0918 H   0  0  0  0  0  0
   63.2080   43.1975   30.2986 H   0  0  0  0  0  0
   61.8337   44.3671   30.0104 H   0  0  0  0  0  0
   61.3664   48.4248   31.9562 H   0  0  0  0  0  0
   63.7721   45.9543   34.4875 H   0  0  0  0  0  0
   64.8485   43.7087   31.7408 H   0  0  0  0  0  0
   63.3596   43.0691   33.7385 H   0  0  0  0  0  0
   65.0013   42.4753   33.7390 H   0  0  0  0  0  0
   64.5631   43.8266   34.7664 H   0  0  0  0  0  0
   66.7095   45.1959   31.9630 H   0  0  0  0  0  0
   66.2372   45.7062   33.5891 H   0  0  0  0  0  0
   66.8112   44.0776   33.3349 H   0  0  0  0  0  0
   61.6084   48.9694   34.2175 H   0  0  0  0  0  0
   64.0080   49.1955   34.6328 H   0  0  0  0  0  0
   63.1264   49.2769   36.1393 H   0  0  0  0  0  0
   64.0025   47.8194   35.7371 H   0  0  0  0  0  0
   60.3445   46.9482   34.9403 H   0  0  0  0  0  0
   61.7016   46.4424   35.9400 H   0  0  0  0  0  0
   60.8407   47.9348   36.3170 H   0  0  0  0  0  0
   60.2526   47.1336   27.0305 H   0  0  0  0  0  0
   59.9397   48.6521   27.8697 H   0  0  0  0  0  0
   62.4069   47.8661   26.5703 H   0  0  0  0  0  0
   62.0072   49.3978   27.3390 H   0  0  0  0  0  0
   63.2079   48.8770   29.1611 H   0  0  0  0  0  0
   63.8080   47.4693   28.4132 H   0  0  0  0  0  0
   59.8722   46.0768   30.8494 H   0  0  0  0  0  0
   58.2162   46.7238   28.3877 H   0  0  0  0  0  0
   55.9932   46.2665   28.4898 H   0  0  0  0  0  0
   55.6841   43.9984   30.8235 H   0  0  0  0  0  0
   58.1088   45.9622   32.0936 H   0  0  0  0  0  0
   56.5556   45.2773   32.1390 H   0  0  0  0  0  0
   57.9617   44.3063   31.5545 H   0  0  0  0  0  0
  1  2  1  0  0  0
  1 30  1  0  0  0
  1 31  1  0  0  0
  1 32  1  0  0  0
  2  3  1  0  0  0
  2 33  1  0  0  0
  2 34  1  0  0  0
  3  4  1  0  0  0
  3 35  1  0  0  0
  3 36  1  0  0  0
  4  5  1  0  0  0
  5 10  1  0  0  0
  5  6  2  0  0  0
  6  7  1  0  0  0
  6 17  1  0  0  0
  7  8  2  0  0  0
  7 37  1  0  0  0
  8  9  1  0  0  0
  8 14  1  0  0  0
  9 10  2  0  0  0
  9 38  1  0  0  0
 10 11  1  0  0  0
 11 12  1  0  0  0
 11 13  1  0  0  0
 11 39  1  0  0  0
 12 40  1  0  0  0
 12 41  1  0  0  0
 12 42  1  0  0  0
 13 43  1  0  0  0
 13 44  1  0  0  0
 13 45  1  0  0  0
 14 15  1  0  0  0
 14 16  1  0  0  0
 14 46  1  0  0  0
 15 47  1  0  0  0
 15 48  1  0  0  0
 15 49  1  0  0  0
 16 50  1  0  0  0
 16 51  1  0  0  0
 16 52  1  0  0  0
 17 21  1  0  0  0
 17 18  2  0  0  0
 18 19  1  0  0  0
 18 22  1  0  0  0
 19 20  1  0  0  0
 19 53  1  0  0  0
 19 54  1  0  0  0
 20 21  1  0  0  0
 20 55  1  0  0  0
 20 56  1  0  0  0
 21 57  1  0  0  0
 21 58  1  0  0  0
 22 23  2  0  0  0
 22 59  1  0  0  0
 23 24  1  0  0  0
 23 60  1  0  0  0
 24 25  2  0  0  0
 24 29  1  0  0  0
 25 26  1  0  0  0
 25 61  1  0  0  0
 26 27  2  0  0  0
 26 28  1  0  0  0
 28 62  1  0  0  0
 29 63  1  0  0  0
 29 64  1  0  0  0
 29 65  1  0  0  0
M  END
> <s_m_entry_id>
31501

> <s_m_entry_name>
ligand_docking-pose.193

> <s_m_Source_Path>
/home/csk/Desktop/cluster/DUD-E-result/rxra

> <s_m_Source_File>
ligand_docking-pose.sdf

> <i_m_Source_File_Index>
193

> <i_lp_mmshare_version>
53161

> <i_f3d_flags>
0

> <r_lp_tautomer_probability>
1

> <s_lp_Force_Field>
OPLS_2005

> <r_lp_Energy>
39.407004

> <b_lp_Chiralities_Consistent>
1

> <s_lp_Variant>
217621-1

> <s_i_glide_gridfile>
glide-grid_1mv9

> <i_i_glide_lignum>
285

> <i_i_glide_rotatable_bonds>
10

> <r_i_docking_score>
-9.79785477000847

> <r_i_glide_ligand_efficiency>
-0.337857061034775

> <r_i_glide_ligand_efficiency_sa>
-1.03800393212882

> <r_i_glide_ligand_efficiency_ln>
-2.24346029017201

> <r_i_glide_gscore>
-9.79785477000847

> <r_i_glide_lipo>
-6.23725790359586

> <r_i_glide_hbond>
-0.194288756615285

> <r_i_glide_metal>
0

> <r_i_glide_rewards>
-1.72423922520956

> <r_i_glide_evdw>
-36.6337585449219

> <r_i_glide_ecoul>
-3.71256804466248

> <r_i_glide_erotb>
0.7465042493577

> <r_i_glide_esite>
0

> <r_i_glide_emodel>
-49.9023346066817

> <r_i_glide_energy>
-40.3463265895844

> <r_i_glide_einternal>
2.82195806503296

> <i_i_glide_confnum>
48

> <i_i_glide_posenum>
9

> <r_i_glide_eff_state_penalty>
0

> <s_user_duplicate_titles>
217621

> <s_m_subgroup_title>
dock_pv

> <s_m_subgroupid>
dock_pv1

> <b_m_subgroup_collapsed>
0

$$$$
550857
                    3D
 Schrodinger Suite 2021-1.
 45 47  0  0  1  0            999 V2000
   61.5183   47.6624   36.0586 C   0  0  0  0  0  0
   63.0443   47.8272   35.9553 C   0  0  0  0  0  0
   63.6771   47.0957   34.7791 C   0  0  0  0  0  0
   64.8045   46.2862   34.9603 C   0  0  0  0  0  0
   65.4614   45.7546   33.8501 C   0  0  0  0  0  0
   64.9610   46.0341   32.5746 C   0  0  0  0  0  0
   63.8276   46.7606   32.3851 N   0  0  0  0  0  0
   63.2055   47.2764   33.4749 C   0  0  0  0  0  0
   65.7655   45.6389   31.3394 C   0  0  0  0  0  0
   64.9941   45.2254   30.0713 C   0  0  0  0  0  0
   64.2875   46.3191   29.4692 O   0  0  0  0  0  0
   62.9100   46.3113   29.3396 C   0  0  0  0  0  0
   62.0740   45.3152   29.8518 C   0  0  0  0  0  0
   60.6960   45.3941   29.7082 C   0  0  0  0  0  0
   60.1151   46.4770   29.0472 C   0  0  0  0  0  0
   60.9449   47.4781   28.5309 C   0  0  0  0  0  0
   62.3295   47.3927   28.6757 C   0  0  0  0  0  0
   58.6015   46.6111   28.8481 C   0  0  0  0  0  0
   57.6529   45.4491   29.2765 C   0  0  1  0  0  0
   57.4261   45.3150   30.7851 C   0  0  0  0  0  0
   58.3033   45.2770   31.6392 O   0  0  0  0  0  0
   56.1258   45.2539   31.0602 N   0  0  0  0  0  0
   55.2073   45.3535   30.1055 C   0  0  0  0  0  0
   53.9956   45.2776   30.2566 O   0  0  0  0  0  0
   56.0154   45.6771   28.5389 S   0  0  0  0  0  0
   61.1322   48.1788   36.9380 H   0  0  0  0  0  0
   61.2352   46.6120   36.1386 H   0  0  0  0  0  0
   61.0053   48.0777   35.1915 H   0  0  0  0  0  0
   63.2896   48.8852   35.8593 H   0  0  0  0  0  0
   63.5195   47.5034   36.8818 H   0  0  0  0  0  0
   65.2045   46.1080   35.9482 H   0  0  0  0  0  0
   66.3671   45.1803   33.9820 H   0  0  0  0  0  0
   62.3466   47.8975   33.2696 H   0  0  0  0  0  0
   66.4080   46.4765   31.0949 H   0  0  0  0  0  0
   66.4443   44.8335   31.6098 H   0  0  0  0  0  0
   65.7479   44.9440   29.3391 H   0  0  0  0  0  0
   64.4455   44.3023   30.2339 H   0  0  0  0  0  0
   62.4598   44.4771   30.3961 H   0  0  0  0  0  0
   60.0998   44.5903   30.1082 H   0  0  0  0  0  0
   60.5203   48.3264   28.0133 H   0  0  0  0  0  0
   62.9591   48.1739   28.2768 H   0  0  0  0  0  0
   58.2840   47.5406   29.3229 H   0  0  0  0  0  0
   58.4725   46.7612   27.7756 H   0  0  0  0  0  0
   58.0109   44.4798   28.9388 H   0  0  0  0  0  0
   55.8417   45.1268   32.0183 H   0  0  0  0  0  0
  1  2  1  0  0  0
  1 26  1  0  0  0
  1 27  1  0  0  0
  1 28  1  0  0  0
  2  3  1  0  0  0
  2 29  1  0  0  0
  2 30  1  0  0  0
  3  8  1  0  0  0
  3  4  2  0  0  0
  4  5  1  0  0  0
  4 31  1  0  0  0
  5  6  2  0  0  0
  5 32  1  0  0  0
  6  7  1  0  0  0
  6  9  1  0  0  0
  7  8  2  0  0  0
  8 33  1  0  0  0
  9 10  1  0  0  0
  9 34  1  0  0  0
  9 35  1  0  0  0
 10 11  1  0  0  0
 10 36  1  0  0  0
 10 37  1  0  0  0
 11 12  1  0  0  0
 12 17  1  0  0  0
 12 13  2  0  0  0
 13 14  1  0  0  0
 13 38  1  0  0  0
 14 15  2  0  0  0
 14 39  1  0  0  0
 15 16  1  0  0  0
 15 18  1  0  0  0
 16 17  2  0  0  0
 16 40  1  0  0  0
 17 41  1  0  0  0
 18 19  1  0  0  0
 18 42  1  0  0  0
 18 43  1  0  0  0
 19 25  1  0  0  0
 19 20  1  0  0  0
 19 44  1  0  0  0
 20 21  2  0  0  0
 20 22  1  0  0  0
 22 23  1  0  0  0
 22 45  1  0  0  0
 23 24  2  0  0  0
 23 25  1  0  0  0
M  END
> <s_m_entry_id>
31503

> <s_m_entry_name>
ligand_docking-pose.195

> <s_m_Source_Path>
/home/csk/Desktop/cluster/DUD-E-result/rxra

> <s_m_Source_File>
ligand_docking-pose.sdf

> <i_m_Source_File_Index>
195

> <i_lp_mmshare_version>
53161

> <i_f3d_flags>
0

> <r_lp_tautomer_probability>
0.999986600176988

> <s_lp_Force_Field>
OPLS_2005

> <r_lp_Energy>
14.666737

> <b_lp_Chiralities_Consistent>
1

> <s_lp_Variant>
550857-2

> <s_i_glide_gridfile>
glide-grid_1mv9

> <i_i_glide_lignum>
157

> <i_i_glide_rotatable_bonds>
7

> <r_i_docking_score>
-9.79140193805294

> <r_i_glide_ligand_efficiency>
-0.391656077522117

> <r_i_glide_ligand_efficiency_sa>
-1.14520931672478

> <r_i_glide_ligand_efficiency_ln>
-2.32085568395671

> <r_i_glide_gscore>
-9.79140193805294

> <r_i_glide_lipo>
-5.32536437735919

> <r_i_glide_hbond>
-0.195025635422032

> <r_i_glide_metal>
0

> <r_i_glide_rewards>
-2.38519961660659

> <r_i_glide_evdw>
-49.6034545898438

> <r_i_glide_ecoul>
-2.06120371818542

> <r_i_glide_erotb>
0.903540978554875

> <r_i_glide_esite>
0

> <r_i_glide_emodel>
-78.7711954849654

> <r_i_glide_energy>
-51.6646583080292

> <r_i_glide_einternal>
7.83213233947754

> <i_i_glide_confnum>
8

> <i_i_glide_posenum>
83

> <r_i_glide_eff_state_penalty>
0

> <s_user_duplicate_titles>
550857

> <s_m_subgroup_title>
dock_pv

> <s_m_subgroupid>
dock_pv1

> <b_m_subgroup_collapsed>
0

$$$$
141894
                    3D
 Schrodinger Suite 2021-1.
 52 53  0  0  1  0            999 V2000
   65.9666   44.6863   30.5858 C   0  0  0  0  0  0
   64.5097   44.1768   30.5058 C   0  0  0  0  0  0
   64.0077   44.1918   29.0541 C   0  0  0  0  0  0
   62.6257   44.8049   29.0065 C   0  0  0  0  0  0
   62.5545   45.5819   30.2944 C   0  0  0  0  0  0
   63.5744   45.1810   31.1608 C   0  0  0  0  0  0
   63.6095   45.6766   32.4610 C   0  0  0  0  0  0
   62.6119   46.5350   32.9375 C   0  0  0  0  0  0
   61.6074   46.9398   32.0347 C   0  0  0  0  0  0
   61.5696   46.4758   30.7129 C   0  0  0  0  0  0
   60.5475   46.9196   29.7294 C   0  0  0  0  0  0
   60.9364   47.7719   28.7602 C   0  0  0  0  0  0
   59.1573   46.4684   29.7391 C   0  0  0  0  0  0
   58.5971   45.6713   30.6720 C   0  0  0  0  0  0
   57.2141   45.2175   30.7005 C   0  0  0  0  0  0
   56.1965   45.7813   30.0161 C   0  0  0  0  0  0
   54.8262   45.3674   30.1675 C   0  0  0  0  0  0
   54.4151   44.4969   30.9368 O   0  0  0  0  0  0
   54.0085   46.1335   29.3968 O   0  0  0  0  0  0
   62.5944   46.9990   34.4174 C   0  0  0  0  0  0
   62.9021   48.5036   34.4818 C   0  0  0  0  0  0
   63.6418   46.2797   35.3125 C   0  0  0  0  0  0
   61.2052   46.7335   35.0452 C   0  0  0  0  0  0
   64.4038   42.7566   31.1050 C   0  0  0  0  0  0
   66.6727   44.0550   30.0507 H   0  0  0  0  0  0
   66.0207   45.6772   30.1437 H   0  0  0  0  0  0
   66.3123   44.7791   31.6166 H   0  0  0  0  0  0
   64.0077   43.2246   28.5451 H   0  0  0  0  0  0
   64.6424   44.8831   28.5127 H   0  0  0  0  0  0
   61.8639   44.0232   28.9901 H   0  0  0  0  0  0
   62.4908   45.4119   28.1110 H   0  0  0  0  0  0
   64.4051   45.3356   33.1042 H   0  0  0  0  0  0
   60.8467   47.6314   32.3554 H   0  0  0  0  0  0
   61.9554   48.1292   28.7040 H   0  0  0  0  0  0
   60.2513   48.1339   28.0059 H   0  0  0  0  0  0
   58.5321   46.7993   28.9204 H   0  0  0  0  0  0
   59.2081   45.3518   31.4960 H   0  0  0  0  0  0
   57.0059   44.3716   31.3389 H   0  0  0  0  0  0
   56.3752   46.6036   29.3391 H   0  0  0  0  0  0
   54.5174   46.7302   28.8447 H   0  0  0  0  0  0
   62.2200   49.0890   33.8645 H   0  0  0  0  0  0
   62.8329   48.8737   35.5048 H   0  0  0  0  0  0
   63.9138   48.7172   34.1390 H   0  0  0  0  0  0
   63.4952   45.1991   35.3218 H   0  0  0  0  0  0
   64.6640   46.4767   34.9855 H   0  0  0  0  0  0
   63.5920   46.6177   36.3486 H   0  0  0  0  0  0
   60.9418   45.6775   35.0042 H   0  0  0  0  0  0
   61.1773   47.0325   36.0946 H   0  0  0  0  0  0
   60.4079   47.2771   34.5419 H   0  0  0  0  0  0
   65.1295   42.0839   30.6418 H   0  0  0  0  0  0
   64.5878   42.7514   32.1809 H   0  0  0  0  0  0
   63.4327   42.2962   30.9323 H   0  0  0  0  0  0
  1  2  1  0  0  0
  1 25  1  0  0  0
  1 26  1  0  0  0
  1 27  1  0  0  0
  2  6  1  0  0  0
  2  3  1  0  0  0
  2 24  1  0  0  0
  3  4  1  0  0  0
  3 28  1  0  0  0
  3 29  1  0  0  0
  4  5  1  0  0  0
  4 30  1  0  0  0
  4 31  1  0  0  0
  5 10  2  0  0  0
  5  6  1  0  0  0
  6  7  2  0  0  0
  7  8  1  0  0  0
  7 32  1  0  0  0
  8  9  2  0  0  0
  8 20  1  0  0  0
  9 10  1  0  0  0
  9 33  1  0  0  0
 10 11  1  0  0  0
 11 12  2  0  0  0
 11 13  1  0  0  0
 12 34  1  0  0  0
 12 35  1  0  0  0
 13 14  2  0  0  0
 13 36  1  0  0  0
 14 15  1  0  0  0
 14 37  1  0  0  0
 15 16  2  0  0  0
 15 38  1  0  0  0
 16 17  1  0  0  0
 16 39  1  0  0  0
 17 18  2  0  0  0
 17 19  1  0  0  0
 19 40  1  0  0  0
 20 21  1  0  0  0
 20 22  1  0  0  0
 20 23  1  0  0  0
 21 41  1  0  0  0
 21 42  1  0  0  0
 21 43  1  0  0  0
 22 44  1  0  0  0
 22 45  1  0  0  0
 22 46  1  0  0  0
 23 47  1  0  0  0
 23 48  1  0  0  0
 23 49  1  0  0  0
 24 50  1  0  0  0
 24 51  1  0  0  0
 24 52  1  0  0  0
M  END
> <s_m_entry_id>
31507

> <s_m_entry_name>
ligand_docking-pose.199

> <s_m_Source_Path>
/home/csk/Desktop/cluster/DUD-E-result/rxra

> <s_m_Source_File>
ligand_docking-pose.sdf

> <i_m_Source_File_Index>
199

> <i_lp_mmshare_version>
53161

> <i_f3d_flags>
0

> <r_lp_tautomer_probability>
1

> <s_lp_Force_Field>
OPLS_2005

> <r_lp_Energy>
32.788726

> <b_lp_Chiralities_Consistent>
1

> <s_lp_Variant>
141894-1

> <s_i_glide_gridfile>
glide-grid_1mv9

> <i_i_glide_lignum>
74

> <i_i_glide_rotatable_bonds>
6

> <r_i_docking_score>
-9.7338331357398

> <r_i_glide_ligand_efficiency>
-0.405576380655825

> <r_i_glide_ligand_efficiency_sa>
-1.16988472021608

> <r_i_glide_ligand_efficiency_ln>
-2.32975292588061

> <r_i_glide_gscore>
-9.7338331357398

> <r_i_glide_lipo>
-5.19825511074458

> <r_i_glide_hbond>
-0.32

> <r_i_glide_metal>
0

> <r_i_glide_rewards>
-2.53071570277292

> <r_i_glide_evdw>
-35.6043739318848

> <r_i_glide_ecoul>
-4.10829544067383

> <r_i_glide_erotb>
0.711600690473009

> <r_i_glide_esite>
0

> <r_i_glide_emodel>
-54.7671269532369

> <r_i_glide_energy>
-39.7126693725586

> <r_i_glide_einternal>
8.67034721374512

> <i_i_glide_confnum>
4

> <i_i_glide_posenum>
381

> <r_i_glide_eff_state_penalty>
0

> <s_user_duplicate_titles>
141894

> <s_m_subgroup_title>
dock_pv

> <s_m_subgroupid>
dock_pv1

> <b_m_subgroup_collapsed>
0

$$$$
217781
                    3D
 Schrodinger Suite 2021-1.
 60 61  0  0  1  0            999 V2000
   62.7190   48.3454   35.2545 C   0  0  0  0  0  0
   61.8417   47.2732   34.5836 C   0  0  0  0  0  0
   61.3668   46.2200   35.6012 C   0  0  0  0  0  0
   62.5241   46.7019   33.3442 C   0  0  0  0  0  0
   62.1937   47.1367   32.0531 C   0  0  0  0  0  0
   62.7516   46.5369   30.9116 C   0  0  0  0  0  0
   63.6821   45.4895   31.0955 C   0  0  0  0  0  0
   64.0393   45.0742   32.3938 C   0  0  0  0  0  0
   63.4773   45.7082   33.4979 C   0  0  0  0  0  0
   64.8642   43.8297   32.6568 C   0  0  0  0  0  0
   64.0137   42.6830   33.2150 C   0  0  0  0  0  0
   66.0514   44.0916   33.5913 C   0  0  0  0  0  0
   64.2530   44.8657   30.0041 O   0  0  0  0  0  0
   63.6181   43.6675   29.5514 C   0  0  0  0  0  0
   62.4249   43.9428   28.6309 C   0  0  0  0  0  0
   62.0407   42.8774   27.9852 F   0  0  0  0  0  0
   61.3800   44.3234   29.3392 F   0  0  0  0  0  0
   62.6565   44.8352   27.6830 F   0  0  0  0  0  0
   62.3510   46.9987   29.5358 C   0  0  0  0  0  0
   63.3586   47.2766   28.5974 C   0  0  0  0  0  0
   63.1493   47.7003   27.3340 N   0  0  0  0  0  0
   61.8677   47.8188   26.9394 C   0  0  0  0  0  0
   60.7866   47.5271   27.7581 C   0  0  0  0  0  0
   61.0109   47.0703   29.0677 C   0  0  0  0  0  0
   59.8636   46.5428   29.8560 C   0  0  0  0  0  0
   58.6062   46.3376   29.4026 C   0  0  0  0  0  0
   57.4570   45.8775   30.1770 C   0  0  0  0  0  0
   56.2630   45.9636   29.5343 C   0  0  0  0  0  0
   54.9499   45.6645   30.0445 C   0  0  0  0  0  0
   53.9553   46.2772   29.6849 O   0  0  0  0  0  0
   54.9129   44.6299   30.9299 O   0  0  0  0  0  0
   57.6041   45.4419   31.6391 C   0  0  0  0  0  0
   63.0656   49.0861   34.5329 H   0  0  0  0  0  0
   62.1785   48.8650   36.0466 H   0  0  0  0  0  0
   63.6080   47.9017   35.7046 H   0  0  0  0  0  0
   60.9053   47.6771   34.2297 H   0  0  0  0  0  0
   60.6890   45.5116   35.1277 H   0  0  0  0  0  0
   62.1911   45.6731   36.0571 H   0  0  0  0  0  0
   60.8097   46.6913   36.4091 H   0  0  0  0  0  0
   61.4771   47.9359   31.9309 H   0  0  0  0  0  0
   63.7233   45.3660   34.4915 H   0  0  0  0  0  0
   65.2081   43.4792   31.6916 H   0  0  0  0  0  0
   63.2376   42.4062   32.5189 H   0  0  0  0  0  0
   64.5993   41.7867   33.3544 H   0  0  0  0  0  0
   63.5788   42.9279   34.1816 H   0  0  0  0  0  0
   66.8542   44.6160   33.0822 H   0  0  0  0  0  0
   65.7919   44.6548   34.4805 H   0  0  0  0  0  0
   66.4105   43.1373   33.9506 H   0  0  0  0  0  0
   64.3586   43.0656   29.0375 H   0  0  0  0  0  0
   63.3089   43.0264   30.3713 H   0  0  0  0  0  0
   64.3971   47.1310   28.8508 H   0  0  0  0  0  0
   61.7096   48.0772   25.9077 H   0  0  0  0  0  0
   59.7997   47.6113   27.3342 H   0  0  0  0  0  0
   60.0771   46.3080   30.8834 H   0  0  0  0  0  0
   58.4120   46.5396   28.3616 H   0  0  0  0  0  0
   56.2162   46.3297   28.5182 H   0  0  0  0  0  0
   55.7970   44.2777   31.0592 H   0  0  0  0  0  0
   58.4494   45.9141   32.1381 H   0  0  0  0  0  0
   56.7532   45.7723   32.2366 H   0  0  0  0  0  0
   57.6912   44.3601   31.7279 H   0  0  0  0  0  0
  1  2  1  0  0  0
  1 33  1  0  0  0
  1 34  1  0  0  0
  1 35  1  0  0  0
  2  3  1  0  0  0
  2  4  1  0  0  0
  2 36  1  0  0  0
  3 37  1  0  0  0
  3 38  1  0  0  0
  3 39  1  0  0  0
  4  9  1  0  0  0
  4  5  2  0  0  0
  5  6  1  0  0  0
  5 40  1  0  0  0
  6  7  2  0  0  0
  6 19  1  0  0  0
  7  8  1  0  0  0
  7 13  1  0  0  0
  8  9  2  0  0  0
  8 10  1  0  0  0
  9 41  1  0  0  0
 10 11  1  0  0  0
 10 12  1  0  0  0
 10 42  1  0  0  0
 11 43  1  0  0  0
 11 44  1  0  0  0
 11 45  1  0  0  0
 12 46  1  0  0  0
 12 47  1  0  0  0
 12 48  1  0  0  0
 13 14  1  0  0  0
 14 15  1  0  0  0
 14 49  1  0  0  0
 14 50  1  0  0  0
 15 16  1  0  0  0
 15 17  1  0  0  0
 15 18  1  0  0  0
 19 24  1  0  0  0
 19 20  2  0  0  0
 20 21  1  0  0  0
 20 51  1  0  0  0
 21 22  2  0  0  0
 22 23  1  0  0  0
 22 52  1  0  0  0
 23 24  2  0  0  0
 23 53  1  0  0  0
 24 25  1  0  0  0
 25 26  2  0  0  0
 25 54  1  0  0  0
 26 27  1  0  0  0
 26 55  1  0  0  0
 27 28  2  0  0  0
 27 32  1  0  0  0
 28 29  1  0  0  0
 28 56  1  0  0  0
 29 30  2  0  0  0
 29 31  1  0  0  0
 31 57  1  0  0  0
 32 58  1  0  0  0
 32 59  1  0  0  0
 32 60  1  0  0  0
M  END
> <s_m_entry_id>
31508

> <s_m_entry_name>
ligand_docking-pose.200

> <s_m_Source_Path>
/home/csk/Desktop/cluster/DUD-E-result/rxra

> <s_m_Source_File>
ligand_docking-pose.sdf

> <i_m_Source_File_Index>
200

> <i_lp_mmshare_version>
53161

> <i_f3d_flags>
0

> <r_lp_tautomer_probability>
1

> <s_lp_Force_Field>
OPLS_2005

> <r_lp_Energy>
25.87903

> <b_lp_Chiralities_Consistent>
1

> <s_lp_Variant>
217781-1

> <s_i_glide_gridfile>
glide-grid_1mv9

> <i_i_glide_lignum>
184

> <i_i_glide_rotatable_bonds>
10

> <r_i_docking_score>
-9.71334924524513

> <r_i_glide_ligand_efficiency>
-0.30354216391391

> <r_i_glide_ligand_efficiency_sa>
-0.963686299513996

> <r_i_glide_ligand_efficiency_ln>
-2.17508367191071

> <r_i_glide_gscore>
-9.71334924524513

> <r_i_glide_lipo>
-6.23230905406368

> <r_i_glide_hbond>
-0.171648702668398

> <r_i_glide_metal>
0

> <r_i_glide_rewards>
-1.55625478948818

> <r_i_glide_evdw>
-35.742374420166

> <r_i_glide_ecoul>
-3.77351474761963

> <r_i_glide_erotb>
0.600009234126378

> <r_i_glide_esite>
0

> <r_i_glide_emodel>
-48.8206014296708

> <r_i_glide_energy>
-39.5158891677856

> <r_i_glide_einternal>
2.26974248886108

> <i_i_glide_confnum>
55

> <i_i_glide_posenum>
60

> <r_i_glide_eff_state_penalty>
0

> <s_user_duplicate_titles>
217781

> <s_m_subgroup_title>
dock_pv

> <s_m_subgroupid>
dock_pv1

> <b_m_subgroup_collapsed>
0

$$$$
258791
                    3D
 Schrodinger Suite 2021-1.
 50 51  0  0  1  0            999 V2000
   62.3511   48.0186   33.7117 C   0  0  0  0  0  0
   63.3336   46.8979   34.0363 C   0  0  0  0  0  0
   64.0450   46.2070   33.0911 C   0  0  0  0  0  0
   65.1048   45.1356   33.4752 C   0  0  0  0  0  0
   65.4734   45.2217   34.9822 C   0  0  0  0  0  0
   64.2721   45.4396   35.9004 C   0  0  0  0  0  0
   63.5687   46.7497   35.5398 C   0  0  0  0  0  0
   64.5075   43.7368   33.1781 C   0  0  0  0  0  0
   66.4083   45.3901   32.6874 C   0  0  0  0  0  0
   63.7788   46.3849   31.6612 C   0  0  0  0  0  0
   62.5653   46.2696   31.0940 C   0  0  0  0  0  0
   62.2300   46.4536   29.6953 C   0  0  0  0  0  0
   61.0160   46.3443   29.0106 C   0  0  0  0  0  0
   61.3142   46.6749   27.6813 C   0  0  0  0  0  0
   62.6611   46.9647   27.6109 C   0  0  0  0  0  0
   63.2158   46.8306   28.8361 O   0  0  0  0  0  0
   59.7332   45.9733   29.5791 C   0  0  0  0  0  0
   58.5336   45.9758   28.9685 C   0  0  0  0  0  0
   57.2736   45.6238   29.6159 C   0  0  0  0  0  0
   56.1436   46.0069   28.9725 C   0  0  0  0  0  0
   54.7902   45.8877   29.4583 C   0  0  0  0  0  0
   54.3603   45.0444   30.2427 O   0  0  0  0  0  0
   54.0073   46.8774   28.9386 O   0  0  0  0  0  0
   57.2728   44.8544   30.9385 C   0  0  0  0  0  0
   62.5456   48.8771   34.3523 H   0  0  0  0  0  0
   62.4070   48.3811   32.6870 H   0  0  0  0  0  0
   61.3334   47.6744   33.9022 H   0  0  0  0  0  0
   66.0095   44.3231   35.2886 H   0  0  0  0  0  0
   66.1687   46.0459   35.1509 H   0  0  0  0  0  0
   64.5965   45.4754   36.9395 H   0  0  0  0  0  0
   63.5832   44.5993   35.8250 H   0  0  0  0  0  0
   64.1672   47.5967   35.8818 H   0  0  0  0  0  0
   62.6306   46.8462   36.0889 H   0  0  0  0  0  0
   65.2177   42.9451   33.4158 H   0  0  0  0  0  0
   63.6080   43.5377   33.7579 H   0  0  0  0  0  0
   64.2509   43.6226   32.1239 H   0  0  0  0  0  0
   67.2051   44.7431   33.0538 H   0  0  0  0  0  0
   66.2979   45.1697   31.6253 H   0  0  0  0  0  0
   66.7511   46.4214   32.7856 H   0  0  0  0  0  0
   64.6155   46.6212   31.0208 H   0  0  0  0  0  0
   61.7247   46.0155   31.7214 H   0  0  0  0  0  0
   60.6158   46.7048   26.8596 H   0  0  0  0  0  0
   63.3231   47.2643   26.8103 H   0  0  0  0  0  0
   59.7955   45.6910   30.6185 H   0  0  0  0  0  0
   58.5080   46.2788   27.9320 H   0  0  0  0  0  0
   56.2199   46.4766   28.0044 H   0  0  0  0  0  0
   54.5260   47.4788   28.3987 H   0  0  0  0  0  0
   58.1852   44.2722   31.0749 H   0  0  0  0  0  0
   57.1086   45.5198   31.7886 H   0  0  0  0  0  0
   56.4901   44.0976   30.9392 H   0  0  0  0  0  0
  1  2  1  0  0  0
  1 25  1  0  0  0
  1 26  1  0  0  0
  1 27  1  0  0  0
  2  7  1  0  0  0
  2  3  2  0  0  0
  3  4  1  0  0  0
  3 10  1  0  0  0
  4  5  1  0  0  0
  4  8  1  0  0  0
  4  9  1  0  0  0
  5  6  1  0  0  0
  5 28  1  0  0  0
  5 29  1  0  0  0
  6  7  1  0  0  0
  6 30  1  0  0  0
  6 31  1  0  0  0
  7 32  1  0  0  0
  7 33  1  0  0  0
  8 34  1  0  0  0
  8 35  1  0  0  0
  8 36  1  0  0  0
  9 37  1  0  0  0
  9 38  1  0  0  0
  9 39  1  0  0  0
 10 11  2  0  0  0
 10 40  1  0  0  0
 11 12  1  0  0  0
 11 41  1  0  0  0
 12 16  1  0  0  0
 12 13  2  0  0  0
 13 14  1  0  0  0
 13 17  1  0  0  0
 14 15  2  0  0  0
 14 42  1  0  0  0
 15 16  1  0  0  0
 15 43  1  0  0  0
 17 18  2  0  0  0
 17 44  1  0  0  0
 18 19  1  0  0  0
 18 45  1  0  0  0
 19 20  2  0  0  0
 19 24  1  0  0  0
 20 21  1  0  0  0
 20 46  1  0  0  0
 21 22  2  0  0  0
 21 23  1  0  0  0
 23 47  1  0  0  0
 24 48  1  0  0  0
 24 49  1  0  0  0
 24 50  1  0  0  0
M  END
> <s_m_entry_id>
31520

> <s_m_entry_name>
ligand_docking-pose.212

> <s_m_Source_Path>
/home/csk/Desktop/cluster/DUD-E-result/rxra

> <s_m_Source_File>
ligand_docking-pose.sdf

> <i_m_Source_File_Index>
212

> <i_lp_mmshare_version>
53161

> <i_f3d_flags>
0

> <r_lp_tautomer_probability>
1

> <s_lp_Force_Field>
OPLS_2005

> <r_lp_Energy>
28.710966

> <b_lp_Chiralities_Consistent>
1

> <s_lp_Variant>
258791-1

> <s_i_glide_gridfile>
glide-grid_1mv9

> <i_i_glide_lignum>
126

> <i_i_glide_rotatable_bonds>
6

> <r_i_docking_score>
-9.24912329653637

> <r_i_glide_ligand_efficiency>
-0.385380137355682

> <r_i_glide_ligand_efficiency_sa>
-1.11162867383488

> <r_i_glide_ligand_efficiency_ln>
-2.21373961947401

> <r_i_glide_gscore>
-9.24912329653637

> <r_i_glide_lipo>
-5.56267038852216

> <r_i_glide_hbond>
-0.00380984112220698

> <r_i_glide_metal>
0

> <r_i_glide_rewards>
-1.93560551062384

> <r_i_glide_evdw>
-42.4875640869141

> <r_i_glide_ecoul>
-3.35129404067993

> <r_i_glide_erotb>
0.880034754179526

> <r_i_glide_esite>
0

> <r_i_glide_emodel>
-71.9625546031538

> <r_i_glide_energy>
-45.838858127594

> <r_i_glide_einternal>
1.53858625888824

> <i_i_glide_confnum>
37

> <i_i_glide_posenum>
209

> <r_i_glide_eff_state_penalty>
0

> <s_user_duplicate_titles>
258791

> <s_m_subgroup_title>
dock_pv

> <s_m_subgroupid>
dock_pv1

> <b_m_subgroup_collapsed>
0

$$$$
199410
                    3D
 Schrodinger Suite 2021-1.
 50 50  0  0  1  0            999 V2000
   66.8891   45.7539   33.8789 C   0  0  0  0  0  0
   65.6388   45.8658   33.0092 C   0  0  0  0  0  0
   64.3951   46.2514   33.4417 C   0  0  0  0  0  0
   63.2259   46.1117   32.5201 C   0  0  0  0  0  0
   61.9701   46.4276   32.9330 C   0  0  0  0  0  0
   60.6741   46.3151   32.2624 C   0  0  0  0  0  0
   60.5319   46.4768   30.9199 C   0  0  0  0  0  0
   59.3080   46.3796   30.1381 C   0  0  0  0  0  0
   58.2907   45.5325   30.3806 C   0  0  0  0  0  0
   57.0145   45.5713   29.6916 C   0  0  0  0  0  0
   55.9292   45.2231   30.4166 C   0  0  0  0  0  0
   54.5709   45.2744   29.9589 C   0  0  0  0  0  0
   53.7795   44.3646   30.1391 O   0  0  0  0  0  0
   54.2263   46.4748   29.4054 O   0  0  0  0  0  0
   56.9212   45.9878   28.2330 C   0  0  0  0  0  0
   59.4860   46.0555   33.1897 C   0  0  0  0  0  0
   63.4576   45.5044   31.1238 C   0  0  0  0  0  0
   64.7050   44.6214   31.0804 C   0  0  0  0  0  0
   65.8910   45.4475   31.5642 C   0  0  0  0  0  0
   64.2286   46.7573   34.9050 C   0  0  0  0  0  0
   63.5756   45.7177   35.8326 C   0  0  0  0  0  0
   63.6642   48.1890   35.0866 C   0  0  0  0  0  0
   67.4714   44.8765   33.6056 H   0  0  0  0  0  0
   67.5206   46.6277   33.7286 H   0  0  0  0  0  0
   66.7047   45.6167   34.9393 H   0  0  0  0  0  0
   61.8613   46.7991   33.9282 H   0  0  0  0  0  0
   61.4019   46.7142   30.3330 H   0  0  0  0  0  0
   59.1986   47.0957   29.3366 H   0  0  0  0  0  0
   58.4080   44.8027   31.1680 H   0  0  0  0  0  0
   56.0275   44.8784   31.4354 H   0  0  0  0  0  0
   54.9910   47.0521   29.3588 H   0  0  0  0  0  0
   57.8881   46.0775   27.7399 H   0  0  0  0  0  0
   56.3267   45.2768   27.6718 H   0  0  0  0  0  0
   56.3232   46.8770   28.1466 H   0  0  0  0  0  0
   59.6384   46.5476   34.1483 H   0  0  0  0  0  0
   58.5503   46.4767   32.8308 H   0  0  0  0  0  0
   59.3478   44.9919   33.3751 H   0  0  0  0  0  0
   62.6207   44.8771   30.8226 H   0  0  0  0  0  0
   63.5406   46.2973   30.3790 H   0  0  0  0  0  0
   64.5713   43.7339   31.7026 H   0  0  0  0  0  0
   64.8791   44.2675   30.0636 H   0  0  0  0  0  0
   66.8081   44.8748   31.4527 H   0  0  0  0  0  0
   65.9965   46.3342   30.9383 H   0  0  0  0  0  0
   65.2088   46.8966   35.3303 H   0  0  0  0  0  0
   63.9686   44.7180   35.6404 H   0  0  0  0  0  0
   63.8055   45.9412   36.8736 H   0  0  0  0  0  0
   62.4923   45.6769   35.7250 H   0  0  0  0  0  0
   64.0077   48.8557   34.2972 H   0  0  0  0  0  0
   62.5805   48.2509   35.1229 H   0  0  0  0  0  0
   64.0047   48.6170   36.0309 H   0  0  0  0  0  0
  1  2  1  0  0  0
  1 23  1  0  0  0
  1 24  1  0  0  0
  1 25  1  0  0  0
  2 19  1  0  0  0
  2  3  2  0  0  0
  3  4  1  0  0  0
  3 20  1  0  0  0
  4  5  2  0  0  0
  4 17  1  0  0  0
  5  6  1  0  0  0
  5 26  1  0  0  0
  6  7  2  0  0  0
  6 16  1  0  0  0
  7  8  1  0  0  0
  7 27  1  0  0  0
  8  9  2  0  0  0
  8 28  1  0  0  0
  9 10  1  0  0  0
  9 29  1  0  0  0
 10 11  2  0  0  0
 10 15  1  0  0  0
 11 12  1  0  0  0
 11 30  1  0  0  0
 12 13  2  0  0  0
 12 14  1  0  0  0
 14 31  1  0  0  0
 15 32  1  0  0  0
 15 33  1  0  0  0
 15 34  1  0  0  0
 16 35  1  0  0  0
 16 36  1  0  0  0
 16 37  1  0  0  0
 17 18  1  0  0  0
 17 38  1  0  0  0
 17 39  1  0  0  0
 18 19  1  0  0  0
 18 40  1  0  0  0
 18 41  1  0  0  0
 19 42  1  0  0  0
 19 43  1  0  0  0
 20 21  1  0  0  0
 20 22  1  0  0  0
 20 44  1  0  0  0
 21 45  1  0  0  0
 21 46  1  0  0  0
 21 47  1  0  0  0
 22 48  1  0  0  0
 22 49  1  0  0  0
 22 50  1  0  0  0
M  END
> <s_m_entry_id>
31521

> <s_m_entry_name>
ligand_docking-pose.213

> <s_m_Source_Path>
/home/csk/Desktop/cluster/DUD-E-result/rxra

> <s_m_Source_File>
ligand_docking-pose.sdf

> <i_m_Source_File_Index>
213

> <i_lp_mmshare_version>
53161

> <i_f3d_flags>
0

> <r_lp_tautomer_probability>
1

> <s_lp_Force_Field>
OPLS_2005

> <r_lp_Energy>
33.981107

> <b_lp_Chiralities_Consistent>
1

> <s_lp_Variant>
199410-1

> <s_i_glide_gridfile>
glide-grid_1mv9

> <i_i_glide_lignum>
132

> <i_i_glide_rotatable_bonds>
6

> <r_i_docking_score>
-9.23799473849671

> <r_i_glide_ligand_efficiency>
-0.41990885174985

> <r_i_glide_ligand_efficiency_sa>
-1.17660111668112

> <r_i_glide_ligand_efficiency_ln>
-2.25810287813398

> <r_i_glide_gscore>
-9.23799473849671

> <r_i_glide_lipo>
-5.0475511382856

> <r_i_glide_hbond>
-0.32

> <r_i_glide_metal>
0

> <r_i_glide_rewards>
-2.57197028556935

> <r_i_glide_evdw>
-28.6131591796875

> <r_i_glide_ecoul>
-4.54942083358765

> <r_i_glide_erotb>
0.814597769380768

> <r_i_glide_esite>
0

> <r_i_glide_emodel>
-45.2034383394413

> <r_i_glide_energy>
-33.1625800132751

> <r_i_glide_einternal>
7.98791456222534

> <i_i_glide_confnum>
26

> <i_i_glide_posenum>
183

> <r_i_glide_eff_state_penalty>
0

> <s_user_duplicate_titles>
199410

> <s_m_subgroup_title>
dock_pv

> <s_m_subgroupid>
dock_pv1

> <b_m_subgroup_collapsed>
0

$$$$
564819
                    3D
 Schrodinger Suite 2021-1.
 57 61  0  0  1  0            999 V2000
   62.4872   45.4424   27.1639 C   0  0  0  0  0  0
   62.9245   45.5403   28.6104 C   0  0  0  0  0  0
   64.2691   45.4193   28.9414 C   0  0  0  0  0  0
   64.6781   45.3671   30.2678 C   0  0  0  0  0  0
   63.7424   45.5160   31.3089 C   0  0  0  0  0  0
   62.4141   45.6991   30.9554 C   0  0  0  0  0  0
   62.0022   45.7123   29.6377 C   0  0  0  0  0  0
   60.5783   45.9195   29.4313 C   0  0  0  0  0  0
   59.7167   44.9219   29.8458 C   0  0  0  0  0  0
   58.3485   45.0461   29.7446 C   0  0  0  0  0  0
   57.8080   46.2243   29.2558 C   0  0  0  0  0  0
   58.6919   47.2772   28.9382 C   0  0  0  0  0  0
   60.0654   47.1073   28.9378 C   0  0  0  0  0  0
   61.0973   48.3569   28.3181 Cl  0  0  0  0  0  0
   56.3441   46.2212   29.0992 C   0  0  0  0  0  0
   55.5359   47.2458   28.7641 C   0  0  0  0  0  0
   54.1108   47.1542   28.6674 C   0  0  0  0  0  0
   53.4132   47.9260   28.0204 O   0  0  0  0  0  0
   53.6080   46.1342   29.4103 O   0  0  0  0  0  0
   64.1485   45.6590   32.7841 C   0  0  0  0  0  0
   62.9674   46.0118   33.7695 C   0  0  0  0  0  0
   63.4422   46.2304   35.2163 C   0  0  1  0  0  0
   64.2331   44.9776   35.6834 C   0  0  0  0  0  0
   65.4228   44.6454   34.7423 C   0  0  1  0  0  0
   64.8712   44.3976   33.3214 C   0  0  0  0  0  0
   66.3450   45.8899   34.6969 C   0  0  0  0  0  0
   65.6077   47.1686   34.2338 C   0  0  2  0  0  0
   64.4075   47.4278   35.1857 C   0  0  0  0  0  0
   65.0836   46.8740   32.8425 C   0  0  0  0  0  0
   66.0165   45.2229   30.4910 O   0  0  0  0  0  0
   63.2081   45.9287   26.5137 H   0  0  0  0  0  0
   62.4077   44.3893   26.9110 H   0  0  0  0  0  0
   61.5298   45.9184   26.9608 H   0  0  0  0  0  0
   65.0199   45.3424   28.1801 H   0  0  0  0  0  0
   61.6524   45.8497   31.7035 H   0  0  0  0  0  0
   60.1282   43.9740   30.1387 H   0  0  0  0  0  0
   57.7326   44.1987   30.0114 H   0  0  0  0  0  0
   58.4079   48.2526   28.5967 H   0  0  0  0  0  0
   55.8990   45.2499   29.2697 H   0  0  0  0  0  0
   55.8972   48.2181   28.5394 H   0  0  0  0  0  0
   54.3171   45.6204   29.7989 H   0  0  0  0  0  0
   62.4663   46.9263   33.4441 H   0  0  0  0  0  0
   62.1818   45.2776   33.7934 H   0  0  0  0  0  0
   62.5959   46.4274   35.8749 H   0  0  0  0  0  0
   64.5980   45.1642   36.6934 H   0  0  0  0  0  0
   63.5885   44.1052   35.7673 H   0  0  0  0  0  0
   65.9784   43.7721   35.0771 H   0  0  0  0  0  0
   64.1860   43.5479   33.3276 H   0  0  0  0  0  0
   65.6950   44.0978   32.6781 H   0  0  0  0  0  0
   66.7228   46.0770   35.6866 H   0  0  0  0  0  0
   67.2175   45.6979   34.0704 H   0  0  0  0  0  0
   66.2576   48.0338   34.1384 H   0  0  0  0  0  0
   63.8832   48.3377   34.8891 H   0  0  0  0  0  0
   64.7249   47.5956   36.2094 H   0  0  0  0  0  0
   65.9427   46.8384   32.1795 H   0  0  0  0  0  0
   64.4718   47.6769   32.4866 H   0  0  0  0  0  0
   66.5261   45.7320   29.8457 H   0  0  0  0  0  0
  1  2  1  0  0  0
  1 31  1  0  0  0
  1 32  1  0  0  0
  1 33  1  0  0  0
  2  7  1  0  0  0
  2  3  2  0  0  0
  3  4  1  0  0  0
  3 34  1  0  0  0
  4  5  2  0  0  0
  4 30  1  0  0  0
  5  6  1  0  0  0
  5 20  1  0  0  0
  6  7  2  0  0  0
  6 35  1  0  0  0
  7  8  1  0  0  0
  8 13  1  0  0  0
  8  9  2  0  0  0
  9 10  1  0  0  0
  9 36  1  0  0  0
 10 11  2  0  0  0
 10 37  1  0  0  0
 11 12  1  0  0  0
 11 15  1  0  0  0
 12 13  2  0  0  0
 12 38  1  0  0  0
 13 14  1  0  0  0
 15 16  2  0  0  0
 15 39  1  0  0  0
 16 17  1  0  0  0
 16 40  1  0  0  0
 17 18  2  0  0  0
 17 19  1  0  0  0
 19 41  1  0  0  0
 20 25  1  0  0  0
 20 29  1  0  0  0
 20 21  1  0  0  0
 21 22  1  0  0  0
 21 42  1  0  0  0
 21 43  1  0  0  0
 22 28  1  0  0  0
 22 23  1  0  0  0
 22 44  1  0  0  0
 23 24  1  0  0  0
 23 45  1  0  0  0
 23 46  1  0  0  0
 24 25  1  0  0  0
 24 26  1  0  0  0
 24 47  1  0  0  0
 25 48  1  0  0  0
 25 49  1  0  0  0
 26 27  1  0  0  0
 26 50  1  0  0  0
 26 51  1  0  0  0
 27 28  1  0  0  0
 27 29  1  0  0  0
 27 52  1  0  0  0
 28 53  1  0  0  0
 28 54  1  0  0  0
 29 55  1  0  0  0
 29 56  1  0  0  0
 30 57  1  0  0  0
M  END
> <s_m_entry_id>
31524

> <s_m_entry_name>
ligand_docking-pose.216

> <s_m_Source_Path>
/home/csk/Desktop/cluster/DUD-E-result/rxra

> <s_m_Source_File>
ligand_docking-pose.sdf

> <i_m_Source_File_Index>
216

> <i_lp_mmshare_version>
53161

> <i_f3d_flags>
0

> <r_lp_tautomer_probability>
0.999999999997365

> <s_lp_Force_Field>
OPLS_2005

> <r_lp_Energy>
50.362695

> <b_lp_Chiralities_Consistent>
1

> <s_lp_Variant>
564819-1

> <s_i_glide_gridfile>
glide-grid_1mv9

> <i_i_glide_lignum>
123

> <i_i_glide_rotatable_bonds>
6

> <r_i_docking_score>
-8.92099510297738

> <r_i_glide_ligand_efficiency>
-0.297366503432579

> <r_i_glide_ligand_efficiency_sa>
-0.923986864599996

> <r_i_glide_ligand_efficiency_ln>
-2.02694728942338

> <r_i_glide_gscore>
-8.92099510297738

> <r_i_glide_lipo>
-6.40367569754823

> <r_i_glide_hbond>
-0.43654922710126

> <r_i_glide_metal>
0

> <r_i_glide_rewards>
-1.30900850810293

> <r_i_glide_evdw>
-6.84113788604736

> <r_i_glide_ecoul>
-5.66374588012695

> <r_i_glide_erotb>
0.443086980114541

> <r_i_glide_esite>
-0.0232298740180905

> <r_i_glide_emodel>
-36.5282704689335

> <r_i_glide_energy>
-12.5048837661743

> <r_i_glide_einternal>
5.24231767654419

> <i_i_glide_confnum>
38

> <i_i_glide_posenum>
276

> <r_i_glide_eff_state_penalty>
0

> <s_user_duplicate_titles>
564819

> <s_m_subgroup_title>
dock_pv

> <s_m_subgroupid>
dock_pv1

> <b_m_subgroup_collapsed>
0

$$$$
55555
                    3D
 Schrodinger Suite 2021-1.
 52 55  0  0  1  0            999 V2000
   67.0958   44.8855   34.1156 C   0  0  0  0  0  0
   65.9728   45.6351   33.5521 C   0  0  0  0  0  0
   65.4277   45.7460   32.2954 C   0  0  0  0  0  0
   64.3113   46.4389   32.3700 N   0  0  0  0  0  0
   64.2158   46.7422   33.6428 C   0  0  0  0  0  0
   65.2285   46.3246   34.4186 O   0  0  0  0  0  0
   63.0562   47.2257   34.3640 C   0  0  0  0  0  0
   63.2133   48.0766   35.4569 C   0  0  0  0  0  0
   62.0789   48.4770   36.1389 C   0  0  0  0  0  0
   60.8424   48.0474   35.7388 C   0  0  0  0  0  0
   60.7100   47.1143   34.7151 C   0  0  0  0  0  0
   61.8141   46.7314   33.9888 C   0  0  0  0  0  0
   65.9744   45.2130   30.9988 C   0  0  0  0  0  0
   65.0111   44.4807   30.2305 O   0  0  0  0  0  0
   64.0497   45.1653   29.5170 C   0  0  0  0  0  0
   64.2479   46.4219   28.9419 C   0  0  0  0  0  0
   63.2033   47.1209   28.3546 C   0  0  0  0  0  0
   61.9292   46.5697   28.3657 C   0  0  0  0  0  0
   61.7422   45.2907   28.8877 C   0  0  0  0  0  0
   62.8079   44.5627   29.3905 C   0  0  0  0  0  0
   60.7782   47.3796   27.7937 C   0  0  0  0  0  0
   59.4064   46.6840   27.8081 C   0  0  0  0  0  0
   58.7051   46.6245   29.1808 C   0  0  0  0  0  0
   57.6354   45.5044   29.3200 C   0  0  1  0  0  0
   57.2566   45.2536   30.7664 C   0  0  0  0  0  0
   58.0080   44.9859   31.6976 O   0  0  0  0  0  0
   55.9266   45.3420   30.8032 N   0  0  0  0  0  0
   55.4155   45.7682   29.6403 C   0  0  0  0  0  0
   54.2493   46.0769   29.4047 O   0  0  0  0  0  0
   56.4190   45.8659   28.7164 O   0  0  0  0  0  0
   67.2080   44.0770   33.4188 H   0  0  0  0  0  0
   68.0070   45.4602   34.2262 H   0  0  0  0  0  0
   66.8076   44.4770   35.0687 H   0  0  0  0  0  0
   64.1870   48.4393   35.7540 H   0  0  0  0  0  0
   62.0701   49.1963   36.9372 H   0  0  0  0  0  0
   60.0077   48.4770   36.2586 H   0  0  0  0  0  0
   59.7318   46.7578   34.4274 H   0  0  0  0  0  0
   61.7026   46.0552   33.1538 H   0  0  0  0  0  0
   66.8105   44.5395   31.1664 H   0  0  0  0  0  0
   66.4081   46.0768   30.5390 H   0  0  0  0  0  0
   65.2080   46.8771   28.9598 H   0  0  0  0  0  0
   63.3780   48.0998   27.9322 H   0  0  0  0  0  0
   60.7611   44.8757   28.9392 H   0  0  0  0  0  0
   62.6568   43.5556   29.7390 H   0  0  0  0  0  0
   61.0357   47.6188   26.7603 H   0  0  0  0  0  0
   60.7156   48.3344   28.3183 H   0  0  0  0  0  0
   59.4633   45.7036   27.3390 H   0  0  0  0  0  0
   58.8080   47.2760   27.1496 H   0  0  0  0  0  0
   58.2502   47.6018   29.3391 H   0  0  0  0  0  0
   59.4608   46.5011   29.9592 H   0  0  0  0  0  0
   58.0057   44.5535   28.9387 H   0  0  0  0  0  0
   55.3908   45.2048   31.6431 H   0  0  0  0  0  0
  1  2  1  0  0  0
  1 31  1  0  0  0
  1 32  1  0  0  0
  1 33  1  0  0  0
  2  6  1  0  0  0
  2  3  2  0  0  0
  3  4  1  0  0  0
  3 13  1  0  0  0
  4  5  2  0  0  0
  5  6  1  0  0  0
  5  7  1  0  0  0
  7 12  1  0  0  0
  7  8  2  0  0  0
  8  9  1  0  0  0
  8 34  1  0  0  0
  9 10  2  0  0  0
  9 35  1  0  0  0
 10 11  1  0  0  0
 10 36  1  0  0  0
 11 12  2  0  0  0
 11 37  1  0  0  0
 12 38  1  0  0  0
 13 14  1  0  0  0
 13 39  1  0  0  0
 13 40  1  0  0  0
 14 15  1  0  0  0
 15 20  1  0  0  0
 15 16  2  0  0  0
 16 17  1  0  0  0
 16 41  1  0  0  0
 17 18  2  0  0  0
 17 42  1  0  0  0
 18 19  1  0  0  0
 18 21  1  0  0  0
 19 20  2  0  0  0
 19 43  1  0  0  0
 20 44  1  0  0  0
 21 22  1  0  0  0
 21 45  1  0  0  0
 21 46  1  0  0  0
 22 23  1  0  0  0
 22 47  1  0  0  0
 22 48  1  0  0  0
 23 24  1  0  0  0
 23 49  1  0  0  0
 23 50  1  0  0  0
 24 30  1  0  0  0
 24 25  1  0  0  0
 24 51  1  0  0  0
 25 26  2  0  0  0
 25 27  1  0  0  0
 27 28  1  0  0  0
 27 52  1  0  0  0
 28 29  2  0  0  0
 28 30  1  0  0  0
M  END
> <s_m_entry_id>
31526

> <s_m_entry_name>
ligand_docking-pose.218

> <s_m_Source_Path>
/home/csk/Desktop/cluster/DUD-E-result/rxra

> <s_m_Source_File>
ligand_docking-pose.sdf

> <i_m_Source_File_Index>
218

> <i_lp_mmshare_version>
53161

> <i_f3d_flags>
0

> <r_lp_tautomer_probability>
0.999976750538843

> <s_lp_Force_Field>
OPLS_2005

> <r_lp_Energy>
14.321689

> <b_lp_Chiralities_Consistent>
1

> <s_lp_Variant>
55555-2

> <s_i_glide_gridfile>
glide-grid_1mv9

> <i_i_glide_lignum>
139

> <i_i_glide_rotatable_bonds>
8

> <r_i_docking_score>
-8.88163600104186

> <r_i_glide_ligand_efficiency>
-0.296054533368062

> <r_i_glide_ligand_efficiency_sa>
-0.919910268573312

> <r_i_glide_ligand_efficiency_ln>
-2.01800447261187

> <r_i_glide_gscore>
-8.88163600104186

> <r_i_glide_lipo>
-5.84845115232079

> <r_i_glide_hbond>
0

> <r_i_glide_metal>
0

> <r_i_glide_rewards>
-2.04867808262136

> <r_i_glide_evdw>
-33.5709228515625

> <r_i_glide_ecoul>
-0.927832245826721

> <r_i_glide_erotb>
0.83321421335243

> <r_i_glide_esite>
0

> <r_i_glide_emodel>
-37.4023110325181

> <r_i_glide_energy>
-34.4987550973892

> <r_i_glide_einternal>
10.4575471878052

> <i_i_glide_confnum>
50

> <i_i_glide_posenum>
260

> <r_i_glide_eff_state_penalty>
0

> <s_user_duplicate_titles>
55555

> <s_m_subgroup_title>
dock_pv

> <s_m_subgroupid>
dock_pv1

> <b_m_subgroup_collapsed>
0

$$$$
67938
                    3D
 Schrodinger Suite 2021-1.
 53 53  0  0  1  0            999 V2000
   66.1240   46.0726   32.9376 C   0  0  0  0  0  0
   64.9258   45.1175   33.0628 C   0  0  0  0  0  0
   63.6357   45.6638   32.4408 C   0  0  0  0  0  0
   63.2763   45.5063   31.1262 C   0  0  0  0  0  0
   62.0120   46.0996   30.6088 C   0  0  0  0  0  0
   61.5718   45.8522   29.3434 C   0  0  0  0  0  0
   60.4214   46.4008   28.6326 C   0  0  0  0  0  0
   59.1429   46.0774   28.9221 C   0  0  0  0  0  0
   58.7293   45.2046   30.0109 C   0  0  0  0  0  0
   57.5029   44.9167   30.4944 C   0  0  0  0  0  0
   56.1553   45.3450   30.1166 C   0  0  0  0  0  0
   55.9158   46.4362   29.3346 C   0  0  0  0  0  0
   54.6171   46.9240   28.9390 C   0  0  0  0  0  0
   53.5600   46.4763   29.3390 O   0  0  0  0  0  0
   54.6704   48.0167   28.1390 O   0  0  0  0  0  0
   55.0298   44.4770   30.6831 C   0  0  0  0  0  0
   60.6892   47.3594   27.4881 C   0  0  0  0  0  0
   61.2076   47.0075   31.5364 C   0  0  0  0  0  0
   61.3436   46.5927   33.0024 C   0  0  0  0  0  0
   62.8097   46.4964   33.4251 C   0  0  0  0  0  0
   64.2244   44.7719   30.1458 C   0  0  0  0  0  0
   64.6840   45.6611   28.9658 C   0  0  0  0  0  0
   63.7049   43.3722   29.7363 C   0  0  0  0  0  0
   67.0090   45.6512   33.4161 H   0  0  0  0  0  0
   66.3725   46.2676   31.8939 H   0  0  0  0  0  0
   65.9175   47.0323   33.4139 H   0  0  0  0  0  0
   64.7532   44.9087   34.1193 H   0  0  0  0  0  0
   65.1717   44.1362   32.6584 H   0  0  0  0  0  0
   62.1168   45.1710   28.7200 H   0  0  0  0  0  0
   58.4127   46.4998   28.2609 H   0  0  0  0  0  0
   59.5284   44.7068   30.5321 H   0  0  0  0  0  0
   57.5412   44.2316   31.3304 H   0  0  0  0  0  0
   56.7044   47.0479   28.9519 H   0  0  0  0  0  0
   55.5650   48.3372   28.0239 H   0  0  0  0  0  0
   55.3766   43.6769   31.3381 H   0  0  0  0  0  0
   54.3540   45.0923   31.2742 H   0  0  0  0  0  0
   54.4373   44.0544   29.8710 H   0  0  0  0  0  0
   61.7238   47.7039   27.4635 H   0  0  0  0  0  0
   60.4094   46.9044   26.5389 H   0  0  0  0  0  0
   60.0604   48.2428   27.6007 H   0  0  0  0  0  0
   61.4587   48.0582   31.3818 H   0  0  0  0  0  0
   60.1581   46.8769   31.3137 H   0  0  0  0  0  0
   60.8140   47.2771   33.6579 H   0  0  0  0  0  0
   60.8248   45.6564   33.1637 H   0  0  0  0  0  0
   63.2394   47.4976   33.4863 H   0  0  0  0  0  0
   62.8730   46.0997   34.4391 H   0  0  0  0  0  0
   65.1777   44.5790   30.6286 H   0  0  0  0  0  0
   64.8767   46.6769   29.3041 H   0  0  0  0  0  0
   65.6086   45.2897   28.5402 H   0  0  0  0  0  0
   63.9830   45.7313   28.1388 H   0  0  0  0  0  0
   62.6200   43.3165   29.7377 H   0  0  0  0  0  0
   64.0080   43.0761   28.7345 H   0  0  0  0  0  0
   64.0522   42.6062   30.4316 H   0  0  0  0  0  0
  1  2  1  0  0  0
  1 24  1  0  0  0
  1 25  1  0  0  0
  1 26  1  0  0  0
  2  3  1  0  0  0
  2 27  1  0  0  0
  2 28  1  0  0  0
  3 20  1  0  0  0
  3  4  2  0  0  0
  4  5  1  0  0  0
  4 21  1  0  0  0
  5  6  2  0  0  0
  5 18  1  0  0  0
  6  7  1  0  0  0
  6 29  1  0  0  0
  7  8  2  0  0  0
  7 17  1  0  0  0
  8  9  1  0  0  0
  8 30  1  0  0  0
  9 10  2  0  0  0
  9 31  1  0  0  0
 10 11  1  0  0  0
 10 32  1  0  0  0
 11 12  2  0  0  0
 11 16  1  0  0  0
 12 13  1  0  0  0
 12 33  1  0  0  0
 13 14  2  0  0  0
 13 15  1  0  0  0
 15 34  1  0  0  0
 16 35  1  0  0  0
 16 36  1  0  0  0
 16 37  1  0  0  0
 17 38  1  0  0  0
 17 39  1  0  0  0
 17 40  1  0  0  0
 18 19  1  0  0  0
 18 41  1  0  0  0
 18 42  1  0  0  0
 19 20  1  0  0  0
 19 43  1  0  0  0
 19 44  1  0  0  0
 20 45  1  0  0  0
 20 46  1  0  0  0
 21 22  1  0  0  0
 21 23  1  0  0  0
 21 47  1  0  0  0
 22 48  1  0  0  0
 22 49  1  0  0  0
 22 50  1  0  0  0
 23 51  1  0  0  0
 23 52  1  0  0  0
 23 53  1  0  0  0
M  END
> <s_m_entry_id>
31531

> <s_m_entry_name>
ligand_docking-pose.223

> <s_m_Source_Path>
/home/csk/Desktop/cluster/DUD-E-result/rxra

> <s_m_Source_File>
ligand_docking-pose.sdf

> <i_m_Source_File_Index>
223

> <i_lp_mmshare_version>
53161

> <i_f3d_flags>
0

> <r_lp_tautomer_probability>
1

> <s_lp_Force_Field>
OPLS_2005

> <r_lp_Energy>
42.337207

> <b_lp_Chiralities_Consistent>
1

> <s_lp_Variant>
67938-1

> <s_i_glide_gridfile>
glide-grid_1mv9

> <i_i_glide_lignum>
154

> <i_i_glide_rotatable_bonds>
7

> <r_i_docking_score>
-8.68613627408041

> <r_i_glide_ligand_efficiency>
-0.377658098873061

> <r_i_glide_ligand_efficiency_sa>
-1.0740093959361

> <r_i_glide_ligand_efficiency_ln>
-2.10038651260182

> <r_i_glide_gscore>
-8.68613627408041

> <r_i_glide_lipo>
-5.19163324166317

> <r_i_glide_hbond>
-0.245349160678556

> <r_i_glide_metal>
0

> <r_i_glide_rewards>
-2.05270139719025

> <r_i_glide_evdw>
-31.2584419250488

> <r_i_glide_ecoul>
-2.56969547271729

> <r_i_glide_erotb>
0.751923942611606

> <r_i_glide_esite>
0

> <r_i_glide_emodel>
-36.5579658695975

> <r_i_glide_energy>
-33.8281373977661

> <r_i_glide_einternal>
7.31817722320557

> <i_i_glide_confnum>
56

> <i_i_glide_posenum>
197

> <r_i_glide_eff_state_penalty>
0

> <s_user_duplicate_titles>
67938,68441

> <s_m_subgroup_title>
dock_pv

> <s_m_subgroupid>
dock_pv1

> <b_m_subgroup_collapsed>
0

$$$$
217670
                    3D
 Schrodinger Suite 2021-1.
 61 62  0  0  1  0            999 V2000
   63.2979   48.4120   27.4166 C   0  0  0  0  0  0
   62.1819   47.9699   28.3755 C   0  0  0  0  0  0
   62.6732   47.1926   29.5891 C   0  0  0  0  0  0
   62.4083   47.6354   30.8806 C   0  0  0  0  0  0
   62.8117   46.8671   31.9731 C   0  0  0  0  0  0
   63.5473   45.6880   31.7890 C   0  0  0  0  0  0
   63.7430   45.1787   30.4999 C   0  0  0  0  0  0
   63.3437   45.9850   29.4145 C   0  0  0  0  0  0
   64.4342   43.8106   30.2427 C   0  0  0  0  0  0
   65.9431   44.1500   30.1390 C   0  0  0  0  0  0
   63.7914   43.1249   28.9970 C   0  0  0  0  0  0
   64.3172   42.6822   31.3176 C   0  0  0  0  0  0
   63.9419   44.9485   32.8686 O   0  0  0  0  0  0
   65.1085   45.3074   33.6003 C   0  0  0  0  0  0
   65.3195   44.1701   34.6186 C   0  0  0  0  0  0
   64.0080   43.8052   35.3382 C   0  0  0  0  0  0
   63.5957   44.7889   36.1377 F   0  0  0  0  0  0
   62.3692   47.2203   33.3346 C   0  0  0  0  0  0
   63.1625   47.9992   34.1883 C   0  0  0  0  0  0
   62.6862   48.0769   35.4726 C   0  0  0  0  0  0
   61.2080   47.2213   35.6247 S   0  0  0  0  0  0
   61.1753   46.7891   33.9438 C   0  0  0  0  0  0
   60.0069   46.0769   33.3614 C   0  0  0  0  0  0
   59.6538   46.0770   32.0552 C   0  0  0  0  0  0
   58.5396   45.4684   31.3281 C   0  0  0  0  0  0
   57.2373   45.6725   31.6738 C   0  0  0  0  0  0
   56.0337   45.2770   30.9394 C   0  0  0  0  0  0
   54.8933   45.4880   31.3419 O   0  0  0  0  0  0
   56.2412   44.6803   29.7361 O   0  0  0  0  0  0
   58.9643   44.6299   30.1383 C   0  0  0  0  0  0
   62.8585   48.8771   26.5386 H   0  0  0  0  0  0
   63.9662   49.1414   27.8732 H   0  0  0  0  0  0
   63.9008   47.5732   27.0673 H   0  0  0  0  0  0
   61.4755   47.3344   27.8392 H   0  0  0  0  0  0
   61.6089   48.8405   28.6885 H   0  0  0  0  0  0
   61.8469   48.5424   31.0413 H   0  0  0  0  0  0
   63.5510   45.7063   28.3970 H   0  0  0  0  0  0
   66.3746   44.4771   31.0804 H   0  0  0  0  0  0
   66.5477   43.3243   29.7562 H   0  0  0  0  0  0
   66.1076   44.9654   29.4344 H   0  0  0  0  0  0
   62.8162   42.6969   29.2380 H   0  0  0  0  0  0
   63.6082   43.7544   28.1396 H   0  0  0  0  0  0
   64.4080   42.3182   28.6232 H   0  0  0  0  0  0
   63.3039   42.3811   31.5613 H   0  0  0  0  0  0
   64.8079   41.7722   30.9687 H   0  0  0  0  0  0
   64.8083   42.9048   32.2510 H   0  0  0  0  0  0
   65.9823   45.4250   32.9623 H   0  0  0  0  0  0
   64.9839   46.2457   34.1318 H   0  0  0  0  0  0
   65.7288   43.2882   34.1297 H   0  0  0  0  0  0
   66.0693   44.4772   35.3390 H   0  0  0  0  0  0
   63.2417   43.6093   34.5911 H   0  0  0  0  0  0
   64.0081   42.8944   35.9344 H   0  0  0  0  0  0
   64.1003   48.4406   33.8920 H   0  0  0  0  0  0
   63.1335   48.5743   36.3186 H   0  0  0  0  0  0
   59.4012   45.5355   34.0726 H   0  0  0  0  0  0
   60.2906   46.6239   31.3951 H   0  0  0  0  0  0
   57.0166   46.2267   32.5739 H   0  0  0  0  0  0
   55.4124   44.4554   29.3106 H   0  0  0  0  0  0
   60.0297   44.3965   30.1390 H   0  0  0  0  0  0
   58.4335   43.6775   30.1466 H   0  0  0  0  0  0
   58.7052   45.1442   29.2125 H   0  0  0  0  0  0
  1  2  1  0  0  0
  1 31  1  0  0  0
  1 32  1  0  0  0
  1 33  1  0  0  0
  2  3  1  0  0  0
  2 34  1  0  0  0
  2 35  1  0  0  0
  3  8  1  0  0  0
  3  4  2  0  0  0
  4  5  1  0  0  0
  4 36  1  0  0  0
  5  6  2  0  0  0
  5 18  1  0  0  0
  6  7  1  0  0  0
  6 13  1  0  0  0
  7  8  2  0  0  0
  7  9  1  0  0  0
  8 37  1  0  0  0
  9 10  1  0  0  0
  9 11  1  0  0  0
  9 12  1  0  0  0
 10 38  1  0  0  0
 10 39  1  0  0  0
 10 40  1  0  0  0
 11 41  1  0  0  0
 11 42  1  0  0  0
 11 43  1  0  0  0
 12 44  1  0  0  0
 12 45  1  0  0  0
 12 46  1  0  0  0
 13 14  1  0  0  0
 14 15  1  0  0  0
 14 47  1  0  0  0
 14 48  1  0  0  0
 15 16  1  0  0  0
 15 49  1  0  0  0
 15 50  1  0  0  0
 16 17  1  0  0  0
 16 51  1  0  0  0
 16 52  1  0  0  0
 18 22  2  0  0  0
 18 19  1  0  0  0
 19 20  2  0  0  0
 19 53  1  0  0  0
 20 21  1  0  0  0
 20 54  1  0  0  0
 21 22  1  0  0  0
 22 23  1  0  0  0
 23 24  2  0  0  0
 23 55  1  0  0  0
 24 25  1  0  0  0
 24 56  1  0  0  0
 25 26  2  0  0  0
 25 30  1  0  0  0
 26 27  1  0  0  0
 26 57  1  0  0  0
 27 28  2  0  0  0
 27 29  1  0  0  0
 29 58  1  0  0  0
 30 59  1  0  0  0
 30 60  1  0  0  0
 30 61  1  0  0  0
M  END
> <s_m_entry_id>
31534

> <s_m_entry_name>
ligand_docking-pose.226

> <s_m_Source_Path>
/home/csk/Desktop/cluster/DUD-E-result/rxra

> <s_m_Source_File>
ligand_docking-pose.sdf

> <i_m_Source_File_Index>
226

> <i_lp_mmshare_version>
53161

> <i_f3d_flags>
0

> <r_lp_tautomer_probability>
1

> <s_lp_Force_Field>
OPLS_2005

> <r_lp_Energy>
33.312496

> <b_lp_Chiralities_Consistent>
1

> <s_lp_Variant>
217670-1

> <s_i_glide_gridfile>
glide-grid_1mv9

> <i_i_glide_lignum>
149

> <i_i_glide_rotatable_bonds>
11

> <r_i_docking_score>
-8.63180129096303

> <r_i_glide_ligand_efficiency>
-0.287726709698768

> <r_i_glide_ligand_efficiency_sa>
-0.894033784193565

> <r_i_glide_ligand_efficiency_ln>
-1.96123930431476

> <r_i_glide_gscore>
-8.63180129096303

> <r_i_glide_lipo>
-5.28782809228207

> <r_i_glide_hbond>
-0.0409404056372614

> <r_i_glide_metal>
0

> <r_i_glide_rewards>
-2.03079347377723

> <r_i_glide_evdw>
-30.5914497375488

> <r_i_glide_ecoul>
-3.2891104221344

> <r_i_glide_erotb>
0.750699730931132

> <r_i_glide_esite>
0

> <r_i_glide_emodel>
-49.9696704521533

> <r_i_glide_energy>
-33.8805601596832

> <r_i_glide_einternal>
16.7819290161133

> <i_i_glide_confnum>
176

> <i_i_glide_posenum>
149

> <r_i_glide_eff_state_penalty>
0

> <s_user_duplicate_titles>
217670

> <s_m_subgroup_title>
dock_pv

> <s_m_subgroupid>
dock_pv1

> <b_m_subgroup_collapsed>
0

$$$$
318475
                    3D
 Schrodinger Suite 2021-1.
 70 70  0  0  1  0            999 V2000
   62.9799   42.4636   38.1006 C   0  0  0  0  0  0
   62.6879   43.9031   37.6452 C   0  0  0  0  0  0
   63.5369   44.5280   36.5099 C   0  0  0  0  0  0
   64.0074   43.6122   35.3519 C   0  0  0  0  0  0
   64.8678   44.3520   34.3236 C   0  0  0  0  0  0
   63.9088   44.9278   33.2782 C   0  0  0  0  0  0
   64.4431   45.9966   32.5385 O   0  0  0  0  0  0
   63.7369   46.2813   31.3944 C   0  0  0  0  0  0
   64.2086   45.7835   30.1720 C   0  0  0  0  0  0
   63.5810   46.1774   28.9927 C   0  0  0  0  0  0
   62.4867   47.0367   28.9962 C   0  0  0  0  0  0
   61.9734   47.4634   30.2235 C   0  0  0  0  0  0
   62.5442   47.0361   31.4317 C   0  0  0  0  0  0
   61.8265   47.2663   32.7158 C   0  0  0  0  0  0
   60.5896   46.7615   32.9534 C   0  0  0  0  0  0
   59.7518   46.0770   31.9780 C   0  0  0  0  0  0
   58.4660   45.7177   32.1837 C   0  0  0  0  0  0
   57.5957   45.1768   31.1407 C   0  0  0  0  0  0
   56.2556   45.3259   31.3070 C   0  0  0  0  0  0
   55.2305   44.9831   30.3424 C   0  0  0  0  0  0
   55.3943   44.8853   29.1309 O   0  0  0  0  0  0
   54.0117   44.8769   30.9383 O   0  0  0  0  0  0
   58.2045   44.4777   29.9289 C   0  0  0  0  0  0
   62.5339   48.1070   33.7707 C   0  0  0  0  0  0
   61.8996   47.4484   27.6453 C   0  0  0  0  0  0
   62.8129   48.4768   26.9538 C   0  0  0  0  0  0
   60.4231   47.8936   27.6714 C   0  0  0  0  0  0
   65.3373   44.7543   30.0624 C   0  0  0  0  0  0
   64.8077   43.2984   30.1475 C   0  0  0  0  0  0
   66.5639   45.0059   30.9399 C   0  0  0  0  0  0
   62.3345   42.1974   38.9377 H   0  0  0  0  0  0
   62.8036   41.7178   37.3339 H   0  0  0  0  0  0
   64.0074   42.3463   38.4386 H   0  0  0  0  0  0
   62.8467   44.4783   38.5390 H   0  0  0  0  0  0
   61.6330   44.0770   37.4399 H   0  0  0  0  0  0
   64.4089   45.0042   36.9475 H   0  0  0  0  0  0
   62.9712   45.3624   36.0946 H   0  0  0  0  0  0
   63.2080   43.1875   34.7680 H   0  0  0  0  0  0
   64.4080   42.7002   35.7390 H   0  0  0  0  0  0
   65.5678   43.6640   33.8502 H   0  0  0  0  0  0
   65.4646   45.1367   34.7917 H   0  0  0  0  0  0
   63.0043   45.2778   33.7720 H   0  0  0  0  0  0
   63.6080   44.1176   32.6207 H   0  0  0  0  0  0
   63.9490   45.8032   28.0534 H   0  0  0  0  0  0
   61.0915   48.0830   30.2478 H   0  0  0  0  0  0
   60.1643   46.8983   33.9373 H   0  0  0  0  0  0
   60.1742   45.8728   31.0068 H   0  0  0  0  0  0
   58.0433   45.9016   33.1618 H   0  0  0  0  0  0
   55.8891   45.7821   32.2174 H   0  0  0  0  0  0
   54.1481   44.9207   31.8858 H   0  0  0  0  0  0
   59.1957   44.0784   30.1390 H   0  0  0  0  0  0
   57.6079   43.6060   29.6669 H   0  0  0  0  0  0
   58.2353   45.1419   29.0647 H   0  0  0  0  0  0
   63.5332   47.7400   33.9981 H   0  0  0  0  0  0
   62.6169   49.1349   33.4202 H   0  0  0  0  0  0
   61.9763   48.1354   34.7074 H   0  0  0  0  0  0
   61.9138   46.5425   27.0356 H   0  0  0  0  0  0
   63.8704   48.2501   27.0995 H   0  0  0  0  0  0
   62.6553   48.4766   25.8779 H   0  0  0  0  0  0
   62.6403   49.4825   27.3391 H   0  0  0  0  0  0
   59.7984   47.1807   28.2106 H   0  0  0  0  0  0
   60.2997   48.8692   28.1371 H   0  0  0  0  0  0
   60.0215   47.9743   26.6615 H   0  0  0  0  0  0
   65.7349   44.9071   29.0639 H   0  0  0  0  0  0
   63.8807   43.1785   29.5840 H   0  0  0  0  0  0
   65.5141   42.5712   29.7418 H   0  0  0  0  0  0
   64.6123   42.9819   31.1680 H   0  0  0  0  0  0
   66.8045   46.0666   30.9643 H   0  0  0  0  0  0
   66.4269   44.6794   31.9675 H   0  0  0  0  0  0
   67.4277   44.4772   30.5389 H   0  0  0  0  0  0
  1  2  1  0  0  0
  1 31  1  0  0  0
  1 32  1  0  0  0
  1 33  1  0  0  0
  2  3  1  0  0  0
  2 34  1  0  0  0
  2 35  1  0  0  0
  3  4  1  0  0  0
  3 36  1  0  0  0
  3 37  1  0  0  0
  4  5  1  0  0  0
  4 38  1  0  0  0
  4 39  1  0  0  0
  5  6  1  0  0  0
  5 40  1  0  0  0
  5 41  1  0  0  0
  6  7  1  0  0  0
  6 42  1  0  0  0
  6 43  1  0  0  0
  7  8  1  0  0  0
  8 13  1  0  0  0
  8  9  2  0  0  0
  9 10  1  0  0  0
  9 28  1  0  0  0
 10 11  2  0  0  0
 10 44  1  0  0  0
 11 12  1  0  0  0
 11 25  1  0  0  0
 12 13  2  0  0  0
 12 45  1  0  0  0
 13 14  1  0  0  0
 14 15  2  0  0  0
 14 24  1  0  0  0
 15 16  1  0  0  0
 15 46  1  0  0  0
 16 17  2  0  0  0
 16 47  1  0  0  0
 17 18  1  0  0  0
 17 48  1  0  0  0
 18 19  2  0  0  0
 18 23  1  0  0  0
 19 20  1  0  0  0
 19 49  1  0  0  0
 20 21  2  0  0  0
 20 22  1  0  0  0
 22 50  1  0  0  0
 23 51  1  0  0  0
 23 52  1  0  0  0
 23 53  1  0  0  0
 24 54  1  0  0  0
 24 55  1  0  0  0
 24 56  1  0  0  0
 25 26  1  0  0  0
 25 27  1  0  0  0
 25 57  1  0  0  0
 26 58  1  0  0  0
 26 59  1  0  0  0
 26 60  1  0  0  0
 27 61  1  0  0  0
 27 62  1  0  0  0
 27 63  1  0  0  0
 28 29  1  0  0  0
 28 30  1  0  0  0
 28 64  1  0  0  0
 29 65  1  0  0  0
 29 66  1  0  0  0
 29 67  1  0  0  0
 30 68  1  0  0  0
 30 69  1  0  0  0
 30 70  1  0  0  0
M  END
> <s_m_entry_id>
31535

> <s_m_entry_name>
ligand_docking-pose.227

> <s_m_Source_Path>
/home/csk/Desktop/cluster/DUD-E-result/rxra

> <s_m_Source_File>
ligand_docking-pose.sdf

> <i_m_Source_File_Index>
227

> <i_lp_mmshare_version>
53161

> <i_f3d_flags>
0

> <r_lp_tautomer_probability>
1

> <s_lp_Force_Field>
OPLS_2005

> <r_lp_Energy>
26.883756

> <b_lp_Chiralities_Consistent>
1

> <s_lp_Variant>
318475-1

> <s_i_glide_gridfile>
glide-grid_1mv9

> <i_i_glide_lignum>
207

> <i_i_glide_rotatable_bonds>
13

> <r_i_docking_score>
-8.62503067637346

> <r_i_glide_ligand_efficiency>
-0.287501022545782

> <r_i_glide_ligand_efficiency_sa>
-0.893332521736427

> <r_i_glide_ligand_efficiency_ln>
-1.95970094690825

> <r_i_glide_gscore>
-8.62503067637346

> <r_i_glide_lipo>
-5.70263859173532

> <r_i_glide_hbond>
0

> <r_i_glide_metal>
0

> <r_i_glide_rewards>
-2.26691769411624

> <r_i_glide_evdw>
-34.8270874023438

> <r_i_glide_ecoul>
0.288947403430939

> <r_i_glide_erotb>
1.04253786908064

> <r_i_glide_esite>
0

> <r_i_glide_emodel>
-71.135621688729

> <r_i_glide_energy>
-34.5381399989128

> <r_i_glide_einternal>
13.3491334915161

> <i_i_glide_confnum>
157

> <i_i_glide_posenum>
33

> <r_i_glide_eff_state_penalty>
0

> <s_user_duplicate_titles>
318475

> <s_m_subgroup_title>
dock_pv

> <s_m_subgroupid>
dock_pv1

> <b_m_subgroup_collapsed>
0

$$$$
120121
                    3D
 Schrodinger Suite 2021-1.
 55 55  0  0  1  0            999 V2000
   55.3344   45.6000   28.5335 C   0  0  0  0  0  0
   56.7855   46.0758   28.7007 C   0  0  0  0  0  0
   57.6344   45.2489   29.6965 C   0  0  2  0  0  0
   56.9972   45.1153   31.0899 C   0  0  0  0  0  0
   59.0936   45.6746   29.8119 C   0  0  0  0  0  0
   59.6820   46.8101   29.3754 C   0  0  0  0  0  0
   61.1659   47.1527   29.5383 C   0  0  0  0  0  0
   62.0722   45.9618   29.8637 C   0  0  0  0  0  0
   62.2182   45.0227   28.8958 C   0  0  0  0  0  0
   62.9672   43.7872   28.9229 C   0  0  0  0  0  0
   62.7280   42.8770   28.1429 O   0  0  0  0  0  0
   64.0075   43.7351   29.7945 O   0  0  0  0  0  0
   62.7011   45.8123   31.1707 C   0  0  0  0  0  0
   63.1479   46.7727   31.9896 C   0  0  0  0  0  0
   63.7630   46.5150   33.2981 C   0  0  0  0  0  0
   63.3237   47.2523   34.3626 C   0  0  0  0  0  0
   63.8928   47.1557   35.7753 C   0  0  0  0  0  0
   64.8130   45.9472   35.9655 C   0  0  0  0  0  0
   65.7210   45.7539   34.7440 C   0  0  0  0  0  0
   64.9333   45.4808   33.4338 C   0  0  0  0  0  0
   64.3883   44.0303   33.5135 C   0  0  0  0  0  0
   65.9357   45.6768   32.2669 C   0  0  0  0  0  0
   62.2396   48.3109   34.2435 C   0  0  0  0  0  0
   54.8374   46.1560   27.7389 H   0  0  0  0  0  0
   54.7527   45.7522   29.4423 H   0  0  0  0  0  0
   55.2905   44.5413   28.2775 H   0  0  0  0  0  0
   57.2826   46.0226   27.7389 H   0  0  0  0  0  0
   56.7772   47.1350   28.9422 H   0  0  0  0  0  0
   57.6816   44.2369   29.2902 H   0  0  0  0  0  0
   57.6106   44.4828   31.7319 H   0  0  0  0  0  0
   56.9000   46.0765   31.5888 H   0  0  0  0  0  0
   56.0095   44.6581   31.0456 H   0  0  0  0  0  0
   59.7056   44.9459   30.3206 H   0  0  0  0  0  0
   59.0904   47.5568   28.8667 H   0  0  0  0  0  0
   61.5206   47.6107   28.6140 H   0  0  0  0  0  0
   61.2441   47.9142   30.3132 H   0  0  0  0  0  0
   61.6989   45.1592   27.9583 H   0  0  0  0  0  0
   64.4615   42.8976   29.6906 H   0  0  0  0  0  0
   62.8096   44.8133   31.5251 H   0  0  0  0  0  0
   63.0528   47.7978   31.6667 H   0  0  0  0  0  0
   64.4088   48.0921   35.9776 H   0  0  0  0  0  0
   63.1100   47.1625   36.5325 H   0  0  0  0  0  0
   65.4019   46.0770   36.8732 H   0  0  0  0  0  0
   64.2141   45.0510   36.1306 H   0  0  0  0  0  0
   66.4397   44.9566   34.9387 H   0  0  0  0  0  0
   66.3210   46.6499   34.6007 H   0  0  0  0  0  0
   65.1319   43.3457   33.9236 H   0  0  0  0  0  0
   63.5040   43.9576   34.1430 H   0  0  0  0  0  0
   64.1448   43.6153   32.5387 H   0  0  0  0  0  0
   66.8071   45.0330   32.3872 H   0  0  0  0  0  0
   65.4990   45.4244   31.3010 H   0  0  0  0  0  0
   66.2943   46.7049   32.2063 H   0  0  0  0  0  0
   61.5900   48.3265   35.1192 H   0  0  0  0  0  0
   62.7237   49.2770   34.1365 H   0  0  0  0  0  0
   61.6088   48.1584   33.3754 H   0  0  0  0  0  0
  1  2  1  0  0  0
  1 24  1  0  0  0
  1 25  1  0  0  0
  1 26  1  0  0  0
  2  3  1  0  0  0
  2 27  1  0  0  0
  2 28  1  0  0  0
  3  4  1  0  0  0
  3  5  1  0  0  0
  3 29  1  0  0  0
  4 30  1  0  0  0
  4 31  1  0  0  0
  4 32  1  0  0  0
  5  6  2  0  0  0
  5 33  1  0  0  0
  6  7  1  0  0  0
  6 34  1  0  0  0
  7  8  1  0  0  0
  7 35  1  0  0  0
  7 36  1  0  0  0
  8  9  2  0  0  0
  8 13  1  0  0  0
  9 10  1  0  0  0
  9 37  1  0  0  0
 10 11  2  0  0  0
 10 12  1  0  0  0
 12 38  1  0  0  0
 13 14  2  0  0  0
 13 39  1  0  0  0
 14 15  1  0  0  0
 14 40  1  0  0  0
 15 20  1  0  0  0
 15 16  2  0  0  0
 16 17  1  0  0  0
 16 23  1  0  0  0
 17 18  1  0  0  0
 17 41  1  0  0  0
 17 42  1  0  0  0
 18 19  1  0  0  0
 18 43  1  0  0  0
 18 44  1  0  0  0
 19 20  1  0  0  0
 19 45  1  0  0  0
 19 46  1  0  0  0
 20 21  1  0  0  0
 20 22  1  0  0  0
 21 47  1  0  0  0
 21 48  1  0  0  0
 21 49  1  0  0  0
 22 50  1  0  0  0
 22 51  1  0  0  0
 22 52  1  0  0  0
 23 53  1  0  0  0
 23 54  1  0  0  0
 23 55  1  0  0  0
M  END
> <s_m_entry_id>
31540

> <s_m_entry_name>
ligand_docking-pose.232

> <s_m_Source_Path>
/home/csk/Desktop/cluster/DUD-E-result/rxra

> <s_m_Source_File>
ligand_docking-pose.sdf

> <i_m_Source_File_Index>
232

> <i_lp_mmshare_version>
53161

> <i_f3d_flags>
0

> <r_lp_tautomer_probability>
1

> <s_lp_Force_Field>
OPLS_2005

> <r_lp_Energy>
22.246152

> <b_lp_Chiralities_Consistent>
1

> <s_lp_Variant>
120121-1

> <s_i_glide_gridfile>
glide-grid_1mv9

> <i_i_glide_lignum>
201

> <i_i_glide_rotatable_bonds>
8

> <r_i_docking_score>
-8.47273499225934

> <r_i_glide_ligand_efficiency>
-0.368379782272145

> <r_i_glide_ligand_efficiency_sa>
-1.04762309775372

> <r_i_glide_ligand_efficiency_ln>
-2.04878414764164

> <r_i_glide_gscore>
-8.47273499225934

> <r_i_glide_lipo>
-5.36325126303105

> <r_i_glide_hbond>
0

> <r_i_glide_metal>
0

> <r_i_glide_rewards>
-2.52184719391403

> <r_i_glide_evdw>
-34.464469909668

> <r_i_glide_ecoul>
0.135399520397186

> <r_i_glide_erotb>
1.11527703210957

> <r_i_glide_esite>
0

> <r_i_glide_emodel>
-46.4565989328932

> <r_i_glide_energy>
-34.3290703892708

> <r_i_glide_einternal>
3.80322074890137

> <i_i_glide_confnum>
106

> <i_i_glide_posenum>
304

> <r_i_glide_eff_state_penalty>
0

> <s_user_duplicate_titles>
120121

> <s_m_subgroup_title>
dock_pv

> <s_m_subgroupid>
dock_pv1

> <b_m_subgroup_collapsed>
0

$$$$
178609
                    3D
 Schrodinger Suite 2021-1.
 64 64  0  0  1  0            999 V2000
   57.7757   45.2726   31.1736 C   0  0  0  0  0  0
   57.5155   45.9263   29.8168 C   0  0  0  0  0  0
   56.2930   45.9285   29.2190 C   0  0  0  0  0  0
   55.0444   45.4384   29.7735 C   0  0  0  0  0  0
   54.8983   44.4933   30.5458 O   0  0  0  0  0  0
   54.0064   46.2178   29.3591 O   0  0  0  0  0  0
   56.0944   46.4730   27.9926 F   0  0  0  0  0  0
   58.6204   46.5779   29.1060 C   0  0  0  0  0  0
   59.8498   46.8250   29.6023 C   0  0  0  0  0  0
   60.8657   47.5415   28.8407 C   0  0  0  0  0  0
   62.1753   47.6538   29.1616 C   0  0  0  0  0  0
   63.1423   48.3475   28.1818 C   0  0  0  0  0  0
   62.7356   47.0765   30.4220 C   0  0  0  0  0  0
   62.2483   47.4704   31.6749 C   0  0  0  0  0  0
   62.7176   46.8734   32.8578 C   0  0  0  0  0  0
   63.7051   45.9137   32.7695 C   0  0  0  0  0  0
   64.2524   45.5205   31.5627 C   0  0  0  0  0  0
   63.7032   46.0593   30.3830 C   0  0  0  0  0  0
   64.0264   45.5256   29.1713 O   0  0  0  0  0  0
   63.2782   44.3616   28.8399 C   0  0  0  0  0  0
   62.3183   44.7206   27.7101 C   0  0  0  0  0  0
   62.7843   45.6961   26.9373 F   0  0  0  0  0  0
   62.0081   43.6907   26.9432 F   0  0  0  0  0  0
   65.3886   44.4791   31.6024 C   0  0  0  0  0  0
   66.4647   44.8053   30.5431 C   0  0  0  0  0  0
   64.7763   43.0596   31.4157 C   0  0  0  0  0  0
   66.1629   44.5309   32.9681 C   0  0  0  0  0  0
   62.1398   47.1886   34.2370 C   0  0  0  0  0  0
   62.0366   48.6987   34.4191 C   0  0  0  0  0  0
   63.0181   46.7292   35.4404 C   0  0  0  0  0  0
   60.7780   46.4833   34.3433 C   0  0  0  0  0  0
   58.7845   44.8775   31.2044 H   0  0  0  0  0  0
   57.6445   45.9766   31.9970 H   0  0  0  0  0  0
   57.1641   44.3885   31.3392 H   0  0  0  0  0  0
   54.3498   46.8532   28.7248 H   0  0  0  0  0  0
   58.4407   46.9027   28.0933 H   0  0  0  0  0  0
   60.0878   46.4845   30.5980 H   0  0  0  0  0  0
   60.5467   47.9991   27.9138 H   0  0  0  0  0  0
   63.9610   47.6792   27.9125 H   0  0  0  0  0  0
   62.6356   48.6068   27.2516 H   0  0  0  0  0  0
   63.6059   49.2683   28.5376 H   0  0  0  0  0  0
   61.4656   48.2131   31.7129 H   0  0  0  0  0  0
   64.0297   45.4263   33.6680 H   0  0  0  0  0  0
   64.0016   43.6111   28.5361 H   0  0  0  0  0  0
   62.7201   43.9175   29.6647 H   0  0  0  0  0  0
   61.3754   45.0723   28.1151 H   0  0  0  0  0  0
   66.8145   45.7982   30.7831 H   0  0  0  0  0  0
   67.2911   44.0883   30.5407 H   0  0  0  0  0  0
   66.1372   44.8653   29.5129 H   0  0  0  0  0  0
   63.6946   43.0452   31.5404 H   0  0  0  0  0  0
   64.9974   42.6441   30.4358 H   0  0  0  0  0  0
   65.1464   42.3373   32.1474 H   0  0  0  0  0  0
   65.6270   44.0191   33.7700 H   0  0  0  0  0  0
   67.1473   44.0769   32.9387 H   0  0  0  0  0  0
   66.3422   45.5586   33.2934 H   0  0  0  0  0  0
   61.6092   49.2467   33.5872 H   0  0  0  0  0  0
   61.4212   48.8773   35.3021 H   0  0  0  0  0  0
   63.0262   49.1369   34.5673 H   0  0  0  0  0  0
   62.9808   45.6504   35.6013 H   0  0  0  0  0  0
   64.0636   47.0157   35.3150 H   0  0  0  0  0  0
   62.6917   47.2026   36.3651 H   0  0  0  0  0  0
   60.8549   45.4123   34.1461 H   0  0  0  0  0  0
   60.4087   46.5935   35.3540 H   0  0  0  0  0  0
   60.0319   46.8757   33.6541 H   0  0  0  0  0  0
  1  2  1  0  0  0
  1 32  1  0  0  0
  1 33  1  0  0  0
  1 34  1  0  0  0
  2  3  2  0  0  0
  2  8  1  0  0  0
  3  4  1  0  0  0
  3  7  1  0  0  0
  4  5  2  0  0  0
  4  6  1  0  0  0
  6 35  1  0  0  0
  8  9  2  0  0  0
  8 36  1  0  0  0
  9 10  1  0  0  0
  9 37  1  0  0  0
 10 11  2  0  0  0
 10 38  1  0  0  0
 11 12  1  0  0  0
 11 13  1  0  0  0
 12 39  1  0  0  0
 12 40  1  0  0  0
 12 41  1  0  0  0
 13 18  1  0  0  0
 13 14  2  0  0  0
 14 15  1  0  0  0
 14 42  1  0  0  0
 15 16  2  0  0  0
 15 28  1  0  0  0
 16 17  1  0  0  0
 16 43  1  0  0  0
 17 18  2  0  0  0
 17 24  1  0  0  0
 18 19  1  0  0  0
 19 20  1  0  0  0
 20 21  1  0  0  0
 20 44  1  0  0  0
 20 45  1  0  0  0
 21 22  1  0  0  0
 21 23  1  0  0  0
 21 46  1  0  0  0
 24 25  1  0  0  0
 24 26  1  0  0  0
 24 27  1  0  0  0
 25 47  1  0  0  0
 25 48  1  0  0  0
 25 49  1  0  0  0
 26 50  1  0  0  0
 26 51  1  0  0  0
 26 52  1  0  0  0
 27 53  1  0  0  0
 27 54  1  0  0  0
 27 55  1  0  0  0
 28 29  1  0  0  0
 28 30  1  0  0  0
 28 31  1  0  0  0
 29 56  1  0  0  0
 29 57  1  0  0  0
 29 58  1  0  0  0
 30 59  1  0  0  0
 30 60  1  0  0  0
 30 61  1  0  0  0
 31 62  1  0  0  0
 31 63  1  0  0  0
 31 64  1  0  0  0
M  END
> <s_m_entry_id>
31545

> <s_m_entry_name>
ligand_docking-pose.237

> <s_m_Source_Path>
/home/csk/Desktop/cluster/DUD-E-result/rxra

> <s_m_Source_File>
ligand_docking-pose.sdf

> <i_m_Source_File_Index>
237

> <i_lp_mmshare_version>
53161

> <i_f3d_flags>
0

> <r_lp_tautomer_probability>
1

> <s_lp_Force_Field>
OPLS_2005

> <r_lp_Energy>
37.675857

> <b_lp_Chiralities_Consistent>
1

> <s_lp_Variant>
178609-1

> <s_i_glide_gridfile>
glide-grid_1mv9

> <i_i_glide_lignum>
268

> <i_i_glide_rotatable_bonds>
10

> <r_i_docking_score>
-8.2671237748867

> <r_i_glide_ligand_efficiency>
-0.266681412093119

> <r_i_glide_ligand_efficiency_sa>
-0.837747827342803

> <r_i_glide_ligand_efficiency_ln>
-1.86448976815364

> <r_i_glide_gscore>
-8.2671237748867

> <r_i_glide_lipo>
-5.59447383013825

> <r_i_glide_hbond>
0

> <r_i_glide_metal>
0

> <r_i_glide_rewards>
-1.8304078021552

> <r_i_glide_evdw>
-21.6333713531494

> <r_i_glide_ecoul>
-2.55364680290222

> <r_i_glide_erotb>
0.622473445499558

> <r_i_glide_esite>
0

> <r_i_glide_emodel>
-56.6961021363039

> <r_i_glide_energy>
-24.1870181560516

> <r_i_glide_einternal>
10.4338054656982

> <i_i_glide_confnum>
110

> <i_i_glide_posenum>
107

> <r_i_glide_eff_state_penalty>
0

> <s_user_duplicate_titles>
178609

> <s_m_subgroup_title>
dock_pv

> <s_m_subgroupid>
dock_pv1

> <b_m_subgroup_collapsed>
0

$$$$
199237
                    3D
 Schrodinger Suite 2021-1.
 44 44  0  0  1  0            999 V2000
   65.9243   45.9936   33.7104 C   0  0  0  0  0  0
   64.5921   46.4053   33.0846 C   0  0  0  0  0  0
   64.2730   46.1925   31.7729 C   0  0  0  0  0  0
   62.9192   46.5148   31.2516 C   0  0  0  0  0  0
   62.6172   46.4364   29.9240 C   0  0  0  0  0  0
   61.3132   46.6625   29.3081 C   0  0  0  0  0  0
   60.2588   45.9500   29.7627 C   0  0  0  0  0  0
   58.8744   46.0417   29.3408 C   0  0  0  0  0  0
   57.8977   45.4278   30.0386 C   0  0  0  0  0  0
   56.4642   45.4893   29.7790 C   0  0  0  0  0  0
   55.9425   46.6014   29.2047 C   0  0  0  0  0  0
   54.5553   46.8871   28.9390 C   0  0  0  0  0  0
   53.6080   46.2269   29.3390 O   0  0  0  0  0  0
   54.3927   48.0770   28.3034 O   0  0  0  0  0  0
   55.6314   44.2991   30.2256 C   0  0  0  0  0  0
   61.2016   47.7201   28.2186 C   0  0  0  0  0  0
   61.8414   46.9405   32.2640 C   0  0  0  0  0  0
   62.4433   47.7035   33.4458 C   0  0  0  0  0  0
   63.5735   46.9072   34.1083 C   0  0  0  0  0  0
   65.3652   45.6777   30.8243 C   0  0  0  0  0  0
   65.7807   45.6447   34.7338 H   0  0  0  0  0  0
   66.4175   45.1790   33.1810 H   0  0  0  0  0  0
   66.6000   46.8484   33.7389 H   0  0  0  0  0  0
   63.3721   46.1624   29.2090 H   0  0  0  0  0  0
   60.4669   45.2311   30.5390 H   0  0  0  0  0  0
   58.6215   46.6162   28.4633 H   0  0  0  0  0  0
   58.2002   44.8442   30.8975 H   0  0  0  0  0  0
   56.6115   47.3977   28.9390 H   0  0  0  0  0  0
   55.2080   48.5821   28.2592 H   0  0  0  0  0  0
   56.1836   43.6770   30.9270 H   0  0  0  0  0  0
   54.7469   44.6190   30.7727 H   0  0  0  0  0  0
   55.2919   43.7244   29.3630 H   0  0  0  0  0  0
   61.7424   48.6104   28.5390 H   0  0  0  0  0  0
   61.6906   47.3843   27.3037 H   0  0  0  0  0  0
   60.1840   48.0479   28.0128 H   0  0  0  0  0  0
   61.1131   47.6047   31.8001 H   0  0  0  0  0  0
   61.2822   46.0770   32.6210 H   0  0  0  0  0  0
   62.8080   48.6722   33.1096 H   0  0  0  0  0  0
   61.6678   47.9199   34.1818 H   0  0  0  0  0  0
   64.0628   47.5113   34.8741 H   0  0  0  0  0  0
   63.1606   46.0533   34.6475 H   0  0  0  0  0  0
   65.2832   46.0770   29.8184 H   0  0  0  0  0  0
   66.3670   45.9660   31.1405 H   0  0  0  0  0  0
   65.3264   44.5901   30.7615 H   0  0  0  0  0  0
  1  2  1  0  0  0
  1 21  1  0  0  0
  1 22  1  0  0  0
  1 23  1  0  0  0
  2 19  1  0  0  0
  2  3  2  0  0  0
  3  4  1  0  0  0
  3 20  1  0  0  0
  4  5  2  0  0  0
  4 17  1  0  0  0
  5  6  1  0  0  0
  5 24  1  0  0  0
  6  7  2  0  0  0
  6 16  1  0  0  0
  7  8  1  0  0  0
  7 25  1  0  0  0
  8  9  2  0  0  0
  8 26  1  0  0  0
  9 10  1  0  0  0
  9 27  1  0  0  0
 10 11  2  0  0  0
 10 15  1  0  0  0
 11 12  1  0  0  0
 11 28  1  0  0  0
 12 13  2  0  0  0
 12 14  1  0  0  0
 14 29  1  0  0  0
 15 30  1  0  0  0
 15 31  1  0  0  0
 15 32  1  0  0  0
 16 33  1  0  0  0
 16 34  1  0  0  0
 16 35  1  0  0  0
 17 18  1  0  0  0
 17 36  1  0  0  0
 17 37  1  0  0  0
 18 19  1  0  0  0
 18 38  1  0  0  0
 18 39  1  0  0  0
 19 40  1  0  0  0
 19 41  1  0  0  0
 20 42  1  0  0  0
 20 43  1  0  0  0
 20 44  1  0  0  0
M  END
> <s_m_entry_id>
31548

> <s_m_entry_name>
ligand_docking-pose.240

> <s_m_Source_Path>
/home/csk/Desktop/cluster/DUD-E-result/rxra

> <s_m_Source_File>
ligand_docking-pose.sdf

> <i_m_Source_File_Index>
240

> <i_lp_mmshare_version>
53161

> <i_f3d_flags>
0

> <r_lp_tautomer_probability>
1

> <s_lp_Force_Field>
OPLS_2005

> <r_lp_Energy>
28.158839

> <b_lp_Chiralities_Consistent>
1

> <s_lp_Variant>
199237-1

> <s_i_glide_gridfile>
glide-grid_1mv9

> <i_i_glide_lignum>
131

> <i_i_glide_rotatable_bonds>
5

> <r_i_docking_score>
-8.10387723645416

> <r_i_glide_ligand_efficiency>
-0.405193861822708

> <r_i_glide_ligand_efficiency_sa>
-1.09986535556938

> <r_i_glide_ligand_efficiency_ln>
-2.02813318852471

> <r_i_glide_gscore>
-8.10387723645416

> <r_i_glide_lipo>
-4.63616122780259

> <r_i_glide_hbond>
-0.199083832165672

> <r_i_glide_metal>
0

> <r_i_glide_rewards>
-2.19079470058937

> <r_i_glide_evdw>
-29.164529800415

> <r_i_glide_ecoul>
-3.90528893470764

> <r_i_glide_erotb>
0.966182354330372

> <r_i_glide_esite>
0

> <r_i_glide_emodel>
-45.2867380246068

> <r_i_glide_energy>
-33.0698187351227

> <r_i_glide_einternal>
6.36898136138916

> <i_i_glide_confnum>
28

> <i_i_glide_posenum>
141

> <r_i_glide_eff_state_penalty>
0

> <s_user_duplicate_titles>
199237

> <s_m_subgroup_title>
dock_pv

> <s_m_subgroupid>
dock_pv1

> <b_m_subgroup_collapsed>
0

$$$$
120114
                    3D
 Schrodinger Suite 2021-1.
 59 59  0  0  1  0            999 V2000
   65.1009   45.6926   36.0578 C   0  0  0  0  0  0
   65.0552   46.7509   34.9506 C   0  0  0  0  0  0
   64.0748   46.4050   33.8537 C   0  0  0  0  0  0
   62.7195   46.5647   33.9728 C   0  0  0  0  0  0
   61.8564   46.3136   32.7907 C   0  0  0  0  0  0
   60.5018   46.3930   32.8912 C   0  0  0  0  0  0
   59.4780   46.0768   31.9012 C   0  0  0  0  0  0
   59.6730   46.3637   30.5929 C   0  0  0  0  0  0
   58.9155   46.0171   29.3852 C   0  0  0  0  0  0
   59.3658   46.4157   28.1644 C   0  0  0  0  0  0
   60.5971   47.1130   27.8655 C   0  0  0  0  0  0
   61.6985   46.8558   28.3418 O   0  0  0  0  0  0
   60.4136   48.0772   26.9387 O   0  0  0  0  0  0
   57.6943   45.0868   29.4136 C   0  0  0  0  0  0
   56.2548   45.6005   29.2788 C   0  0  0  0  0  0
   55.9330   46.8768   29.0002 C   0  0  0  0  0  0
   54.5438   47.4572   28.7842 C   0  0  0  0  0  0
   55.1937   44.5339   29.4989 C   0  0  0  0  0  0
   58.2245   45.4217   32.4544 C   0  0  0  0  0  0
   62.5451   45.9142   31.4682 C   0  0  0  0  0  0
   63.8319   45.1351   31.7095 C   0  0  0  0  0  0
   64.7706   45.9770   32.5613 C   0  0  0  0  0  0
   62.1097   46.9905   35.3459 C   0  0  0  0  0  0
   61.3007   45.9141   36.0946 C   0  0  0  0  0  0
   61.3510   48.3211   35.3346 C   0  0  0  0  0  0
   65.6080   46.0772   36.9386 H   0  0  0  0  0  0
   64.1183   45.3713   36.3882 H   0  0  0  0  0  0
   65.6078   44.8007   35.7001 H   0  0  0  0  0  0
   66.0515   46.8786   34.5338 H   0  0  0  0  0  0
   64.8074   47.7378   35.3397 H   0  0  0  0  0  0
   60.0769   46.6951   33.8278 H   0  0  0  0  0  0
   60.5548   46.9514   30.4266 H   0  0  0  0  0  0
   58.8015   46.1738   27.2845 H   0  0  0  0  0  0
   61.2530   48.5051   26.7649 H   0  0  0  0  0  0
   57.7860   44.3565   30.2141 H   0  0  0  0  0  0
   57.8231   44.4768   28.5395 H   0  0  0  0  0  0
   56.7376   47.5844   28.9390 H   0  0  0  0  0  0
   54.4087   48.3814   29.3400 H   0  0  0  0  0  0
   53.7442   46.7686   29.0472 H   0  0  0  0  0  0
   54.4186   47.7171   27.7391 H   0  0  0  0  0  0
   55.6082   43.6774   30.0261 H   0  0  0  0  0  0
   54.3593   44.9041   30.0937 H   0  0  0  0  0  0
   54.8087   44.1863   28.5418 H   0  0  0  0  0  0
   58.0097   45.8079   33.4487 H   0  0  0  0  0  0
   57.3265   45.6715   31.8938 H   0  0  0  0  0  0
   58.3700   44.3453   32.5406 H   0  0  0  0  0  0
   61.9210   45.2663   30.8603 H   0  0  0  0  0  0
   62.7532   46.8004   30.8670 H   0  0  0  0  0  0
   63.6136   44.1871   32.2039 H   0  0  0  0  0  0
   64.3070   44.8877   30.7588 H   0  0  0  0  0  0
   65.6794   45.4109   32.7743 H   0  0  0  0  0  0
   65.0988   46.8588   32.0078 H   0  0  0  0  0  0
   62.9073   47.2064   36.0475 H   0  0  0  0  0  0
   61.9259   45.1378   36.5380 H   0  0  0  0  0  0
   60.8077   46.3985   36.9334 H   0  0  0  0  0  0
   60.5397   45.4286   35.4867 H   0  0  0  0  0  0
   61.6288   48.8961   34.4556 H   0  0  0  0  0  0
   60.2698   48.2026   35.3389 H   0  0  0  0  0  0
   61.5866   48.8789   36.2388 H   0  0  0  0  0  0
  1  2  1  0  0  0
  1 26  1  0  0  0
  1 27  1  0  0  0
  1 28  1  0  0  0
  2  3  1  0  0  0
  2 29  1  0  0  0
  2 30  1  0  0  0
  3 22  1  0  0  0
  3  4  2  0  0  0
  4  5  1  0  0  0
  4 23  1  0  0  0
  5  6  2  0  0  0
  5 20  1  0  0  0
  6  7  1  0  0  0
  6 31  1  0  0  0
  7  8  2  0  0  0
  7 19  1  0  0  0
  8  9  1  0  0  0
  8 32  1  0  0  0
  9 10  2  0  0  0
  9 14  1  0  0  0
 10 11  1  0  0  0
 10 33  1  0  0  0
 11 12  2  0  0  0
 11 13  1  0  0  0
 13 34  1  0  0  0
 14 15  1  0  0  0
 14 35  1  0  0  0
 14 36  1  0  0  0
 15 16  2  0  0  0
 15 18  1  0  0  0
 16 17  1  0  0  0
 16 37  1  0  0  0
 17 38  1  0  0  0
 17 39  1  0  0  0
 17 40  1  0  0  0
 18 41  1  0  0  0
 18 42  1  0  0  0
 18 43  1  0  0  0
 19 44  1  0  0  0
 19 45  1  0  0  0
 19 46  1  0  0  0
 20 21  1  0  0  0
 20 47  1  0  0  0
 20 48  1  0  0  0
 21 22  1  0  0  0
 21 49  1  0  0  0
 21 50  1  0  0  0
 22 51  1  0  0  0
 22 52  1  0  0  0
 23 24  1  0  0  0
 23 25  1  0  0  0
 23 53  1  0  0  0
 24 54  1  0  0  0
 24 55  1  0  0  0
 24 56  1  0  0  0
 25 57  1  0  0  0
 25 58  1  0  0  0
 25 59  1  0  0  0
M  END
> <s_m_entry_id>
31553

> <s_m_entry_name>
ligand_docking-pose.245

> <s_m_Source_Path>
/home/csk/Desktop/cluster/DUD-E-result/rxra

> <s_m_Source_File>
ligand_docking-pose.sdf

> <i_m_Source_File_Index>
245

> <i_lp_mmshare_version>
53161

> <i_f3d_flags>
0

> <r_lp_tautomer_probability>
1

> <s_lp_Force_Field>
OPLS_2005

> <r_lp_Energy>
42.111382

> <b_lp_Chiralities_Consistent>
1

> <s_lp_Variant>
120114-1

> <s_i_glide_gridfile>
glide-grid_1mv9

> <i_i_glide_lignum>
155

> <i_i_glide_rotatable_bonds>
8

> <r_i_docking_score>
-7.38030623370478

> <r_i_glide_ligand_efficiency>
-0.295212249348191

> <r_i_glide_ligand_efficiency_sa>
-0.863205852705647

> <r_i_glide_ligand_efficiency_ln>
-1.74935374731854

> <r_i_glide_gscore>
-7.38030623370478

> <r_i_glide_lipo>
-4.95373439105827

> <r_i_glide_hbond>
0

> <r_i_glide_metal>
0

> <r_i_glide_rewards>
-2.29473597106078

> <r_i_glide_evdw>
-21.212610244751

> <r_i_glide_ecoul>
0.803840637207031

> <r_i_glide_erotb>
0.808218545070753

> <r_i_glide_esite>
0

> <r_i_glide_emodel>
-49.0107596483723

> <r_i_glide_energy>
-20.4087696075439

> <r_i_glide_einternal>
6.51049327850342

> <i_i_glide_confnum>
27

> <i_i_glide_posenum>
160

> <r_i_glide_eff_state_penalty>
0

> <s_user_duplicate_titles>
120114

> <s_m_subgroup_title>
dock_pv

> <s_m_subgroupid>
dock_pv1

> <b_m_subgroup_collapsed>
0

$$$$
